# generated using pymatgen
data_LiAlS2
_symmetry_space_group_name_H-M   'P 1'
_cell_length_a   6.24628360
_cell_length_b   6.62373129
_cell_length_c   8.05230540
_cell_angle_alpha   89.79263413
_cell_angle_beta   89.50677541
_cell_angle_gamma   89.08375613
_symmetry_Int_Tables_number   1
_chemical_formula_structural   LiAlS2
_chemical_formula_sum   'Li4 Al4 S8'
_cell_volume   333.09674205
_cell_formula_units_Z   4
loop_
 _symmetry_equiv_pos_site_id
 _symmetry_equiv_pos_as_xyz
  1  'x, y, z'
loop_
 _atom_site_type_symbol
 _atom_site_label
 _atom_site_symmetry_multiplicity
 _atom_site_fract_x
 _atom_site_fract_y
 _atom_site_fract_z
 _atom_site_occupancy
  S  S0  1  0.86284708  0.06688118  0.87483654  1
  S  S1  1  0.93490835  0.59338543  0.12305844  1
  S  S2  1  0.92572336  0.09916790  0.35513618  1
  S  S3  1  0.36059290  0.94717518  0.09707333  1
  S  S4  1  0.88384843  0.56691559  0.60128190  1
  S  S5  1  0.39213434  0.40711877  0.84226401  1
  S  S6  1  0.39376910  0.90817642  0.63230420  1
  S  S7  1  0.44958478  0.44675567  0.37236982  1
  Al  Al8  1  0.98405608  0.93302087  0.11425554  1
  Al  Al9  1  0.49884443  0.07793262  0.86167071  1
  Al  Al10  1  0.81290855  0.42788856  0.35077328  1
  Al  Al11  1  0.52098849  0.58543945  0.62293298  1
  Li  Li12  1  0.99866233  0.40877183  0.85801959  1
  Li  Li13  1  0.99910313  0.91156199  0.61684369  1
  Li  Li14  1  0.34607546  0.58693147  0.10684196  1
  Li  Li15  1  0.34611655  0.09974527  0.37016173  1
