# generated using pymatgen
data_LiAlS2
_symmetry_space_group_name_H-M   'P 1'
_cell_length_a   6.24548838
_cell_length_b   6.57873301
_cell_length_c   8.04008211
_cell_angle_alpha   90.01719990
_cell_angle_beta   88.12365210
_cell_angle_gamma   90.06005621
_symmetry_Int_Tables_number   1
_chemical_formula_structural   LiAlS2
_chemical_formula_sum   'Li4 Al4 S8'
_cell_volume   330.16875508
_cell_formula_units_Z   4
loop_
 _symmetry_equiv_pos_site_id
 _symmetry_equiv_pos_as_xyz
  1  'x, y, z'
loop_
 _atom_site_type_symbol
 _atom_site_label
 _atom_site_symmetry_multiplicity
 _atom_site_fract_x
 _atom_site_fract_y
 _atom_site_fract_z
 _atom_site_occupancy
  S  S0  1  0.85277798  0.06762248  0.87524685  1
  S  S1  1  0.87950958  0.59903039  0.11298667  1
  S  S2  1  0.87302643  0.09164627  0.35026193  1
  S  S3  1  0.34426987  0.94686569  0.10273249  1
  S  S4  1  0.87372609  0.57101676  0.59791752  1
  S  S5  1  0.38056971  0.40865982  0.85088805  1
  S  S6  1  0.38108837  0.90664740  0.63766284  1
  S  S7  1  0.42777035  0.44134499  0.37950052  1
  Al  Al8  1  0.97879641  0.93268172  0.11212916  1
  Al  Al9  1  0.48892668  0.07945930  0.86502344  1
  Al  Al10  1  0.79490253  0.42976026  0.35077016  1
  Al  Al11  1  0.50984758  0.58331648  0.62600696  1
  Li  Li12  1  0.98847056  0.41374654  0.85704518  1
  Li  Li13  1  0.98928861  0.92435571  0.60889414  1
  Li  Li14  1  0.47313039  0.60009029  0.10165833  1
  Li  Li15  1  0.47406222  0.07062409  0.37109964  1
