# generated using pymatgen
data_LiAlS2
_symmetry_space_group_name_H-M   'P 1'
_cell_length_a   6.24548952
_cell_length_b   6.58747719
_cell_length_c   7.99439638
_cell_angle_alpha   89.85930270
_cell_angle_beta   90.73692111
_cell_angle_gamma   89.93068542
_symmetry_Int_Tables_number   1
_chemical_formula_structural   LiAlS2
_chemical_formula_sum   'Li4 Al4 S8'
_cell_volume   328.87716443
_cell_formula_units_Z   4
loop_
 _symmetry_equiv_pos_site_id
 _symmetry_equiv_pos_as_xyz
  1  'x, y, z'
loop_
 _atom_site_type_symbol
 _atom_site_label
 _atom_site_symmetry_multiplicity
 _atom_site_fract_x
 _atom_site_fract_y
 _atom_site_fract_z
 _atom_site_occupancy
  S  S0  1  0.92650080  0.06913078  0.87343967  1
  S  S1  1  0.96067563  0.60176200  0.13241751  1
  S  S2  1  0.95967994  0.09975678  0.34902323  1
  S  S3  1  0.47555747  0.93390962  0.10576586  1
  S  S4  1  0.99108655  0.56383776  0.60150787  1
  S  S5  1  0.46553126  0.41858781  0.85121841  1
  S  S6  1  0.46130163  0.90631970  0.61452721  1
  S  S7  1  0.48869758  0.44028236  0.37556892  1
  Al  Al8  1  0.84352180  0.92994445  0.11700701  1
  Al  Al9  1  0.49892609  0.07834067  0.85426588  1
  Al  Al10  1  0.85373485  0.42938429  0.36275715  1
  Al  Al11  1  0.35420882  0.57457172  0.61182614  1
  Li  Li12  1  0.86714564  0.42613257  0.87029248  1
  Li  Li13  1  0.86497085  0.91331884  0.60683228  1
  Li  Li14  1  0.34939500  0.58479918  0.11264359  1
  Li  Li15  1  0.34922945  0.09678966  0.36073068  1
