# generated using pymatgen
data_LiAlS2
_symmetry_space_group_name_H-M   'P 1'
_cell_length_a   6.24650746
_cell_length_b   6.62835642
_cell_length_c   8.05065418
_cell_angle_alpha   89.81580711
_cell_angle_beta   89.73083401
_cell_angle_gamma   88.96328317
_symmetry_Int_Tables_number   1
_chemical_formula_structural   LiAlS2
_chemical_formula_sum   'Li4 Al4 S8'
_cell_volume   333.27003774
_cell_formula_units_Z   4
loop_
 _symmetry_equiv_pos_site_id
 _symmetry_equiv_pos_as_xyz
  1  'x, y, z'
loop_
 _atom_site_type_symbol
 _atom_site_label
 _atom_site_symmetry_multiplicity
 _atom_site_fract_x
 _atom_site_fract_y
 _atom_site_fract_z
 _atom_site_occupancy
  S  S0  1  0.87545489  0.06962956  0.86920822  1
  S  S1  1  0.94006775  0.59259758  0.12539674  1
  S  S2  1  0.93551418  0.10194372  0.35304378  1
  S  S3  1  0.42201244  0.94308897  0.10313039  1
  S  S4  1  0.88381126  0.56632591  0.60106615  1
  S  S5  1  0.39422276  0.40734989  0.84256434  1
  S  S6  1  0.39596303  0.90941356  0.63168749  1
  S  S7  1  0.44831576  0.44661534  0.37238489  1
  Al  Al8  1  0.88067764  0.92745011  0.12018059  1
  Al  Al9  1  0.50703011  0.07873483  0.86108745  1
  Al  Al10  1  0.80943176  0.42739641  0.35154442  1
  Al  Al11  1  0.52008824  0.58604720  0.62349519  1
  Li  Li12  1  0.00194785  0.41032861  0.85766451  1
  Li  Li13  1  0.00264710  0.90865490  0.61554336  1
  Li  Li14  1  0.34672180  0.59333979  0.10606481  1
  Li  Li15  1  0.34625678  0.09795183  0.36576158  1
