# generated using pymatgen
data_LiAlS2
_symmetry_space_group_name_H-M   'P 1'
_cell_length_a   6.24636748
_cell_length_b   6.62830869
_cell_length_c   8.05559311
_cell_angle_alpha   90.20671176
_cell_angle_beta   90.37697120
_cell_angle_gamma   89.03684923
_symmetry_Int_Tables_number   1
_chemical_formula_structural   LiAlS2
_chemical_formula_sum   'Li4 Al4 S8'
_cell_volume   333.46814736
_cell_formula_units_Z   4
loop_
 _symmetry_equiv_pos_site_id
 _symmetry_equiv_pos_as_xyz
  1  'x, y, z'
loop_
 _atom_site_type_symbol
 _atom_site_label
 _atom_site_symmetry_multiplicity
 _atom_site_fract_x
 _atom_site_fract_y
 _atom_site_fract_z
 _atom_site_occupancy
  S  S0  1  0.89071725  0.06150772  0.87251597  1
  S  S1  1  0.94302399  0.59907383  0.13170948  1
  S  S2  1  0.94504760  0.10108973  0.34230874  1
  S  S3  1  0.45507672  0.94176371  0.10096524  1
  S  S4  1  0.95836051  0.56294625  0.59937046  1
  S  S5  1  0.40880502  0.40699815  0.85547613  1
  S  S6  1  0.40213121  0.91714155  0.62432100  1
  S  S7  1  0.47050447  0.43960438  0.37170249  1
  Al  Al8  1  0.81874915  0.92232295  0.12325931  1
  Al  Al9  1  0.52927754  0.08045206  0.85162087  1
  Al  Al10  1  0.83716885  0.43084755  0.36281699  1
  Al  Al11  1  0.39469087  0.57847990  0.61726065  1
  Li  Li12  1  0.99179916  0.41000924  0.86700330  1
  Li  Li13  1  0.99117392  0.91725440  0.60585948  1
  Li  Li14  1  0.33637467  0.59903313  0.11638459  1
  Li  Li15  1  0.33726242  0.09834365  0.35724919  1
