
#======================================================================
# CRYSTAL DATA
#----------------------------------------------------------------------
data_VESTA_phase_1

_chemical_name_common                  'Al   Hf   Mg   N                      '
_cell_length_a                         9.720828
_cell_length_b                         9.747209
_cell_length_c                         10.146039
_cell_angle_alpha                      90.083427
_cell_angle_beta                       89.868492
_cell_angle_gamma                      60.144096
_cell_volume                           833.750981
_space_group_name_H-M_alt              'P 1'
_space_group_IT_number                 1

loop_
_space_group_symop_operation_xyz
   'x, y, z'

loop_
   _atom_site_label
   _atom_site_occupancy
   _atom_site_fract_x
   _atom_site_fract_y
   _atom_site_fract_z
   _atom_site_adp_type
   _atom_site_U_iso_or_equiv
   _atom_site_type_symbol
   Al1        1.0     0.109642     0.089936     0.327194    Uiso  ? Al
   Al2        1.0     0.875903     0.210221     0.566370    Uiso  ? Al
   Al3        1.0     0.454343     0.088958     0.326633    Uiso  ? Al
   Al4        1.0     0.561562     0.196603     0.071357    Uiso  ? Al
   Al5        1.0     0.229700     0.201569     0.571263    Uiso  ? Al
   Al6        1.0     0.776736     0.090555     0.324140    Uiso  ? Al
   Al7        1.0     0.452705     0.096988     0.816526    Uiso  ? Al
   Al8        1.0     0.559060     0.205917     0.571700    Uiso  ? Al
   Al9        1.0     0.217584     0.544366     0.067973    Uiso  ? Al
   Al10       1.0     0.781018     0.422599     0.814417    Uiso  ? Al
   Al11       1.0     0.444247     0.422166     0.326227    Uiso  ? Al
   Al12       1.0     0.111190     0.434772     0.810444    Uiso  ? Al
   Al13       1.0     0.229507     0.545706     0.577052    Uiso  ? Al
   Al14       1.0     0.779881     0.428885     0.325181    Uiso  ? Al
   Al15       1.0     0.884636     0.548645     0.067663    Uiso  ? Al
   Al16       1.0     0.442232     0.417208     0.820062    Uiso  ? Al
   Al17       1.0     0.557037     0.531343     0.563362    Uiso  ? Al
   Al18       1.0     0.108523     0.766911     0.321371    Uiso  ? Al
   Al19       1.0     0.222685     0.868773     0.080943    Uiso  ? Al
   Al20       1.0     0.780140     0.768252     0.824507    Uiso  ? Al
   Al21       1.0     0.443928     0.767097     0.328680    Uiso  ? Al
   Al22       1.0     0.562565     0.874111     0.077255    Uiso  ? Al
   Al23       1.0     0.219711     0.866946     0.560479    Uiso  ? Al
   Al24       1.0     0.774653     0.766675     0.319038    Uiso  ? Al
   Al25       1.0     0.885499     0.874057     0.074928    Uiso  ? Al
   Al26       1.0     0.560134     0.875342     0.567698    Uiso  ? Al
   Hf1        1.0     0.225951     0.210403     0.076737    Uiso  ? Hf
   Hf2        1.0     0.106399     0.091245     0.817420    Uiso  ? Hf
   Hf3        1.0     0.104311     0.438114     0.346134    Uiso  ? Hf
   Hf4        1.0     0.556987     0.533044     0.089383    Uiso  ? Hf
   Hf5        1.0     0.455350     0.755055     0.815516    Uiso  ? Hf
   Mg1        1.0     0.772391     0.092039     0.819834    Uiso  ? Mg
   Mg2        1.0     0.886522     0.201156     0.078750    Uiso  ? Mg
   Mg3        1.0     0.874819     0.549915     0.584763    Uiso  ? Mg
   Mg4        1.0     0.887512     0.872471     0.573890    Uiso  ? Mg
   Mg5        1.0     0.106617     0.753991     0.823852    Uiso  ? Mg
   N1         1.0     0.231445     0.191062     0.375792    Uiso  ? N
   N2         1.0     0.122289     0.082079     0.132849    Uiso  ? N
   N3         1.0     0.882866     0.218605     0.876910    Uiso  ? N
   N4         1.0     0.769597     0.107522     0.616372    Uiso  ? N
   N5         1.0     0.551492     0.207269     0.381852    Uiso  ? N
   N6         1.0     0.458925     0.085780     0.138236    Uiso  ? N
   N7         1.0     0.226519     0.212245     0.868676    Uiso  ? N
   N8         1.0     0.111094     0.094230     0.610758    Uiso  ? N
   N9         1.0     0.888488     0.208361     0.374312    Uiso  ? N
   N10        1.0     0.768058     0.089027     0.136577    Uiso  ? N
   N11        1.0     0.540252     0.211500     0.886031    Uiso  ? N
   N12        1.0     0.444533     0.093976     0.627430    Uiso  ? N
   N13        1.0     0.231968     0.551248     0.384804    Uiso  ? N
   N14        1.0     0.098996     0.449181     0.135450    Uiso  ? N
   N15        1.0     0.888996     0.537716     0.874422    Uiso  ? N
   N16        1.0     0.765429     0.423486     0.628213    Uiso  ? N
   N17        1.0     0.554104     0.537352     0.367119    Uiso  ? N
   N18        1.0     0.432660     0.414798     0.137142    Uiso  ? N
   N19        1.0     0.230064     0.521085     0.882678    Uiso  ? N
   N20        1.0     0.126137     0.422170     0.616169    Uiso  ? N
   N21        1.0     0.866584     0.554383     0.378925    Uiso  ? N
   N22        1.0     0.789636     0.435155     0.137612    Uiso  ? N
   N23        1.0     0.562485     0.521852     0.881647    Uiso  ? N
   N24        1.0     0.446211     0.427178     0.628972    Uiso  ? N
   N25        1.0     0.222559     0.872932     0.373102    Uiso  ? N
   N26        1.0     0.115980     0.758263     0.130535    Uiso  ? N
   N27        1.0     0.883557     0.866496     0.892369    Uiso  ? N
   N28        1.0     0.755253     0.775066     0.644048    Uiso  ? N
   N29        1.0     0.556562     0.874332     0.378860    Uiso  ? N
   N30        1.0     0.442420     0.774110     0.134679    Uiso  ? N
   N31        1.0     0.232315     0.863471     0.893322    Uiso  ? N
   N32        1.0     0.126381     0.756634     0.623329    Uiso  ? N
   N33        1.0     0.890271     0.868919     0.364889    Uiso  ? N
   N34        1.0     0.775994     0.760324     0.129693    Uiso  ? N
   N35        1.0     0.555561     0.884644     0.889067    Uiso  ? N
   N36        1.0     0.443695     0.761127     0.608639    Uiso  ? N
