
#======================================================================
# CRYSTAL DATA
#----------------------------------------------------------------------
data_VESTA_phase_1

_chemical_name_common                  'Al   Hf   Mg   N                      '
_cell_length_a                         10.225795
_cell_length_b                         10.244490
_cell_length_c                         8.769088
_cell_angle_alpha                      90.053696
_cell_angle_beta                       89.978058
_cell_angle_gamma                      60.047920
_cell_volume                           795.942252
_space_group_name_H-M_alt              'P 1'
_space_group_IT_number                 1

loop_
_space_group_symop_operation_xyz
   'x, y, z'

loop_
   _atom_site_label
   _atom_site_occupancy
   _atom_site_fract_x
   _atom_site_fract_y
   _atom_site_fract_z
   _atom_site_adp_type
   _atom_site_U_iso_or_equiv
   _atom_site_type_symbol
   Al1        1.0     0.108583     0.092966     0.367494    Uiso  ? Al
   Al2        1.0     0.873554     0.211183     0.593816    Uiso  ? Al
   Al3        1.0     0.453103     0.091734     0.352958    Uiso  ? Al
   Al4        1.0     0.559957     0.198403     0.088393    Uiso  ? Al
   Al5        1.0     0.229593     0.203184     0.598059    Uiso  ? Al
   Al6        1.0     0.776176     0.090599     0.352509    Uiso  ? Al
   Al7        1.0     0.452303     0.095655     0.829756    Uiso  ? Al
   Al8        1.0     0.559975     0.205461     0.593317    Uiso  ? Al
   Al9        1.0     0.222161     0.543616     0.084232    Uiso  ? Al
   Al10       1.0     0.777966     0.427582     0.829565    Uiso  ? Al
   Al11       1.0     0.441064     0.420452     0.353509    Uiso  ? Al
   Al12       1.0     0.109664     0.434753     0.836369    Uiso  ? Al
   Al13       1.0     0.228894     0.543602     0.606384    Uiso  ? Al
   Al14       1.0     0.784122     0.426767     0.358592    Uiso  ? Al
   Al15       1.0     0.881260     0.550377     0.088222    Uiso  ? Al
   Al16       1.0     0.443800     0.418272     0.833899    Uiso  ? Al
   Al17       1.0     0.554916     0.532723     0.584570    Uiso  ? Al
   Al18       1.0     0.108805     0.762183     0.357844    Uiso  ? Al
   Al19       1.0     0.220699     0.867316     0.127898    Uiso  ? Al
   Al20       1.0     0.776801     0.769566     0.830883    Uiso  ? Al
   Al21       1.0     0.443987     0.765898     0.359167    Uiso  ? Al
   Al22       1.0     0.565160     0.873210     0.106207    Uiso  ? Al
   Al23       1.0     0.223206     0.865094     0.595563    Uiso  ? Al
   Al24       1.0     0.777555     0.765519     0.353638    Uiso  ? Al
   Al25       1.0     0.883964     0.872434     0.099936    Uiso  ? Al
   Al26       1.0     0.557319     0.875435     0.580840    Uiso  ? Al
   Hf1        1.0     0.229761     0.204677     0.103446    Uiso  ? Hf
   Hf2        1.0     0.104031     0.095959     0.845456    Uiso  ? Hf
   Hf3        1.0     0.104294     0.440095     0.362872    Uiso  ? Hf
   Hf4        1.0     0.558941     0.529228     0.111689    Uiso  ? Hf
   Hf5        1.0     0.450418     0.761324     0.846843    Uiso  ? Hf
   Mg1        1.0     0.773564     0.091775     0.849184    Uiso  ? Mg
   Mg2        1.0     0.883937     0.203561     0.111373    Uiso  ? Mg
   Mg3        1.0     0.876843     0.548012     0.607078    Uiso  ? Mg
   Mg4        1.0     0.889506     0.875829     0.602424    Uiso  ? Mg
   Mg5        1.0     0.105134     0.758208     0.850162    Uiso  ? Mg
   N1         1.0     0.227866     0.196642     0.358983    Uiso  ? N
   N2         1.0     0.122115     0.078548     0.100281    Uiso  ? N
   N3         1.0     0.877144     0.220709     0.844071    Uiso  ? N
   N4         1.0     0.769803     0.105989     0.591177    Uiso  ? N
   N5         1.0     0.548553     0.207743     0.370097    Uiso  ? N
   N6         1.0     0.460008     0.086156     0.121989    Uiso  ? N
   N7         1.0     0.229924     0.211261     0.852728    Uiso  ? N
   N8         1.0     0.116831     0.093637     0.596347    Uiso  ? N
   N9         1.0     0.893968     0.207002     0.365115    Uiso  ? N
   N10        1.0     0.766880     0.091721     0.123304    Uiso  ? N
   N11        1.0     0.541556     0.211251     0.859405    Uiso  ? N
   N12        1.0     0.444739     0.092107     0.605763    Uiso  ? N
   N13        1.0     0.230286     0.545007     0.366344    Uiso  ? N
   N14        1.0     0.102848     0.444484     0.107611    Uiso  ? N
   N15        1.0     0.885308     0.540848     0.859608    Uiso  ? N
   N16        1.0     0.765153     0.426733     0.602294    Uiso  ? N
   N17        1.0     0.550342     0.539526     0.360683    Uiso  ? N
   N18        1.0     0.436521     0.413862     0.119749    Uiso  ? N
   N19        1.0     0.231023     0.525674     0.856813    Uiso  ? N
   N20        1.0     0.125645     0.420801     0.611312    Uiso  ? N
   N21        1.0     0.874224     0.550132     0.363227    Uiso  ? N
   N22        1.0     0.787123     0.434374     0.121826    Uiso  ? N
   N23        1.0     0.559592     0.523786     0.859773    Uiso  ? N
   N24        1.0     0.446181     0.427282     0.608262    Uiso  ? N
   N25        1.0     0.225002     0.875374     0.356487    Uiso  ? N
   N26        1.0     0.120400     0.756111     0.117926    Uiso  ? N
   N27        1.0     0.882826     0.865177     0.873491    Uiso  ? N
   N28        1.0     0.760330     0.774291     0.608353    Uiso  ? N
   N29        1.0     0.551735     0.875093     0.357583    Uiso  ? N
   N30        1.0     0.441299     0.770259     0.108574    Uiso  ? N
   N31        1.0     0.224428     0.866279     0.835861    Uiso  ? N
   N32        1.0     0.124612     0.754424     0.591651    Uiso  ? N
   N33        1.0     0.891794     0.868482     0.346310    Uiso  ? N
   N34        1.0     0.774903     0.759494     0.122327    Uiso  ? N
   N35        1.0     0.558943     0.885702     0.868980    Uiso  ? N
   N36        1.0     0.449338     0.758448     0.595909    Uiso  ? N
