
#======================================================================
# CRYSTAL DATA
#----------------------------------------------------------------------
data_VESTA_phase_1

_chemical_name_common                  'Al   Hf   Mg   N                      '
_cell_length_a                         10.159428
_cell_length_b                         10.179782
_cell_length_c                         8.955374
_cell_angle_alpha                      90.190796
_cell_angle_beta                       90.110268
_cell_angle_gamma                      60.146248
_cell_volume                           803.263006
_space_group_name_H-M_alt              'P 1'
_space_group_IT_number                 1

loop_
_space_group_symop_operation_xyz
   'x, y, z'

loop_
   _atom_site_label
   _atom_site_occupancy
   _atom_site_fract_x
   _atom_site_fract_y
   _atom_site_fract_z
   _atom_site_adp_type
   _atom_site_U_iso_or_equiv
   _atom_site_type_symbol
   Al1        1.0     0.111540     0.094811     0.379727    Uiso  ? Al
   Al2        1.0     0.871400     0.211219     0.592319    Uiso  ? Al
   Al3        1.0     0.448265     0.092181     0.379983    Uiso  ? Al
   Al4        1.0     0.558978     0.197419     0.129272    Uiso  ? Al
   Al5        1.0     0.231270     0.206319     0.618721    Uiso  ? Al
   Al6        1.0     0.778807     0.087135     0.354877    Uiso  ? Al
   Al7        1.0     0.456674     0.094924     0.859615    Uiso  ? Al
   Al8        1.0     0.558694     0.207154     0.616505    Uiso  ? Al
   Al9        1.0     0.222092     0.544089     0.105501    Uiso  ? Al
   Al10       1.0     0.776334     0.427203     0.821072    Uiso  ? Al
   Al11       1.0     0.439122     0.423867     0.373657    Uiso  ? Al
   Al12       1.0     0.107612     0.435578     0.845115    Uiso  ? Al
   Al13       1.0     0.229648     0.542518     0.631575    Uiso  ? Al
   Al14       1.0     0.784066     0.428393     0.357861    Uiso  ? Al
   Al15       1.0     0.880923     0.548107     0.087993    Uiso  ? Al
   Al16       1.0     0.444574     0.414812     0.867233    Uiso  ? Al
   Al17       1.0     0.553623     0.533623     0.584418    Uiso  ? Al
   Al18       1.0     0.107666     0.760364     0.358701    Uiso  ? Al
   Al19       1.0     0.221382     0.869829     0.136061    Uiso  ? Al
   Al20       1.0     0.777504     0.766936     0.856117    Uiso  ? Al
   Al21       1.0     0.445965     0.767077     0.372911    Uiso  ? Al
   Al22       1.0     0.564492     0.871190     0.127777    Uiso  ? Al
   Al23       1.0     0.222943     0.861975     0.597409    Uiso  ? Al
   Al24       1.0     0.776920     0.768623     0.383994    Uiso  ? Al
   Al25       1.0     0.883601     0.871657     0.102106    Uiso  ? Al
   Al26       1.0     0.558773     0.878819     0.613028    Uiso  ? Al
   Hf1        1.0     0.229497     0.202044     0.101315    Uiso  ? Hf
   Hf2        1.0     0.101533     0.094235     0.843074    Uiso  ? Hf
   Hf3        1.0     0.106689     0.437338     0.362662    Uiso  ? Hf
   Hf4        1.0     0.559067     0.531655     0.112287    Uiso  ? Hf
   Hf5        1.0     0.447424     0.760605     0.847082    Uiso  ? Hf
   Mg1        1.0     0.769031     0.096490     0.870889    Uiso  ? Mg
   Mg2        1.0     0.888073     0.202252     0.118971    Uiso  ? Mg
   Mg3        1.0     0.880538     0.547919     0.609607    Uiso  ? Mg
   Mg4        1.0     0.890902     0.877836     0.621912    Uiso  ? Mg
   Mg5        1.0     0.106983     0.758183     0.869485    Uiso  ? Mg
   N1         1.0     0.229885     0.193980     0.345038    Uiso  ? N
   N2         1.0     0.122098     0.076087     0.086145    Uiso  ? N
   N3         1.0     0.873944     0.220050     0.833100    Uiso  ? N
   N4         1.0     0.766450     0.106240     0.574374    Uiso  ? N
   N5         1.0     0.542459     0.209242     0.345007    Uiso  ? N
   N6         1.0     0.463335     0.081627     0.083250    Uiso  ? N
   N7         1.0     0.228650     0.212279     0.847456    Uiso  ? N
   N8         1.0     0.118448     0.095986     0.596222    Uiso  ? N
   N9         1.0     0.897486     0.206871     0.364088    Uiso  ? N
   N10        1.0     0.768653     0.091692     0.120610    Uiso  ? N
   N11        1.0     0.543931     0.211512     0.829896    Uiso  ? N
   N12        1.0     0.443034     0.095751     0.593182    Uiso  ? N
   N13        1.0     0.231720     0.543274     0.330953    Uiso  ? N
   N14        1.0     0.101843     0.442666     0.100686    Uiso  ? N
   N15        1.0     0.886345     0.536006     0.856040    Uiso  ? N
   N16        1.0     0.764840     0.428265     0.597546    Uiso  ? N
   N17        1.0     0.549387     0.541377     0.356463    Uiso  ? N
   N18        1.0     0.440586     0.411213     0.090815    Uiso  ? N
   N19        1.0     0.229938     0.526991     0.850466    Uiso  ? N
   N20        1.0     0.127250     0.422490     0.605681    Uiso  ? N
   N21        1.0     0.874070     0.554182     0.357093    Uiso  ? N
   N22        1.0     0.787427     0.432542     0.124860    Uiso  ? N
   N23        1.0     0.560658     0.522802     0.857682    Uiso  ? N
   N24        1.0     0.442552     0.429233     0.590546    Uiso  ? N
   N25        1.0     0.225871     0.877152     0.354647    Uiso  ? N
   N26        1.0     0.119369     0.760764     0.111349    Uiso  ? N
   N27        1.0     0.883686     0.869033     0.867842    Uiso  ? N
   N28        1.0     0.764587     0.774040     0.598924    Uiso  ? N
   N29        1.0     0.553902     0.876556     0.345915    Uiso  ? N
   N30        1.0     0.439532     0.773980     0.096885    Uiso  ? N
   N31        1.0     0.221677     0.864553     0.818389    Uiso  ? N
   N32        1.0     0.126040     0.747831     0.578199    Uiso  ? N
   N33        1.0     0.890271     0.864936     0.333699    Uiso  ? N
   N34        1.0     0.770344     0.759956     0.085709    Uiso  ? N
   N35        1.0     0.556971     0.883996     0.832248    Uiso  ? N
   N36        1.0     0.450411     0.757529     0.592902    Uiso  ? N
