
#======================================================================
# CRYSTAL DATA
#----------------------------------------------------------------------
data_VESTA_phase_1

_chemical_name_common                  'Al   Hf   Mg   N                      '
_cell_length_a                         10.216417
_cell_length_b                         10.233922
_cell_length_c                         8.795551
_cell_angle_alpha                      90.148781
_cell_angle_beta                       90.062286
_cell_angle_gamma                      60.138943
_cell_volume                           797.515796
_space_group_name_H-M_alt              'P 1'
_space_group_IT_number                 1

loop_
_space_group_symop_operation_xyz
   'x, y, z'

loop_
   _atom_site_label
   _atom_site_occupancy
   _atom_site_fract_x
   _atom_site_fract_y
   _atom_site_fract_z
   _atom_site_adp_type
   _atom_site_U_iso_or_equiv
   _atom_site_type_symbol
   Al1        1.0     0.110245     0.094440     0.373134    Uiso  ? Al
   Al2        1.0     0.871713     0.211558     0.592997    Uiso  ? Al
   Al3        1.0     0.449139     0.092337     0.377239    Uiso  ? Al
   Al4        1.0     0.559765     0.197355     0.124233    Uiso  ? Al
   Al5        1.0     0.230057     0.205971     0.611876    Uiso  ? Al
   Al6        1.0     0.779153     0.087597     0.354250    Uiso  ? Al
   Al7        1.0     0.455396     0.095168     0.852645    Uiso  ? Al
   Al8        1.0     0.558838     0.207004     0.613202    Uiso  ? Al
   Al9        1.0     0.222380     0.544151     0.100416    Uiso  ? Al
   Al10       1.0     0.777826     0.427216     0.827524    Uiso  ? Al
   Al11       1.0     0.439644     0.423826     0.371198    Uiso  ? Al
   Al12       1.0     0.107437     0.435626     0.845204    Uiso  ? Al
   Al13       1.0     0.229269     0.542466     0.628778    Uiso  ? Al
   Al14       1.0     0.783735     0.427578     0.359465    Uiso  ? Al
   Al15       1.0     0.880378     0.549124     0.091073    Uiso  ? Al
   Al16       1.0     0.444502     0.415293     0.861375    Uiso  ? Al
   Al17       1.0     0.554211     0.532957     0.589156    Uiso  ? Al
   Al18       1.0     0.108323     0.760194     0.357074    Uiso  ? Al
   Al19       1.0     0.221012     0.869169     0.132792    Uiso  ? Al
   Al20       1.0     0.777997     0.766797     0.850128    Uiso  ? Al
   Al21       1.0     0.445439     0.766422     0.368334    Uiso  ? Al
   Al22       1.0     0.564459     0.871851     0.124696    Uiso  ? Al
   Al23       1.0     0.222945     0.862671     0.595428    Uiso  ? Al
   Al24       1.0     0.777247     0.767462     0.377449    Uiso  ? Al
   Al25       1.0     0.883426     0.872095     0.100766    Uiso  ? Al
   Al26       1.0     0.558757     0.877337     0.607053    Uiso  ? Al
   Hf1        1.0     0.230449     0.202377     0.101687    Uiso  ? Hf
   Hf2        1.0     0.102108     0.094983     0.843278    Uiso  ? Hf
   Hf3        1.0     0.106239     0.438732     0.361971    Uiso  ? Hf
   Hf4        1.0     0.558869     0.531036     0.111844    Uiso  ? Hf
   Hf5        1.0     0.447609     0.761604     0.846610    Uiso  ? Hf
   Mg1        1.0     0.770218     0.094864     0.864128    Uiso  ? Mg
   Mg2        1.0     0.886033     0.203138     0.114721    Uiso  ? Mg
   Mg3        1.0     0.879561     0.547368     0.609542    Uiso  ? Mg
   Mg4        1.0     0.890859     0.876739     0.615373    Uiso  ? Mg
   Mg5        1.0     0.106097     0.758801     0.863297    Uiso  ? Mg
   N1         1.0     0.229631     0.195714     0.351269    Uiso  ? N
   N2         1.0     0.122269     0.077488     0.093454    Uiso  ? N
   N3         1.0     0.875077     0.220176     0.837864    Uiso  ? N
   N4         1.0     0.767309     0.106493     0.578866    Uiso  ? N
   N5         1.0     0.543471     0.209207     0.348945    Uiso  ? N
   N6         1.0     0.462476     0.082279     0.088138    Uiso  ? N
   N7         1.0     0.228198     0.212035     0.847614    Uiso  ? N
   N8         1.0     0.117424     0.095555     0.595313    Uiso  ? N
   N9         1.0     0.896422     0.207318     0.363399    Uiso  ? N
   N10        1.0     0.768704     0.091139     0.121217    Uiso  ? N
   N11        1.0     0.544168     0.211077     0.834168    Uiso  ? N
   N12        1.0     0.443214     0.095218     0.597271    Uiso  ? N
   N13        1.0     0.231690     0.543299     0.335050    Uiso  ? N
   N14        1.0     0.102344     0.442158     0.100569    Uiso  ? N
   N15        1.0     0.886385     0.537309     0.857272    Uiso  ? N
   N16        1.0     0.765439     0.427559     0.598260    Uiso  ? N
   N17        1.0     0.549923     0.540302     0.358190    Uiso  ? N
   N18        1.0     0.440935     0.411752     0.094030    Uiso  ? N
   N19        1.0     0.229773     0.527023     0.853798    Uiso  ? N
   N20        1.0     0.126348     0.423129     0.607992    Uiso  ? N
   N21        1.0     0.874176     0.552716     0.354857    Uiso  ? N
   N22        1.0     0.786261     0.433014     0.119853    Uiso  ? N
   N23        1.0     0.559929     0.524076     0.854260    Uiso  ? N
   N24        1.0     0.442616     0.429132     0.595057    Uiso  ? N
   N25        1.0     0.225628     0.876524     0.355988    Uiso  ? N
   N26        1.0     0.119278     0.760341     0.112883    Uiso  ? N
   N27        1.0     0.883609     0.868040     0.868266    Uiso  ? N
   N28        1.0     0.764536     0.772733     0.600629    Uiso  ? N
   N29        1.0     0.553168     0.876933     0.350112    Uiso  ? N
   N30        1.0     0.440299     0.772986     0.102196    Uiso  ? N
   N31        1.0     0.222129     0.865961     0.824588    Uiso  ? N
   N32        1.0     0.126537     0.748422     0.582553    Uiso  ? N
   N33        1.0     0.891142     0.865324     0.337944    Uiso  ? N
   N34        1.0     0.771080     0.760391     0.093397    Uiso  ? N
   N35        1.0     0.557481     0.883454     0.836523    Uiso  ? N
   N36        1.0     0.449849     0.757480     0.593040    Uiso  ? N
