
#======================================================================
# CRYSTAL DATA
#----------------------------------------------------------------------
data_VESTA_phase_1

_chemical_name_common                  'Al   Hf   Mg   N                      '
_cell_length_a                         9.932920
_cell_length_b                         9.969390
_cell_length_c                         9.616319
_cell_angle_alpha                      90.035477
_cell_angle_beta                       89.944809
_cell_angle_gamma                      60.059093
_cell_volume                           825.168662
_space_group_name_H-M_alt              'P 1'
_space_group_IT_number                 1

loop_
_space_group_symop_operation_xyz
   'x, y, z'

loop_
   _atom_site_label
   _atom_site_occupancy
   _atom_site_fract_x
   _atom_site_fract_y
   _atom_site_fract_z
   _atom_site_adp_type
   _atom_site_U_iso_or_equiv
   _atom_site_type_symbol
   Al1        1.0     0.109684     0.090178     0.386742    Uiso  ? Al
   Al2        1.0     0.872200     0.212592     0.579426    Uiso  ? Al
   Al3        1.0     0.457303     0.087029     0.332339    Uiso  ? Al
   Al4        1.0     0.561659     0.197047     0.074705    Uiso  ? Al
   Al5        1.0     0.233056     0.202087     0.579904    Uiso  ? Al
   Al6        1.0     0.775786     0.089978     0.334919    Uiso  ? Al
   Al7        1.0     0.449538     0.101396     0.822946    Uiso  ? Al
   Al8        1.0     0.558326     0.206730     0.578128    Uiso  ? Al
   Al9        1.0     0.216670     0.545902     0.073481    Uiso  ? Al
   Al10       1.0     0.776655     0.424426     0.820202    Uiso  ? Al
   Al11       1.0     0.442287     0.418011     0.329906    Uiso  ? Al
   Al12       1.0     0.113249     0.433697     0.816537    Uiso  ? Al
   Al13       1.0     0.233507     0.541474     0.581681    Uiso  ? Al
   Al14       1.0     0.784361     0.428115     0.334400    Uiso  ? Al
   Al15       1.0     0.885297     0.548315     0.071420    Uiso  ? Al
   Al16       1.0     0.443412     0.418444     0.826930    Uiso  ? Al
   Al17       1.0     0.558140     0.526792     0.569357    Uiso  ? Al
   Al18       1.0     0.108009     0.763746     0.349288    Uiso  ? Al
   Al19       1.0     0.222834     0.869743     0.139885    Uiso  ? Al
   Al20       1.0     0.778565     0.771933     0.827978    Uiso  ? Al
   Al21       1.0     0.445005     0.764491     0.376855    Uiso  ? Al
   Al22       1.0     0.563406     0.874918     0.079973    Uiso  ? Al
   Al23       1.0     0.222398     0.864928     0.614618    Uiso  ? Al
   Al24       1.0     0.774369     0.765198     0.325681    Uiso  ? Al
   Al25       1.0     0.887988     0.872887     0.085558    Uiso  ? Al
   Al26       1.0     0.562144     0.877551     0.575786    Uiso  ? Al
   Hf1        1.0     0.226490     0.208784     0.097129    Uiso  ? Hf
   Hf2        1.0     0.105544     0.098066     0.848600    Uiso  ? Hf
   Hf3        1.0     0.101223     0.440582     0.358400    Uiso  ? Hf
   Hf4        1.0     0.556759     0.533738     0.104767    Uiso  ? Hf
   Hf5        1.0     0.456685     0.755420     0.839277    Uiso  ? Hf
   Mg1        1.0     0.772412     0.091660     0.827348    Uiso  ? Mg
   Mg2        1.0     0.884419     0.202078     0.091038    Uiso  ? Mg
   Mg3        1.0     0.873161     0.550766     0.598431    Uiso  ? Mg
   Mg4        1.0     0.883664     0.875228     0.579394    Uiso  ? Mg
   Mg5        1.0     0.102285     0.753930     0.826163    Uiso  ? Mg
   N1         1.0     0.230332     0.192019     0.363835    Uiso  ? N
   N2         1.0     0.124873     0.074990     0.081709    Uiso  ? N
   N3         1.0     0.875953     0.220736     0.867319    Uiso  ? N
   N4         1.0     0.768590     0.107287     0.609475    Uiso  ? N
   N5         1.0     0.549785     0.206792     0.381016    Uiso  ? N
   N6         1.0     0.462256     0.083889     0.135386    Uiso  ? N
   N7         1.0     0.228777     0.219167     0.872099    Uiso  ? N
   N8         1.0     0.113661     0.096122     0.599496    Uiso  ? N
   N9         1.0     0.890307     0.207737     0.373713    Uiso  ? N
   N10        1.0     0.766983     0.089851     0.136455    Uiso  ? N
   N11        1.0     0.540996     0.212467     0.880127    Uiso  ? N
   N12        1.0     0.444829     0.094693     0.623781    Uiso  ? N
   N13        1.0     0.234716     0.544344     0.381564    Uiso  ? N
   N14        1.0     0.097808     0.450783     0.133921    Uiso  ? N
   N15        1.0     0.888522     0.538120     0.867635    Uiso  ? N
   N16        1.0     0.764249     0.424593     0.622864    Uiso  ? N
   N17        1.0     0.553205     0.536083     0.361586    Uiso  ? N
   N18        1.0     0.432701     0.413655     0.132630    Uiso  ? N
   N19        1.0     0.229316     0.524629     0.875664    Uiso  ? N
   N20        1.0     0.128064     0.420104     0.610528    Uiso  ? N
   N21        1.0     0.866275     0.555427     0.381611    Uiso  ? N
   N22        1.0     0.791205     0.435377     0.136161    Uiso  ? N
   N23        1.0     0.562321     0.518427     0.881877    Uiso  ? N
   N24        1.0     0.447519     0.426397     0.626431    Uiso  ? N
   N25        1.0     0.225630     0.875980     0.348658    Uiso  ? N
   N26        1.0     0.116946     0.756641     0.133714    Uiso  ? N
   N27        1.0     0.883810     0.866666     0.890246    Uiso  ? N
   N28        1.0     0.758485     0.775784     0.637903    Uiso  ? N
   N29        1.0     0.555534     0.874197     0.376826    Uiso  ? N
   N30        1.0     0.440271     0.774052     0.095960    Uiso  ? N
   N31        1.0     0.226475     0.863576     0.819532    Uiso  ? N
   N32        1.0     0.121634     0.754459     0.596680    Uiso  ? N
   N33        1.0     0.887059     0.868944     0.361462    Uiso  ? N
   N34        1.0     0.774976     0.759068     0.127333    Uiso  ? N
   N35        1.0     0.557172     0.890850     0.881372    Uiso  ? N
   N36        1.0     0.450530     0.755295     0.598340    Uiso  ? N
