
#======================================================================
# CRYSTAL DATA
#----------------------------------------------------------------------
data_VESTA_phase_1

_chemical_name_common                  'Al   Hf   Mg   N                      '
_cell_length_a                         9.919870
_cell_length_b                         9.946272
_cell_length_c                         9.678425
_cell_angle_alpha                      90.342346
_cell_angle_beta                       90.249107
_cell_angle_gamma                      60.116291
_cell_volume                           827.944200
_space_group_name_H-M_alt              'P 1'
_space_group_IT_number                 1

loop_
_space_group_symop_operation_xyz
   'x, y, z'

loop_
   _atom_site_label
   _atom_site_occupancy
   _atom_site_fract_x
   _atom_site_fract_y
   _atom_site_fract_z
   _atom_site_adp_type
   _atom_site_U_iso_or_equiv
   _atom_site_type_symbol
   Al1        1.0     0.113733     0.092237     0.394388    Uiso  ? Al
   Al2        1.0     0.871832     0.211599     0.601070    Uiso  ? Al
   Al3        1.0     0.447780     0.090798     0.385411    Uiso  ? Al
   Al4        1.0     0.559505     0.195675     0.137175    Uiso  ? Al
   Al5        1.0     0.233092     0.208524     0.635902    Uiso  ? Al
   Al6        1.0     0.776363     0.090333     0.371510    Uiso  ? Al
   Al7        1.0     0.459228     0.094716     0.874881    Uiso  ? Al
   Al8        1.0     0.557927     0.208367     0.628040    Uiso  ? Al
   Al9        1.0     0.219872     0.546855     0.127681    Uiso  ? Al
   Al10       1.0     0.771496     0.428572     0.808597    Uiso  ? Al
   Al11       1.0     0.440182     0.422365     0.380376    Uiso  ? Al
   Al12       1.0     0.108630     0.438793     0.870767    Uiso  ? Al
   Al13       1.0     0.230135     0.540430     0.634824    Uiso  ? Al
   Al14       1.0     0.785022     0.429709     0.342562    Uiso  ? Al
   Al15       1.0     0.881424     0.545488     0.080777    Uiso  ? Al
   Al16       1.0     0.441248     0.414118     0.881048    Uiso  ? Al
   Al17       1.0     0.555191     0.536058     0.566706    Uiso  ? Al
   Al18       1.0     0.108127     0.764501     0.374978    Uiso  ? Al
   Al19       1.0     0.219828     0.870777     0.138467    Uiso  ? Al
   Al20       1.0     0.778354     0.768736     0.877770    Uiso  ? Al
   Al21       1.0     0.442953     0.772229     0.383511    Uiso  ? Al
   Al22       1.0     0.563279     0.870489     0.134085    Uiso  ? Al
   Al23       1.0     0.223245     0.861271     0.614516    Uiso  ? Al
   Al24       1.0     0.774187     0.772000     0.388469    Uiso  ? Al
   Al25       1.0     0.887080     0.872093     0.121369    Uiso  ? Al
   Al26       1.0     0.560456     0.881347     0.625769    Uiso  ? Al
   Hf1        1.0     0.227522     0.199767     0.106163    Uiso  ? Hf
   Hf2        1.0     0.100298     0.093505     0.847324    Uiso  ? Hf
   Hf3        1.0     0.110085     0.431113     0.371894    Uiso  ? Hf
   Hf4        1.0     0.557249     0.532082     0.111846    Uiso  ? Hf
   Hf5        1.0     0.450209     0.756224     0.854354    Uiso  ? Hf
   Mg1        1.0     0.768685     0.097359     0.886312    Uiso  ? Mg
   Mg2        1.0     0.894020     0.194666     0.137402    Uiso  ? Mg
   Mg3        1.0     0.883671     0.551084     0.610118    Uiso  ? Mg
   Mg4        1.0     0.887927     0.879090     0.636369    Uiso  ? Mg
   Mg5        1.0     0.107652     0.754339     0.882839    Uiso  ? Mg
   N1         1.0     0.229753     0.187655     0.326650    Uiso  ? N
   N2         1.0     0.118892     0.073803     0.067180    Uiso  ? N
   N3         1.0     0.872141     0.216942     0.813062    Uiso  ? N
   N4         1.0     0.763582     0.107490     0.566972    Uiso  ? N
   N5         1.0     0.544088     0.207397     0.332227    Uiso  ? N
   N6         1.0     0.464813     0.080050     0.073111    Uiso  ? N
   N7         1.0     0.229525     0.213763     0.844377    Uiso  ? N
   N8         1.0     0.120029     0.094132     0.595781    Uiso  ? N
   N9         1.0     0.896603     0.206405     0.362978    Uiso  ? N
   N10        1.0     0.769195     0.091147     0.105908    Uiso  ? N
   N11        1.0     0.542746     0.212558     0.821138    Uiso  ? N
   N12        1.0     0.442110     0.097339     0.580470    Uiso  ? N
   N13        1.0     0.230574     0.546123     0.324569    Uiso  ? N
   N14        1.0     0.103446     0.444439     0.086742    Uiso  ? N
   N15        1.0     0.883458     0.536927     0.859439    Uiso  ? N
   N16        1.0     0.763303     0.432673     0.606192    Uiso  ? N
   N17        1.0     0.550473     0.542888     0.351207    Uiso  ? N
   N18        1.0     0.434587     0.410010     0.083290    Uiso  ? N
   N19        1.0     0.231290     0.525779     0.830063    Uiso  ? N
   N20        1.0     0.130349     0.419217     0.587674    Uiso  ? N
   N21        1.0     0.875935     0.554304     0.357513    Uiso  ? N
   N22        1.0     0.790742     0.430081     0.134868    Uiso  ? N
   N23        1.0     0.564433     0.517190     0.876728    Uiso  ? N
   N24        1.0     0.443898     0.428332     0.576650    Uiso  ? N
   N25        1.0     0.224198     0.877566     0.339158    Uiso  ? N
   N26        1.0     0.117262     0.760743     0.098255    Uiso  ? N
   N27        1.0     0.883657     0.869361     0.850165    Uiso  ? N
   N28        1.0     0.761979     0.778661     0.578858    Uiso  ? N
   N29        1.0     0.552486     0.876474     0.330580    Uiso  ? N
   N30        1.0     0.437720     0.776566     0.080339    Uiso  ? N
   N31        1.0     0.222402     0.859863     0.809763    Uiso  ? N
   N32        1.0     0.126376     0.748413     0.569753    Uiso  ? N
   N33        1.0     0.890102     0.868794     0.326332    Uiso  ? N
   N34        1.0     0.771728     0.762016     0.079833    Uiso  ? N
   N35        1.0     0.560265     0.883783     0.823371    Uiso  ? N
   N36        1.0     0.448628     0.760870     0.588218    Uiso  ? N
