
#======================================================================
# CRYSTAL DATA
#----------------------------------------------------------------------
data_VESTA_phase_1

_chemical_name_common                  'Al   Hf   Mg   N                      '
_cell_length_a                         9.755826
_cell_length_b                         9.791087
_cell_length_c                         10.089111
_cell_angle_alpha                      89.941002
_cell_angle_beta                       89.804184
_cell_angle_gamma                      60.138313
_cell_volume                           835.755893
_space_group_name_H-M_alt              'P 1'
_space_group_IT_number                 1

loop_
_space_group_symop_operation_xyz
   'x, y, z'

loop_
   _atom_site_label
   _atom_site_occupancy
   _atom_site_fract_x
   _atom_site_fract_y
   _atom_site_fract_z
   _atom_site_adp_type
   _atom_site_U_iso_or_equiv
   _atom_site_type_symbol
   Al1        1.0     0.107958     0.092658     0.384757    Uiso  ? Al
   Al2        1.0     0.868739     0.213637     0.574972    Uiso  ? Al
   Al3        1.0     0.454331     0.089128     0.326648    Uiso  ? Al
   Al4        1.0     0.562374     0.196846     0.071953    Uiso  ? Al
   Al5        1.0     0.232253     0.204451     0.578325    Uiso  ? Al
   Al6        1.0     0.776726     0.090396     0.324967    Uiso  ? Al
   Al7        1.0     0.454337     0.097488     0.816900    Uiso  ? Al
   Al8        1.0     0.557804     0.206504     0.571595    Uiso  ? Al
   Al9        1.0     0.216709     0.546030     0.068336    Uiso  ? Al
   Al10       1.0     0.779935     0.423185     0.815407    Uiso  ? Al
   Al11       1.0     0.443762     0.421468     0.325195    Uiso  ? Al
   Al12       1.0     0.110863     0.436786     0.810240    Uiso  ? Al
   Al13       1.0     0.229451     0.543600     0.575459    Uiso  ? Al
   Al14       1.0     0.780411     0.428346     0.325362    Uiso  ? Al
   Al15       1.0     0.884534     0.548609     0.068147    Uiso  ? Al
   Al16       1.0     0.441896     0.418452     0.821400    Uiso  ? Al
   Al17       1.0     0.556542     0.529998     0.561212    Uiso  ? Al
   Al18       1.0     0.107048     0.767029     0.324886    Uiso  ? Al
   Al19       1.0     0.224760     0.868024     0.086209    Uiso  ? Al
   Al20       1.0     0.779912     0.769068     0.826360    Uiso  ? Al
   Al21       1.0     0.444403     0.767245     0.332351    Uiso  ? Al
   Al22       1.0     0.561803     0.875270     0.078318    Uiso  ? Al
   Al23       1.0     0.222775     0.859857     0.568965    Uiso  ? Al
   Al24       1.0     0.774657     0.766356     0.318454    Uiso  ? Al
   Al25       1.0     0.886254     0.874381     0.075506    Uiso  ? Al
   Al26       1.0     0.560556     0.876030     0.566239    Uiso  ? Al
   Hf1        1.0     0.228963     0.212872     0.072077    Uiso  ? Hf
   Hf2        1.0     0.108970     0.090375     0.831408    Uiso  ? Hf
   Hf3        1.0     0.103573     0.437369     0.345696    Uiso  ? Hf
   Hf4        1.0     0.556198     0.534458     0.090950    Uiso  ? Hf
   Hf5        1.0     0.463731     0.751673     0.811450    Uiso  ? Hf
   Mg1        1.0     0.771474     0.091163     0.820535    Uiso  ? Mg
   Mg2        1.0     0.885786     0.202222     0.075688    Uiso  ? Mg
   Mg3        1.0     0.873693     0.550450     0.585500    Uiso  ? Mg
   Mg4        1.0     0.884265     0.872617     0.574076    Uiso  ? Mg
   Mg5        1.0     0.106867     0.752416     0.820594    Uiso  ? Mg
   N1         1.0     0.232416     0.191362     0.378814    Uiso  ? N
   N2         1.0     0.124702     0.082688     0.080768    Uiso  ? N
   N3         1.0     0.878668     0.218529     0.869620    Uiso  ? N
   N4         1.0     0.766883     0.106373     0.616591    Uiso  ? N
   N5         1.0     0.551030     0.207507     0.381227    Uiso  ? N
   N6         1.0     0.460067     0.085795     0.138591    Uiso  ? N
   N7         1.0     0.229003     0.216555     0.861948    Uiso  ? N
   N8         1.0     0.111909     0.093330     0.604487    Uiso  ? N
   N9         1.0     0.886045     0.209732     0.378893    Uiso  ? N
   N10        1.0     0.769125     0.089491     0.136602    Uiso  ? N
   N11        1.0     0.540228     0.212461     0.886145    Uiso  ? N
   N12        1.0     0.446614     0.093017     0.627212    Uiso  ? N
   N13        1.0     0.231875     0.549420     0.382980    Uiso  ? N
   N14        1.0     0.097711     0.450845     0.135006    Uiso  ? N
   N15        1.0     0.888536     0.537867     0.874065    Uiso  ? N
   N16        1.0     0.762507     0.426331     0.628373    Uiso  ? N
   N17        1.0     0.554187     0.536011     0.365314    Uiso  ? N
   N18        1.0     0.432573     0.415219     0.135862    Uiso  ? N
   N19        1.0     0.229511     0.521920     0.882473    Uiso  ? N
   N20        1.0     0.124714     0.423656     0.615445    Uiso  ? N
   N21        1.0     0.866226     0.554248     0.378686    Uiso  ? N
   N22        1.0     0.789625     0.434480     0.137095    Uiso  ? N
   N23        1.0     0.562885     0.521360     0.882574    Uiso  ? N
   N24        1.0     0.445483     0.427245     0.628342    Uiso  ? N
   N25        1.0     0.221408     0.873819     0.372764    Uiso  ? N
   N26        1.0     0.116233     0.759161     0.132041    Uiso  ? N
   N27        1.0     0.884996     0.865839     0.891858    Uiso  ? N
   N28        1.0     0.753214     0.774555     0.645050    Uiso  ? N
   N29        1.0     0.557127     0.874909     0.378010    Uiso  ? N
   N30        1.0     0.442649     0.774840     0.137138    Uiso  ? N
   N31        1.0     0.240016     0.852171     0.875587    Uiso  ? N
   N32        1.0     0.122314     0.753582     0.618058    Uiso  ? N
   N33        1.0     0.888472     0.869313     0.364919    Uiso  ? N
   N34        1.0     0.775958     0.760413     0.128859    Uiso  ? N
   N35        1.0     0.555703     0.886850     0.889947    Uiso  ? N
   N36        1.0     0.446131     0.758258     0.602707    Uiso  ? N
