
#======================================================================
# CRYSTAL DATA
#----------------------------------------------------------------------
data_VESTA_phase_1

_chemical_name_common                  'Al   Hf   Mg   N                      '
_cell_length_a                         9.769562
_cell_length_b                         9.800126
_cell_length_c                         10.090368
_cell_angle_alpha                      89.893250
_cell_angle_beta                       89.796768
_cell_angle_gamma                      60.099976
_cell_volume                           837.487428
_space_group_name_H-M_alt              'P 1'
_space_group_IT_number                 1

loop_
_space_group_symop_operation_xyz
   'x, y, z'

loop_
   _atom_site_label
   _atom_site_occupancy
   _atom_site_fract_x
   _atom_site_fract_y
   _atom_site_fract_z
   _atom_site_adp_type
   _atom_site_U_iso_or_equiv
   _atom_site_type_symbol
   Al1        1.0     0.108635     0.090187     0.394166    Uiso  ? Al
   Al2        1.0     0.867807     0.214072     0.575543    Uiso  ? Al
   Al3        1.0     0.454326     0.089482     0.326628    Uiso  ? Al
   Al4        1.0     0.562687     0.197120     0.071650    Uiso  ? Al
   Al5        1.0     0.232357     0.204684     0.578413    Uiso  ? Al
   Al6        1.0     0.776671     0.090575     0.325070    Uiso  ? Al
   Al7        1.0     0.454250     0.098044     0.817240    Uiso  ? Al
   Al8        1.0     0.557485     0.206817     0.571593    Uiso  ? Al
   Al9        1.0     0.216527     0.547008     0.068443    Uiso  ? Al
   Al10       1.0     0.779477     0.422968     0.815660    Uiso  ? Al
   Al11       1.0     0.443978     0.420880     0.324467    Uiso  ? Al
   Al12       1.0     0.110918     0.437193     0.810480    Uiso  ? Al
   Al13       1.0     0.229722     0.542239     0.574279    Uiso  ? Al
   Al14       1.0     0.781125     0.427308     0.324990    Uiso  ? Al
   Al15       1.0     0.884548     0.548447     0.068153    Uiso  ? Al
   Al16       1.0     0.441709     0.419262     0.821584    Uiso  ? Al
   Al17       1.0     0.556783     0.528988     0.559751    Uiso  ? Al
   Al18       1.0     0.105070     0.764973     0.330060    Uiso  ? Al
   Al19       1.0     0.220229     0.876180     0.137106    Uiso  ? Al
   Al20       1.0     0.780026     0.769750     0.827209    Uiso  ? Al
   Al21       1.0     0.447692     0.765096     0.337108    Uiso  ? Al
   Al22       1.0     0.561927     0.875137     0.078318    Uiso  ? Al
   Al23       1.0     0.222663     0.861384     0.604764    Uiso  ? Al
   Al24       1.0     0.774711     0.766184     0.317733    Uiso  ? Al
   Al25       1.0     0.887219     0.873939     0.075616    Uiso  ? Al
   Al26       1.0     0.560771     0.876796     0.564786    Uiso  ? Al
   Hf1        1.0     0.230011     0.212353     0.072686    Uiso  ? Hf
   Hf2        1.0     0.108899     0.092097     0.839222    Uiso  ? Hf
   Hf3        1.0     0.103429     0.436388     0.345310    Uiso  ? Hf
   Hf4        1.0     0.555757     0.535290     0.090751    Uiso  ? Hf
   Hf5        1.0     0.472067     0.749370     0.806660    Uiso  ? Hf
   Mg1        1.0     0.771076     0.091505     0.820469    Uiso  ? Mg
   Mg2        1.0     0.885787     0.201885     0.075411    Uiso  ? Mg
   Mg3        1.0     0.873558     0.550374     0.585555    Uiso  ? Mg
   Mg4        1.0     0.882019     0.873371     0.573562    Uiso  ? Mg
   Mg5        1.0     0.105245     0.751374     0.819482    Uiso  ? Mg
   N1         1.0     0.232322     0.190658     0.378210    Uiso  ? N
   N2         1.0     0.128498     0.076644     0.069530    Uiso  ? N
   N3         1.0     0.876352     0.219195     0.869132    Uiso  ? N
   N4         1.0     0.766290     0.106560     0.616629    Uiso  ? N
   N5         1.0     0.551012     0.207441     0.381211    Uiso  ? N
   N6         1.0     0.460251     0.086052     0.138648    Uiso  ? N
   N7         1.0     0.229732     0.218213     0.863158    Uiso  ? N
   N8         1.0     0.111105     0.094317     0.600644    Uiso  ? N
   N9         1.0     0.886306     0.209169     0.379132    Uiso  ? N
   N10        1.0     0.769476     0.089337     0.136614    Uiso  ? N
   N11        1.0     0.540027     0.212982     0.886009    Uiso  ? N
   N12        1.0     0.446375     0.093029     0.627260    Uiso  ? N
   N13        1.0     0.232574     0.547260     0.382477    Uiso  ? N
   N14        1.0     0.098078     0.450016     0.134600    Uiso  ? N
   N15        1.0     0.888175     0.538126     0.874026    Uiso  ? N
   N16        1.0     0.761908     0.426798     0.628544    Uiso  ? N
   N17        1.0     0.554978     0.534402     0.364673    Uiso  ? N
   N18        1.0     0.432548     0.415465     0.135448    Uiso  ? N
   N19        1.0     0.229225     0.522676     0.882436    Uiso  ? N
   N20        1.0     0.124608     0.423259     0.615623    Uiso  ? N
   N21        1.0     0.866080     0.554084     0.378554    Uiso  ? N
   N22        1.0     0.790163     0.433838     0.136717    Uiso  ? N
   N23        1.0     0.561823     0.521983     0.882684    Uiso  ? N
   N24        1.0     0.445184     0.427546     0.628228    Uiso  ? N
   N25        1.0     0.219500     0.877916     0.347099    Uiso  ? N
   N26        1.0     0.114733     0.758523     0.132843    Uiso  ? N
   N27        1.0     0.885128     0.866226     0.891842    Uiso  ? N
   N28        1.0     0.751723     0.774421     0.646060    Uiso  ? N
   N29        1.0     0.558035     0.875510     0.377405    Uiso  ? N
   N30        1.0     0.445106     0.774074     0.137083    Uiso  ? N
   N31        1.0     0.240625     0.853669     0.826151    Uiso  ? N
   N32        1.0     0.118512     0.752153     0.611709    Uiso  ? N
   N33        1.0     0.886603     0.869808     0.365294    Uiso  ? N
   N34        1.0     0.776298     0.760259     0.128463    Uiso  ? N
   N35        1.0     0.555829     0.888552     0.890674    Uiso  ? N
   N36        1.0     0.448715     0.756729     0.595459    Uiso  ? N
