
#======================================================================
# CRYSTAL DATA
#----------------------------------------------------------------------
data_VESTA_phase_1

_chemical_name_common                  'Al   Hf   Mg   N                      '
_cell_length_a                         9.785641
_cell_length_b                         9.825008
_cell_length_c                         10.055984
_cell_angle_alpha                      89.922005
_cell_angle_beta                       89.834366
_cell_angle_gamma                      60.081051
_cell_volume                           837.972421
_space_group_name_H-M_alt              'P 1'
_space_group_IT_number                 1

loop_
_space_group_symop_operation_xyz
   'x, y, z'

loop_
   _atom_site_label
   _atom_site_occupancy
   _atom_site_fract_x
   _atom_site_fract_y
   _atom_site_fract_z
   _atom_site_adp_type
   _atom_site_U_iso_or_equiv
   _atom_site_type_symbol
   Al1        1.0     0.109792     0.087829     0.396707    Uiso  ? Al
   Al2        1.0     0.869962     0.212447     0.577515    Uiso  ? Al
   Al3        1.0     0.454808     0.087915     0.328852    Uiso  ? Al
   Al4        1.0     0.562123     0.197566     0.074337    Uiso  ? Al
   Al5        1.0     0.231673     0.204405     0.579760    Uiso  ? Al
   Al6        1.0     0.776379     0.090335     0.327444    Uiso  ? Al
   Al7        1.0     0.452432     0.101114     0.820375    Uiso  ? Al
   Al8        1.0     0.557586     0.206635     0.573988    Uiso  ? Al
   Al9        1.0     0.216146     0.547378     0.071534    Uiso  ? Al
   Al10       1.0     0.779684     0.422814     0.818372    Uiso  ? Al
   Al11       1.0     0.443513     0.420337     0.326840    Uiso  ? Al
   Al12       1.0     0.111061     0.437226     0.813978    Uiso  ? Al
   Al13       1.0     0.229787     0.542229     0.576672    Uiso  ? Al
   Al14       1.0     0.781073     0.427539     0.327860    Uiso  ? Al
   Al15       1.0     0.883928     0.549137     0.070986    Uiso  ? Al
   Al16       1.0     0.441708     0.418901     0.824532    Uiso  ? Al
   Al17       1.0     0.559452     0.523039     0.566649    Uiso  ? Al
   Al18       1.0     0.105473     0.764662     0.332147    Uiso  ? Al
   Al19       1.0     0.225128     0.873529     0.142277    Uiso  ? Al
   Al20       1.0     0.781039     0.770918     0.828759    Uiso  ? Al
   Al21       1.0     0.444307     0.763011     0.377150    Uiso  ? Al
   Al22       1.0     0.562283     0.874978     0.076800    Uiso  ? Al
   Al23       1.0     0.219763     0.863604     0.622206    Uiso  ? Al
   Al24       1.0     0.773398     0.765984     0.319974    Uiso  ? Al
   Al25       1.0     0.887747     0.873993     0.079029    Uiso  ? Al
   Al26       1.0     0.563155     0.879790     0.570849    Uiso  ? Al
   Hf1        1.0     0.229317     0.211628     0.080775    Uiso  ? Hf
   Hf2        1.0     0.107832     0.094420     0.848723    Uiso  ? Hf
   Hf3        1.0     0.102614     0.437250     0.348959    Uiso  ? Hf
   Hf4        1.0     0.555316     0.535589     0.092441    Uiso  ? Hf
   Hf5        1.0     0.471029     0.750569     0.816733    Uiso  ? Hf
   Mg1        1.0     0.770890     0.092193     0.823442    Uiso  ? Mg
   Mg2        1.0     0.884913     0.202435     0.080780    Uiso  ? Mg
   Mg3        1.0     0.874042     0.550026     0.588703    Uiso  ? Mg
   Mg4        1.0     0.882963     0.873931     0.574697    Uiso  ? Mg
   Mg5        1.0     0.104071     0.751199     0.822626    Uiso  ? Mg
   N1         1.0     0.231642     0.190545     0.377295    Uiso  ? N
   N2         1.0     0.128314     0.074897     0.071240    Uiso  ? N
   N3         1.0     0.875595     0.220037     0.872543    Uiso  ? N
   N4         1.0     0.766527     0.106872     0.618424    Uiso  ? N
   N5         1.0     0.550615     0.206788     0.383346    Uiso  ? N
   N6         1.0     0.461390     0.084551     0.140473    Uiso  ? N
   N7         1.0     0.229052     0.220000     0.869767    Uiso  ? N
   N8         1.0     0.111375     0.094332     0.600914    Uiso  ? N
   N9         1.0     0.887118     0.208133     0.380221    Uiso  ? N
   N10        1.0     0.768779     0.089618     0.138791    Uiso  ? N
   N11        1.0     0.540128     0.213687     0.888284    Uiso  ? N
   N12        1.0     0.445181     0.094904     0.629778    Uiso  ? N
   N13        1.0     0.232619     0.547184     0.384664    Uiso  ? N
   N14        1.0     0.097447     0.450735     0.137424    Uiso  ? N
   N15        1.0     0.887490     0.539195     0.875815    Uiso  ? N
   N16        1.0     0.764581     0.424670     0.630811    Uiso  ? N
   N17        1.0     0.554723     0.533462     0.369756    Uiso  ? N
   N18        1.0     0.431565     0.415519     0.137787    Uiso  ? N
   N19        1.0     0.229074     0.523669     0.884333    Uiso  ? N
   N20        1.0     0.125240     0.422409     0.617480    Uiso  ? N
   N21        1.0     0.865451     0.554442     0.381283    Uiso  ? N
   N22        1.0     0.790197     0.434673     0.139327    Uiso  ? N
   N23        1.0     0.562614     0.519509     0.882146    Uiso  ? N
   N24        1.0     0.444859     0.426181     0.631012    Uiso  ? N
   N25        1.0     0.222805     0.877300     0.341862    Uiso  ? N
   N26        1.0     0.114884     0.758712     0.134756    Uiso  ? N
   N27        1.0     0.885276     0.867305     0.894388    Uiso  ? N
   N28        1.0     0.755233     0.773951     0.647077    Uiso  ? N
   N29        1.0     0.557024     0.875034     0.381868    Uiso  ? N
   N30        1.0     0.443063     0.773944     0.107885    Uiso  ? N
   N31        1.0     0.237351     0.857601     0.816934    Uiso  ? N
   N32        1.0     0.118467     0.752114     0.611897    Uiso  ? N
   N33        1.0     0.886321     0.869595     0.366414    Uiso  ? N
   N34        1.0     0.775557     0.760914     0.130205    Uiso  ? N
   N35        1.0     0.557827     0.891689     0.888115    Uiso  ? N
   N36        1.0     0.448497     0.756308     0.593788    Uiso  ? N
