
#======================================================================
# CRYSTAL DATA
#----------------------------------------------------------------------
data_VESTA_phase_1

_chemical_name_common                  'Al   Hf   Mg   N '
_cell_length_a                         9.717594
_cell_length_b                         9.726243
_cell_length_c                         10.203147
_cell_angle_alpha                      90.202293
_cell_angle_beta                       90.048775
_cell_angle_gamma                      60.169945
_cell_volume                           836.578844
_space_group_name_H-M_alt              'P 1'
_space_group_IT_number                 1

loop_
_space_group_symop_operation_xyz
   'x, y, z'

loop_
   _atom_site_label
   _atom_site_occupancy
   _atom_site_fract_x
   _atom_site_fract_y
   _atom_site_fract_z
   _atom_site_adp_type
   _atom_site_U_iso_or_equiv
   _atom_site_type_symbol
   Al1        1.0     0.107846     0.092238     0.423197    Uiso  ? Al
   Al2        1.0     0.873362     0.214152     0.651914    Uiso  ? Al
   Al3        1.0     0.451454     0.090179     0.416810    Uiso  ? Al
   Al4        1.0     0.562945     0.196468     0.164458    Uiso  ? Al
   Al5        1.0     0.229456     0.206420     0.663825    Uiso  ? Al
   Al6        1.0     0.778243     0.094966     0.412138    Uiso  ? Al
   Al7        1.0     0.456459     0.096298     0.903904    Uiso  ? Al
   Al8        1.0     0.557489     0.206331     0.659667    Uiso  ? Al
   Al9        1.0     0.220144     0.546590     0.159571    Uiso  ? Al
   Al10       1.0     0.781428     0.428871     0.906641    Uiso  ? Al
   Al11       1.0     0.446559     0.425082     0.418709    Uiso  ? Al
   Al12       1.0     0.105924     0.441206     0.906400    Uiso  ? Al
   Al13       1.0     0.227390     0.540445     0.665049    Uiso  ? Al
   Al14       1.0     0.776600     0.426871     0.419185    Uiso  ? Al
   Al15       1.0     0.880966     0.549504     0.154224    Uiso  ? Al
   Al16       1.0     0.440424     0.416826     0.903868    Uiso  ? Al
   Al17       1.0     0.558130     0.531873     0.655894    Uiso  ? Al
   Al18       1.0     0.111005     0.764866     0.410480    Uiso  ? Al
   Al19       1.0     0.217268     0.871081     0.171660    Uiso  ? Al
   Al20       1.0     0.785582     0.764394     0.913395    Uiso  ? Al
   Al21       1.0     0.445592     0.765127     0.419298    Uiso  ? Al
   Al22       1.0     0.563425     0.873241     0.164749    Uiso  ? Al
   Al23       1.0     0.223018     0.864225     0.648731    Uiso  ? Al
   Al24       1.0     0.771186     0.769339     0.411625    Uiso  ? Al
   Al25       1.0     0.887760     0.875503     0.162023    Uiso  ? Al
   Al26       1.0     0.562582     0.874961     0.654656    Uiso  ? Al
   Hf1        1.0     0.226805     0.202344     0.149409    Uiso  ? Hf
   Hf2        1.0     0.101016     0.094555     0.890621    Uiso  ? Hf
   Hf3        1.0     0.106881     0.434108     0.410339    Uiso  ? Hf
   Hf4        1.0     0.555631     0.533469     0.159297    Uiso  ? Hf
   Hf5        1.0     0.448723     0.761104     0.897930    Uiso  ? Hf
   Mg1        1.0     0.770048     0.093161     0.912096    Uiso  ? Mg
   Mg2        1.0     0.887775     0.200409     0.167797    Uiso  ? Mg
   Mg3        1.0     0.880411     0.548481     0.665589    Uiso  ? Mg
   Mg4        1.0     0.887044     0.873351     0.660255    Uiso  ? Mg
   Mg5        1.0     0.105320     0.755135     0.913467    Uiso  ? Mg
   N1         1.0     0.228817     0.191702     0.356368    Uiso  ? N
   N2         1.0     0.118765     0.075955     0.096186    Uiso  ? N
   N3         1.0     0.871637     0.225083     0.839471    Uiso  ? N
   N4         1.0     0.766554     0.109164     0.595978    Uiso  ? N
   N5         1.0     0.549536     0.208228     0.354200    Uiso  ? N
   N6         1.0     0.462151     0.083289     0.095494    Uiso  ? N
   N7         1.0     0.228898     0.213368     0.861238    Uiso  ? N
   N8         1.0     0.112855     0.095583     0.615137    Uiso  ? N
   N9         1.0     0.893452     0.207293     0.370133    Uiso  ? N
   N10        1.0     0.770739     0.089148     0.116987    Uiso  ? N
   N11        1.0     0.542951     0.212172     0.843254    Uiso  ? N
   N12        1.0     0.442990     0.095315     0.602846    Uiso  ? N
   N13        1.0     0.233515     0.543324     0.348398    Uiso  ? N
   N14        1.0     0.102925     0.445099     0.106519    Uiso  ? N
   N15        1.0     0.886594     0.542472     0.868816    Uiso  ? N
   N16        1.0     0.768750     0.427812     0.601050    Uiso  ? N
   N17        1.0     0.553573     0.540279     0.363509    Uiso  ? N
   N18        1.0     0.436412     0.414866     0.097817    Uiso  ? N
   N19        1.0     0.229540     0.526609     0.850289    Uiso  ? N
   N20        1.0     0.125756     0.420634     0.609373    Uiso  ? N
   N21        1.0     0.870320     0.548138     0.346018    Uiso  ? N
   N22        1.0     0.784353     0.432394     0.095816    Uiso  ? N
   N23        1.0     0.560673     0.522269     0.853551    Uiso  ? N
   N24        1.0     0.443984     0.427648     0.603630    Uiso  ? N
   N25        1.0     0.224761     0.875902     0.360816    Uiso  ? N
   N26        1.0     0.114369     0.761705     0.120076    Uiso  ? N
   N27        1.0     0.884320     0.867247     0.858587    Uiso  ? N
   N28        1.0     0.763276     0.768568     0.589912    Uiso  ? N
   N29        1.0     0.550575     0.876422     0.351390    Uiso  ? N
   N30        1.0     0.437891     0.774683     0.107235    Uiso  ? N
   N31        1.0     0.223378     0.862744     0.833730    Uiso  ? N
   N32        1.0     0.127916     0.748408     0.593628    Uiso  ? N
   N33        1.0     0.890325     0.871016     0.354336    Uiso  ? N
   N34        1.0     0.774658     0.764202     0.106348    Uiso  ? N
   N35        1.0     0.563861     0.881689     0.845398    Uiso  ? N
   N36        1.0     0.447726     0.760213     0.609841    Uiso  ? N
