
#======================================================================
# CRYSTAL DATA
#----------------------------------------------------------------------
data_VESTA_phase_1

_chemical_name_common                  'Al   Hf   Mg   N                      '
_cell_length_a                         9.717868
_cell_length_b                         9.726363
_cell_length_c                         10.202784
_cell_angle_alpha                      90.202171
_cell_angle_beta                       90.048454
_cell_angle_gamma                      60.170670
_cell_volume                           836.589019
_space_group_name_H-M_alt              'P 1'
_space_group_IT_number                 1

loop_
_space_group_symop_operation_xyz
   'x, y, z'

loop_
   _atom_site_label
   _atom_site_occupancy
   _atom_site_fract_x
   _atom_site_fract_y
   _atom_site_fract_z
   _atom_site_adp_type
   _atom_site_U_iso_or_equiv
   _atom_site_type_symbol
   Al1        1.0     0.107962     0.092036     0.400871    Uiso  ? Al
   Al2        1.0     0.873459     0.213991     0.629574    Uiso  ? Al
   Al3        1.0     0.451547     0.089984     0.394480    Uiso  ? Al
   Al4        1.0     0.563016     0.196278     0.142139    Uiso  ? Al
   Al5        1.0     0.229560     0.206227     0.641511    Uiso  ? Al
   Al6        1.0     0.778340     0.094789     0.389811    Uiso  ? Al
   Al7        1.0     0.456556     0.096112     0.881573    Uiso  ? Al
   Al8        1.0     0.557578     0.206166     0.637325    Uiso  ? Al
   Al9        1.0     0.220241     0.546391     0.137242    Uiso  ? Al
   Al10       1.0     0.781541     0.428703     0.884302    Uiso  ? Al
   Al11       1.0     0.446661     0.424900     0.396371    Uiso  ? Al
   Al12       1.0     0.106022     0.441019     0.884075    Uiso  ? Al
   Al13       1.0     0.227498     0.540263     0.642713    Uiso  ? Al
   Al14       1.0     0.776714     0.426693     0.396853    Uiso  ? Al
   Al15       1.0     0.881073     0.549317     0.131896    Uiso  ? Al
   Al16       1.0     0.440513     0.416651     0.881532    Uiso  ? Al
   Al17       1.0     0.558242     0.531703     0.633564    Uiso  ? Al
   Al18       1.0     0.111105     0.764680     0.388154    Uiso  ? Al
   Al19       1.0     0.217385     0.870861     0.149334    Uiso  ? Al
   Al20       1.0     0.785687     0.764236     0.891072    Uiso  ? Al
   Al21       1.0     0.445713     0.764926     0.396952    Uiso  ? Al
   Al22       1.0     0.563539     0.873038     0.142427    Uiso  ? Al
   Al23       1.0     0.223151     0.864026     0.626401    Uiso  ? Al
   Al24       1.0     0.771309     0.769164     0.389302    Uiso  ? Al
   Al25       1.0     0.887857     0.875328     0.139682    Uiso  ? Al
   Al26       1.0     0.562695     0.874783     0.632320    Uiso  ? Al
   Hf1        1.0     0.226895     0.202136     0.127059    Uiso  ? Hf
   Hf2        1.0     0.101103     0.094348     0.868282    Uiso  ? Hf
   Hf3        1.0     0.106999     0.433897     0.388000    Uiso  ? Hf
   Hf4        1.0     0.555756     0.533243     0.136946    Uiso  ? Hf
   Hf5        1.0     0.448848     0.760925     0.875611    Uiso  ? Hf
   Mg1        1.0     0.770110     0.093041     0.889777    Uiso  ? Mg
   Mg2        1.0     0.887879     0.200211     0.145477    Uiso  ? Mg
   Mg3        1.0     0.880529     0.548325     0.643250    Uiso  ? Mg
   Mg4        1.0     0.887153     0.873211     0.637963    Uiso  ? Mg
   Mg5        1.0     0.105439     0.754947     0.891138    Uiso  ? Mg
   N1         1.0     0.228926     0.191494     0.334027    Uiso  ? N
   N2         1.0     0.118863     0.075729     0.073855    Uiso  ? N
   N3         1.0     0.871731     0.224920     0.817135    Uiso  ? N
   N4         1.0     0.766644     0.109008     0.573655    Uiso  ? N
   N5         1.0     0.549623     0.208043     0.331881    Uiso  ? N
   N6         1.0     0.462243     0.083085     0.073168    Uiso  ? N
   N7         1.0     0.228985     0.213173     0.838941    Uiso  ? N
   N8         1.0     0.112964     0.095389     0.592821    Uiso  ? N
   N9         1.0     0.893565     0.207107     0.347822    Uiso  ? N
   N10        1.0     0.770810     0.088984     0.094676    Uiso  ? N
   N11        1.0     0.543024     0.212008     0.820916    Uiso  ? N
   N12        1.0     0.443083     0.095136     0.580520    Uiso  ? N
   N13        1.0     0.233614     0.543136     0.326077    Uiso  ? N
   N14        1.0     0.103028     0.444898     0.084202    Uiso  ? N
   N15        1.0     0.886699     0.542316     0.846487    Uiso  ? N
   N16        1.0     0.768859     0.427655     0.578724    Uiso  ? N
   N17        1.0     0.553694     0.540074     0.341165    Uiso  ? N
   N18        1.0     0.436498     0.414670     0.075484    Uiso  ? N
   N19        1.0     0.229633     0.526424     0.827956    Uiso  ? N
   N20        1.0     0.125878     0.420436     0.587045    Uiso  ? N
   N21        1.0     0.870436     0.547959     0.323700    Uiso  ? N
   N22        1.0     0.784478     0.432193     0.073486    Uiso  ? N
   N23        1.0     0.560778     0.522091     0.831234    Uiso  ? N
   N24        1.0     0.444091     0.427485     0.581297    Uiso  ? N
   N25        1.0     0.224878     0.875699     0.338492    Uiso  ? N
   N26        1.0     0.114470     0.761503     0.097753    Uiso  ? N
   N27        1.0     0.884428     0.867116     0.836308    Uiso  ? N
   N28        1.0     0.763400     0.768423     0.567595    Uiso  ? N
   N29        1.0     0.550694     0.876223     0.329069    Uiso  ? N
   N30        1.0     0.438015     0.774463     0.084923    Uiso  ? N
   N31        1.0     0.223517     0.862537     0.811406    Uiso  ? N
   N32        1.0     0.128018     0.748233     0.571310    Uiso  ? N
   N33        1.0     0.890435     0.870846     0.332004    Uiso  ? N
   N34        1.0     0.774765     0.764018     0.084027    Uiso  ? N
   N35        1.0     0.563982     0.881508     0.823066    Uiso  ? N
   N36        1.0     0.447849     0.760028     0.587497    Uiso  ? N
