
#======================================================================
# CRYSTAL DATA
#----------------------------------------------------------------------
data_VESTA_phase_1

_chemical_name_common                  'Al   Hf   Mg   N                      '
_cell_length_a                         9.706087
_cell_length_b                         9.726001
_cell_length_c                         10.189107
_cell_angle_alpha                      90.256454
_cell_angle_beta                       89.996040
_cell_angle_gamma                      60.147232
_cell_volume                           834.222264
_space_group_name_H-M_alt              'P 1'
_space_group_IT_number                 1

loop_
_space_group_symop_operation_xyz
   'x, y, z'

loop_
   _atom_site_label
   _atom_site_occupancy
   _atom_site_fract_x
   _atom_site_fract_y
   _atom_site_fract_z
   _atom_site_adp_type
   _atom_site_U_iso_or_equiv
   _atom_site_type_symbol
   Al1        1.0     0.109671     0.089413     0.310089    Uiso  ? Al
   Al2        1.0     0.876514     0.210428     0.548736    Uiso  ? Al
   Al3        1.0     0.454522     0.088591     0.310835    Uiso  ? Al
   Al4        1.0     0.560966     0.196164     0.055686    Uiso  ? Al
   Al5        1.0     0.229833     0.201955     0.554381    Uiso  ? Al
   Al6        1.0     0.776739     0.090368     0.307985    Uiso  ? Al
   Al7        1.0     0.451992     0.096686     0.800849    Uiso  ? Al
   Al8        1.0     0.559776     0.205661     0.556177    Uiso  ? Al
   Al9        1.0     0.218140     0.543276     0.052199    Uiso  ? Al
   Al10       1.0     0.781206     0.422873     0.798387    Uiso  ? Al
   Al11       1.0     0.445004     0.422316     0.311169    Uiso  ? Al
   Al12       1.0     0.111443     0.434060     0.795355    Uiso  ? Al
   Al13       1.0     0.229743     0.546059     0.562200    Uiso  ? Al
   Al14       1.0     0.779687     0.429065     0.309234    Uiso  ? Al
   Al15       1.0     0.884619     0.548160     0.051710    Uiso  ? Al
   Al16       1.0     0.442231     0.416736     0.804020    Uiso  ? Al
   Al17       1.0     0.557704     0.531797     0.548698    Uiso  ? Al
   Al18       1.0     0.108947     0.766409     0.305399    Uiso  ? Al
   Al19       1.0     0.221589     0.868894     0.066750    Uiso  ? Al
   Al20       1.0     0.780116     0.767790     0.808325    Uiso  ? Al
   Al21       1.0     0.444682     0.766328     0.312605    Uiso  ? Al
   Al22       1.0     0.562714     0.873211     0.061144    Uiso  ? Al
   Al23       1.0     0.220260     0.867635     0.543749    Uiso  ? Al
   Al24       1.0     0.774909     0.766532     0.303593    Uiso  ? Al
   Al25       1.0     0.885029     0.873575     0.059189    Uiso  ? Al
   Al26       1.0     0.560803     0.875094     0.552660    Uiso  ? Al
   Hf1        1.0     0.225033     0.208339     0.061111    Uiso  ? Hf
   Hf2        1.0     0.104702     0.091658     0.799185    Uiso  ? Hf
   Hf3        1.0     0.105128     0.437879     0.328815    Uiso  ? Hf
   Hf4        1.0     0.557189     0.532235     0.072076    Uiso  ? Hf
   Hf5        1.0     0.452169     0.756181     0.800530    Uiso  ? Hf
   Mg1        1.0     0.772227     0.092365     0.804212    Uiso  ? Mg
   Mg2        1.0     0.886568     0.200237     0.063894    Uiso  ? Mg
   Mg3        1.0     0.876330     0.549586     0.568461    Uiso  ? Mg
   Mg4        1.0     0.888880     0.872592     0.558218    Uiso  ? Mg
   Mg5        1.0     0.105968     0.754534     0.809412    Uiso  ? Mg
   N1         1.0     0.231596     0.191108     0.359997    Uiso  ? N
   N2         1.0     0.121318     0.081394     0.121586    Uiso  ? N
   N3         1.0     0.882938     0.219382     0.863144    Uiso  ? N
   N4         1.0     0.770613     0.107997     0.601374    Uiso  ? N
   N5         1.0     0.551934     0.206973     0.366735    Uiso  ? N
   N6         1.0     0.458300     0.085279     0.122766    Uiso  ? N
   N7         1.0     0.225857     0.210959     0.853981    Uiso  ? N
   N8         1.0     0.110866     0.095081     0.593506    Uiso  ? N
   N9         1.0     0.888298     0.208309     0.357948    Uiso  ? N
   N10        1.0     0.767465     0.088535     0.121303    Uiso  ? N
   N11        1.0     0.539967     0.211188     0.870904    Uiso  ? N
   N12        1.0     0.444564     0.094224     0.612244    Uiso  ? N
   N13        1.0     0.232381     0.551248     0.370331    Uiso  ? N
   N14        1.0     0.099676     0.447726     0.119214    Uiso  ? N
   N15        1.0     0.889101     0.537709     0.859320    Uiso  ? N
   N16        1.0     0.766715     0.423314     0.612879    Uiso  ? N
   N17        1.0     0.554658     0.537493     0.353169    Uiso  ? N
   N18        1.0     0.432957     0.414592     0.122477    Uiso  ? N
   N19        1.0     0.230348     0.520980     0.867610    Uiso  ? N
   N20        1.0     0.126946     0.422108     0.602097    Uiso  ? N
   N21        1.0     0.867604     0.553901     0.363304    Uiso  ? N
   N22        1.0     0.789344     0.435130     0.122389    Uiso  ? N
   N23        1.0     0.562123     0.522215     0.865336    Uiso  ? N
   N24        1.0     0.446828     0.427211     0.613944    Uiso  ? N
   N25        1.0     0.223323     0.872205     0.357376    Uiso  ? N
   N26        1.0     0.115551     0.757385     0.115356    Uiso  ? N
   N27        1.0     0.882673     0.866800     0.877465    Uiso  ? N
   N28        1.0     0.756686     0.775191     0.628386    Uiso  ? N
   N29        1.0     0.556942     0.873986     0.363937    Uiso  ? N
   N30        1.0     0.442390     0.773317     0.119201    Uiso  ? N
   N31        1.0     0.229554     0.866745     0.880370    Uiso  ? N
   N32        1.0     0.127879     0.757545     0.609619    Uiso  ? N
   N33        1.0     0.890897     0.868802     0.349754    Uiso  ? N
   N34        1.0     0.775977     0.759865     0.114655    Uiso  ? N
   N35        1.0     0.555335     0.883608     0.873358    Uiso  ? N
   N36        1.0     0.443768     0.762107     0.594452    Uiso  ? N
