
#======================================================================
# CRYSTAL DATA
#----------------------------------------------------------------------
data_VESTA_phase_1

_chemical_name_common                  'Al   Hf   Mg   N                      '
_cell_length_a                         9.981833
_cell_length_b                         10.005431
_cell_length_c                         9.489042
_cell_angle_alpha                      90.315224
_cell_angle_beta                       90.237404
_cell_angle_gamma                      60.122150
_cell_volume                           821.722548
_space_group_name_H-M_alt              'P 1'
_space_group_IT_number                 1

loop_
_space_group_symop_operation_xyz
   'x, y, z'

loop_
   _atom_site_label
   _atom_site_occupancy
   _atom_site_fract_x
   _atom_site_fract_y
   _atom_site_fract_z
   _atom_site_adp_type
   _atom_site_U_iso_or_equiv
   _atom_site_type_symbol
   Al1        1.0     0.114256     0.092923     0.392347    Uiso  ? Al
   Al2        1.0     0.871124     0.211227     0.596046    Uiso  ? Al
   Al3        1.0     0.447285     0.091252     0.384130    Uiso  ? Al
   Al4        1.0     0.558500     0.196751     0.136150    Uiso  ? Al
   Al5        1.0     0.233438     0.207992     0.633575    Uiso  ? Al
   Al6        1.0     0.776748     0.088574     0.364641    Uiso  ? Al
   Al7        1.0     0.459383     0.094448     0.872717    Uiso  ? Al
   Al8        1.0     0.558464     0.207721     0.625546    Uiso  ? Al
   Al9        1.0     0.220725     0.546222     0.123982    Uiso  ? Al
   Al10       1.0     0.772336     0.428088     0.809322    Uiso  ? Al
   Al11       1.0     0.439514     0.422641     0.379022    Uiso  ? Al
   Al12       1.0     0.108006     0.438199     0.864033    Uiso  ? Al
   Al13       1.0     0.229896     0.540962     0.634072    Uiso  ? Al
   Al14       1.0     0.784608     0.429827     0.348831    Uiso  ? Al
   Al15       1.0     0.881445     0.545855     0.083315    Uiso  ? Al
   Al16       1.0     0.442069     0.414470     0.878530    Uiso  ? Al
   Al17       1.0     0.554040     0.535497     0.569955    Uiso  ? Al
   Al18       1.0     0.107355     0.763676     0.370595    Uiso  ? Al
   Al19       1.0     0.220707     0.870723     0.138311    Uiso  ? Al
   Al20       1.0     0.777677     0.767745     0.873748    Uiso  ? Al
   Al21       1.0     0.443900     0.771125     0.382229    Uiso  ? Al
   Al22       1.0     0.563391     0.870298     0.133040    Uiso  ? Al
   Al23       1.0     0.222988     0.861182     0.610186    Uiso  ? Al
   Al24       1.0     0.775199     0.771559     0.388396    Uiso  ? Al
   Al25       1.0     0.886436     0.871523     0.113841    Uiso  ? Al
   Al26       1.0     0.560370     0.881256     0.623752    Uiso  ? Al
   Hf1        1.0     0.227846     0.200192     0.103452    Uiso  ? Hf
   Hf2        1.0     0.100071     0.093656     0.844838    Uiso  ? Hf
   Hf3        1.0     0.109124     0.432209     0.368868    Uiso  ? Hf
   Hf4        1.0     0.558052     0.532384     0.112257    Uiso  ? Hf
   Hf5        1.0     0.449290     0.757047     0.851098    Uiso  ? Hf
   Mg1        1.0     0.768076     0.098769     0.885235    Uiso  ? Mg
   Mg2        1.0     0.893386     0.197123     0.134555    Uiso  ? Mg
   Mg3        1.0     0.883355     0.550265     0.609714    Uiso  ? Mg
   Mg4        1.0     0.888676     0.879513     0.635580    Uiso  ? Mg
   Mg5        1.0     0.108443     0.754813     0.881169    Uiso  ? Mg
   N1         1.0     0.229946     0.188642     0.329282    Uiso  ? N
   N2         1.0     0.119549     0.074029     0.070053    Uiso  ? N
   N3         1.0     0.871915     0.217950     0.815866    Uiso  ? N
   N4         1.0     0.763962     0.106416     0.566645    Uiso  ? N
   N5         1.0     0.542503     0.208220     0.334733    Uiso  ? N
   N6         1.0     0.464881     0.080217     0.075175    Uiso  ? N
   N7         1.0     0.229529     0.213381     0.846025    Uiso  ? N
   N8         1.0     0.121039     0.094226     0.596731    Uiso  ? N
   N9         1.0     0.897675     0.206337     0.365060    Uiso  ? N
   N10        1.0     0.768936     0.092260     0.112283    Uiso  ? N
   N11        1.0     0.543173     0.212344     0.822937    Uiso  ? N
   N12        1.0     0.442457     0.096974     0.582925    Uiso  ? N
   N13        1.0     0.230792     0.545302     0.325982    Uiso  ? N
   N14        1.0     0.102735     0.444361     0.091137    Uiso  ? N
   N15        1.0     0.884166     0.536452     0.857068    Uiso  ? N
   N16        1.0     0.763579     0.431571     0.601344    Uiso  ? N
   N17        1.0     0.549510     0.543147     0.352192    Uiso  ? N
   N18        1.0     0.436120     0.410679     0.084736    Uiso  ? N
   N19        1.0     0.231051     0.526145     0.833998    Uiso  ? N
   N20        1.0     0.129791     0.419607     0.591564    Uiso  ? N
   N21        1.0     0.875428     0.554688     0.358219    Uiso  ? N
   N22        1.0     0.790138     0.430610     0.133901    Uiso  ? N
   N23        1.0     0.563478     0.518509     0.871645    Uiso  ? N
   N24        1.0     0.443593     0.428451     0.579517    Uiso  ? N
   N25        1.0     0.224906     0.877547     0.343374    Uiso  ? N
   N26        1.0     0.118563     0.760660     0.101666    Uiso  ? N
   N27        1.0     0.883456     0.869963     0.858679    Uiso  ? N
   N28        1.0     0.763223     0.777754     0.584194    Uiso  ? N
   N29        1.0     0.552936     0.876329     0.334014    Uiso  ? N
   N30        1.0     0.438066     0.776059     0.082957    Uiso  ? N
   N31        1.0     0.221701     0.860827     0.810804    Uiso  ? N
   N32        1.0     0.125604     0.748326     0.571003    Uiso  ? N
   N33        1.0     0.890148     0.866891     0.325867    Uiso  ? N
   N34        1.0     0.770727     0.760824     0.080285    Uiso  ? N
   N35        1.0     0.559378     0.883993     0.825165    Uiso  ? N
   N36        1.0     0.449419     0.759667     0.590594    Uiso  ? N
