
#======================================================================
# CRYSTAL DATA
#----------------------------------------------------------------------
data_VESTA_phase_1

_chemical_name_common                  'Al   Hf   Mg   N                      '
_cell_length_a                         9.874597
_cell_length_b                         9.914052
_cell_length_c                         9.795542
_cell_angle_alpha                      90.025520
_cell_angle_beta                       89.919487
_cell_angle_gamma                      60.056324
_cell_volume                           830.950295
_space_group_name_H-M_alt              'P 1'
_space_group_IT_number                 1

loop_
_space_group_symop_operation_xyz
   'x, y, z'

loop_
   _atom_site_label
   _atom_site_occupancy
   _atom_site_fract_x
   _atom_site_fract_y
   _atom_site_fract_z
   _atom_site_adp_type
   _atom_site_U_iso_or_equiv
   _atom_site_type_symbol
   Al1        1.0     0.110203     0.088745     0.390226    Uiso  ? Al
   Al2        1.0     0.871469     0.212486     0.577886    Uiso  ? Al
   Al3        1.0     0.457038     0.086449     0.330603    Uiso  ? Al
   Al4        1.0     0.561719     0.197007     0.074067    Uiso  ? Al
   Al5        1.0     0.233051     0.202736     0.578601    Uiso  ? Al
   Al6        1.0     0.776178     0.089823     0.330853    Uiso  ? Al
   Al7        1.0     0.450080     0.102236     0.821816    Uiso  ? Al
   Al8        1.0     0.558544     0.206461     0.576191    Uiso  ? Al
   Al9        1.0     0.216202     0.546330     0.072519    Uiso  ? Al
   Al10       1.0     0.777342     0.423976     0.819705    Uiso  ? Al
   Al11       1.0     0.442944     0.418524     0.328440    Uiso  ? Al
   Al12       1.0     0.112742     0.434960     0.815298    Uiso  ? Al
   Al13       1.0     0.232726     0.541859     0.578931    Uiso  ? Al
   Al14       1.0     0.783297     0.427981     0.331268    Uiso  ? Al
   Al15       1.0     0.884935     0.548645     0.070896    Uiso  ? Al
   Al16       1.0     0.442913     0.418301     0.826059    Uiso  ? Al
   Al17       1.0     0.559001     0.525141     0.569754    Uiso  ? Al
   Al18       1.0     0.107557     0.764064     0.341489    Uiso  ? Al
   Al19       1.0     0.224318     0.870649     0.139580    Uiso  ? Al
   Al20       1.0     0.779748     0.771430     0.827160    Uiso  ? Al
   Al21       1.0     0.444050     0.764057     0.384616    Uiso  ? Al
   Al22       1.0     0.563537     0.875286     0.076535    Uiso  ? Al
   Al23       1.0     0.221465     0.864708     0.620046    Uiso  ? Al
   Al24       1.0     0.773495     0.765486     0.323434    Uiso  ? Al
   Al25       1.0     0.888018     0.872976     0.082551    Uiso  ? Al
   Al26       1.0     0.563093     0.878248     0.575882    Uiso  ? Al
   Hf1        1.0     0.226929     0.209788     0.092564    Uiso  ? Hf
   Hf2        1.0     0.105618     0.098400     0.848987    Uiso  ? Hf
   Hf3        1.0     0.101510     0.439760     0.355529    Uiso  ? Hf
   Hf4        1.0     0.556129     0.534079     0.101167    Uiso  ? Hf
   Hf5        1.0     0.458583     0.754816     0.839078    Uiso  ? Hf
   Mg1        1.0     0.772012     0.091599     0.825624    Uiso  ? Mg
   Mg2        1.0     0.884252     0.202150     0.086539    Uiso  ? Mg
   Mg3        1.0     0.873462     0.550418     0.594581    Uiso  ? Mg
   Mg4        1.0     0.883822     0.875043     0.576360    Uiso  ? Mg
   Mg5        1.0     0.101893     0.752788     0.823297    Uiso  ? Mg
   N1         1.0     0.230871     0.191340     0.367481    Uiso  ? N
   N2         1.0     0.125609     0.075102     0.077715    Uiso  ? N
   N3         1.0     0.875385     0.220793     0.870345    Uiso  ? N
   N4         1.0     0.768170     0.107238     0.613746    Uiso  ? N
   N5         1.0     0.550517     0.206366     0.381965    Uiso  ? N
   N6         1.0     0.462396     0.083255     0.137393    Uiso  ? N
   N7         1.0     0.228900     0.220317     0.873219    Uiso  ? N
   N8         1.0     0.113292     0.095474     0.599532    Uiso  ? N
   N9         1.0     0.889194     0.207666     0.376019    Uiso  ? N
   N10        1.0     0.767518     0.089509     0.137117    Uiso  ? N
   N11        1.0     0.540843     0.212898     0.883560    Uiso  ? N
   N12        1.0     0.444921     0.095335     0.626396    Uiso  ? N
   N13        1.0     0.234445     0.545404     0.382773    Uiso  ? N
   N14        1.0     0.097245     0.451407     0.136329    Uiso  ? N
   N15        1.0     0.888224     0.538497     0.870790    Uiso  ? N
   N16        1.0     0.764853     0.424135     0.626580    Uiso  ? N
   N17        1.0     0.553543     0.535774     0.364074    Uiso  ? N
   N18        1.0     0.432130     0.413823     0.134848    Uiso  ? N
   N19        1.0     0.229160     0.524545     0.879207    Uiso  ? N
   N20        1.0     0.127434     0.420847     0.612246    Uiso  ? N
   N21        1.0     0.865534     0.555175     0.381884    Uiso  ? N
   N22        1.0     0.791043     0.435153     0.137445    Uiso  ? N
   N23        1.0     0.562857     0.517217     0.883302    Uiso  ? N
   N24        1.0     0.446805     0.426027     0.628545    Uiso  ? N
   N25        1.0     0.226174     0.875725     0.344149    Uiso  ? N
   N26        1.0     0.116236     0.757189     0.134585    Uiso  ? N
   N27        1.0     0.884184     0.866593     0.892218    Uiso  ? N
   N28        1.0     0.759125     0.775072     0.640833    Uiso  ? N
   N29        1.0     0.555760     0.874156     0.380134    Uiso  ? N
   N30        1.0     0.439988     0.774333     0.088285    Uiso  ? N
   N31        1.0     0.227360     0.863233     0.818802    Uiso  ? N
   N32        1.0     0.121057     0.753763     0.602159    Uiso  ? N
   N33        1.0     0.886840     0.869150     0.363257    Uiso  ? N
   N34        1.0     0.774715     0.759741     0.128702    Uiso  ? N
   N35        1.0     0.558246     0.891911     0.882114    Uiso  ? N
   N36        1.0     0.449809     0.755491     0.598158    Uiso  ? N
