
#======================================================================
# CRYSTAL DATA
#----------------------------------------------------------------------
data_VESTA_phase_1

_chemical_name_common                  'Al   Hf   Mg   N                      '
_cell_length_a                         10.109625
_cell_length_b                         10.137400
_cell_length_c                         9.091703
_cell_angle_alpha                      90.045425
_cell_angle_beta                       89.973381
_cell_angle_gamma                      60.055607
_cell_volume                           807.384164
_space_group_name_H-M_alt              'P 1'
_space_group_IT_number                 1

loop_
_space_group_symop_operation_xyz
   'x, y, z'

loop_
   _atom_site_label
   _atom_site_occupancy
   _atom_site_fract_x
   _atom_site_fract_y
   _atom_site_fract_z
   _atom_site_adp_type
   _atom_site_U_iso_or_equiv
   _atom_site_type_symbol
   Al1        1.0     0.108828     0.092499     0.375892    Uiso  ? Al
   Al2        1.0     0.874406     0.211157     0.589040    Uiso  ? Al
   Al3        1.0     0.455146     0.089880     0.342860    Uiso  ? Al
   Al4        1.0     0.560563     0.197854     0.080241    Uiso  ? Al
   Al5        1.0     0.231158     0.201967     0.589330    Uiso  ? Al
   Al6        1.0     0.775336     0.090952     0.348439    Uiso  ? Al
   Al7        1.0     0.450593     0.097829     0.825675    Uiso  ? Al
   Al8        1.0     0.558481     0.206564     0.585659    Uiso  ? Al
   Al9        1.0     0.219951     0.543925     0.076987    Uiso  ? Al
   Al10       1.0     0.776209     0.426749     0.821712    Uiso  ? Al
   Al11       1.0     0.440588     0.419107     0.340776    Uiso  ? Al
   Al12       1.0     0.112175     0.432680     0.824635    Uiso  ? Al
   Al13       1.0     0.231443     0.542655     0.594973    Uiso  ? Al
   Al14       1.0     0.784881     0.427685     0.350609    Uiso  ? Al
   Al15       1.0     0.883741     0.548688     0.078095    Uiso  ? Al
   Al16       1.0     0.444330     0.418499     0.829299    Uiso  ? Al
   Al17       1.0     0.554963     0.531670     0.574428    Uiso  ? Al
   Al18       1.0     0.108837     0.762427     0.358072    Uiso  ? Al
   Al19       1.0     0.220887     0.868029     0.134645    Uiso  ? Al
   Al20       1.0     0.776243     0.771996     0.829006    Uiso  ? Al
   Al21       1.0     0.444954     0.765692     0.361054    Uiso  ? Al
   Al22       1.0     0.564299     0.874172     0.093897    Uiso  ? Al
   Al23       1.0     0.223825     0.864850     0.601358    Uiso  ? Al
   Al24       1.0     0.776571     0.764869     0.338833    Uiso  ? Al
   Al25       1.0     0.885740     0.872922     0.095637    Uiso  ? Al
   Al26       1.0     0.558992     0.875712     0.576659    Uiso  ? Al
   Hf1        1.0     0.227727     0.206524     0.102995    Uiso  ? Hf
   Hf2        1.0     0.104868     0.096726     0.846688    Uiso  ? Hf
   Hf3        1.0     0.102495     0.440951     0.362439    Uiso  ? Hf
   Hf4        1.0     0.559306     0.530321     0.110587    Uiso  ? Hf
   Hf5        1.0     0.452356     0.758762     0.844131    Uiso  ? Hf
   Mg1        1.0     0.773121     0.091630     0.838624    Uiso  ? Mg
   Mg2        1.0     0.884805     0.202729     0.107134    Uiso  ? Mg
   Mg3        1.0     0.874901     0.550341     0.605212    Uiso  ? Mg
   Mg4        1.0     0.887041     0.875067     0.592239    Uiso  ? Mg
   Mg5        1.0     0.104180     0.757159     0.841260    Uiso  ? Mg
   N1         1.0     0.228638     0.194447     0.359589    Uiso  ? N
   N2         1.0     0.122996     0.076751     0.092863    Uiso  ? N
   N3         1.0     0.876651     0.220899     0.850496    Uiso  ? N
   N4         1.0     0.769456     0.106272     0.595651    Uiso  ? N
   N5         1.0     0.547987     0.208014     0.376321    Uiso  ? N
   N6         1.0     0.460709     0.085867     0.129377    Uiso  ? N
   N7         1.0     0.229355     0.214434     0.861691    Uiso  ? N
   N8         1.0     0.115501     0.095195     0.598376    Uiso  ? N
   N9         1.0     0.893355     0.206878     0.367970    Uiso  ? N
   N10        1.0     0.766173     0.091539     0.130699    Uiso  ? N
   N11        1.0     0.540964     0.211755     0.868835    Uiso  ? N
   N12        1.0     0.444810     0.092589     0.613417    Uiso  ? N
   N13        1.0     0.232088     0.544686     0.376244    Uiso  ? N
   N14        1.0     0.100733     0.447422     0.120613    Uiso  ? N
   N15        1.0     0.887189     0.538572     0.860947    Uiso  ? N
   N16        1.0     0.764054     0.426246     0.607913    Uiso  ? N
   N17        1.0     0.550677     0.538396     0.359499    Uiso  ? N
   N18        1.0     0.434529     0.413776     0.126599    Uiso  ? N
   N19        1.0     0.230455     0.524754     0.863677    Uiso  ? N
   N20        1.0     0.127731     0.419301     0.609919    Uiso  ? N
   N21        1.0     0.871186     0.553351     0.374715    Uiso  ? N
   N22        1.0     0.789868     0.435062     0.131746    Uiso  ? N
   N23        1.0     0.561263     0.521388     0.871429    Uiso  ? N
   N24        1.0     0.447666     0.427069     0.617024    Uiso  ? N
   N25        1.0     0.225034     0.875875     0.356171    Uiso  ? N
   N26        1.0     0.119846     0.755646     0.124054    Uiso  ? N
   N27        1.0     0.882712     0.866098     0.881911    Uiso  ? N
   N28        1.0     0.758464     0.776004     0.623138    Uiso  ? N
   N29        1.0     0.553708     0.874314     0.365282    Uiso  ? N
   N30        1.0     0.440993     0.771784     0.107269    Uiso  ? N
   N31        1.0     0.225219     0.865110     0.827492    Uiso  ? N
   N32        1.0     0.123024     0.755190     0.592246    Uiso  ? N
   N33        1.0     0.890103     0.868278     0.351827    Uiso  ? N
   N34        1.0     0.775347     0.758131     0.124811    Uiso  ? N
   N35        1.0     0.557219     0.888148     0.877321    Uiso  ? N
   N36        1.0     0.450612     0.756575     0.597964    Uiso  ? N
