
#======================================================================
# CRYSTAL DATA
#----------------------------------------------------------------------
data_VESTA_phase_1

_chemical_name_common                  'Al   Hf   Mg   N                      '
_cell_length_a                         9.817100
_cell_length_b                         9.858844
_cell_length_c                         9.973262
_cell_angle_alpha                      89.993912
_cell_angle_beta                       89.871597
_cell_angle_gamma                      60.059235
_cell_volume                           836.439557
_space_group_name_H-M_alt              'P 1'
_space_group_IT_number                 1

loop_
_space_group_symop_operation_xyz
   'x, y, z'

loop_
   _atom_site_label
   _atom_site_occupancy
   _atom_site_fract_x
   _atom_site_fract_y
   _atom_site_fract_z
   _atom_site_adp_type
   _atom_site_U_iso_or_equiv
   _atom_site_type_symbol
   Al1        1.0     0.110845     0.087239     0.393798    Uiso  ? Al
   Al2        1.0     0.870846     0.212135     0.576910    Uiso  ? Al
   Al3        1.0     0.455975     0.086330     0.329810    Uiso  ? Al
   Al4        1.0     0.561952     0.196926     0.074227    Uiso  ? Al
   Al5        1.0     0.232561     0.203750     0.578594    Uiso  ? Al
   Al6        1.0     0.776552     0.089885     0.328039    Uiso  ? Al
   Al7        1.0     0.451316     0.102609     0.820228    Uiso  ? Al
   Al8        1.0     0.558447     0.206232     0.574386    Uiso  ? Al
   Al9        1.0     0.216088     0.546766     0.071569    Uiso  ? Al
   Al10       1.0     0.778287     0.423619     0.818664    Uiso  ? Al
   Al11       1.0     0.443458     0.419673     0.327848    Uiso  ? Al
   Al12       1.0     0.111632     0.436706     0.814201    Uiso  ? Al
   Al13       1.0     0.231024     0.542311     0.577111    Uiso  ? Al
   Al14       1.0     0.781665     0.427883     0.329343    Uiso  ? Al
   Al15       1.0     0.884086     0.549021     0.070894    Uiso  ? Al
   Al16       1.0     0.442166     0.418099     0.824995    Uiso  ? Al
   Al17       1.0     0.559446     0.523893     0.570615    Uiso  ? Al
   Al18       1.0     0.107085     0.764304     0.333265    Uiso  ? Al
   Al19       1.0     0.225963     0.872048     0.138595    Uiso  ? Al
   Al20       1.0     0.780893     0.770936     0.826583    Uiso  ? Al
   Al21       1.0     0.443098     0.763579     0.389665    Uiso  ? Al
   Al22       1.0     0.563780     0.875690     0.074100    Uiso  ? Al
   Al23       1.0     0.220630     0.864069     0.624795    Uiso  ? Al
   Al24       1.0     0.772908     0.765749     0.321736    Uiso  ? Al
   Al25       1.0     0.887676     0.873462     0.080077    Uiso  ? Al
   Al26       1.0     0.563835     0.878653     0.575604    Uiso  ? Al
   Hf1        1.0     0.228458     0.211126     0.085095    Uiso  ? Hf
   Hf2        1.0     0.105355     0.098480     0.848424    Uiso  ? Hf
   Hf3        1.0     0.102332     0.438229     0.351299    Uiso  ? Hf
   Hf4        1.0     0.555901     0.533583     0.095749    Uiso  ? Hf
   Hf5        1.0     0.461187     0.754452     0.837419    Uiso  ? Hf
   Mg1        1.0     0.771317     0.091649     0.824149    Uiso  ? Mg
   Mg2        1.0     0.884533     0.202284     0.082855    Uiso  ? Mg
   Mg3        1.0     0.874207     0.549928     0.590300    Uiso  ? Mg
   Mg4        1.0     0.884464     0.874320     0.574029    Uiso  ? Mg
   Mg5        1.0     0.101866     0.751806     0.822581    Uiso  ? Mg
   N1         1.0     0.231528     0.190743     0.373526    Uiso  ? N
   N2         1.0     0.126920     0.075826     0.073420    Uiso  ? N
   N3         1.0     0.874390     0.220969     0.872529    Uiso  ? N
   N4         1.0     0.767558     0.106897     0.616970    Uiso  ? N
   N5         1.0     0.550882     0.206251     0.382736    Uiso  ? N
   N6         1.0     0.462110     0.082898     0.139685    Uiso  ? N
   N7         1.0     0.229122     0.220900     0.871623    Uiso  ? N
   N8         1.0     0.112617     0.094433     0.599960    Uiso  ? N
   N9         1.0     0.888279     0.207506     0.378442    Uiso  ? N
   N10        1.0     0.768244     0.089445     0.138079    Uiso  ? N
   N11        1.0     0.540405     0.213423     0.887078    Uiso  ? N
   N12        1.0     0.445232     0.095586     0.628545    Uiso  ? N
   N13        1.0     0.233308     0.546914     0.383901    Uiso  ? N
   N14        1.0     0.097087     0.451352     0.137312    Uiso  ? N
   N15        1.0     0.887499     0.539002     0.874156    Uiso  ? N
   N16        1.0     0.765635     0.423757     0.629431    Uiso  ? N
   N17        1.0     0.553757     0.535349     0.368202    Uiso  ? N
   N18        1.0     0.431575     0.414314     0.137233    Uiso  ? N
   N19        1.0     0.229077     0.524165     0.882562    Uiso  ? N
   N20        1.0     0.126366     0.421783     0.615314    Uiso  ? N
   N21        1.0     0.865628     0.554453     0.381440    Uiso  ? N
   N22        1.0     0.790316     0.434978     0.139095    Uiso  ? N
   N23        1.0     0.563261     0.516331     0.883128    Uiso  ? N
   N24        1.0     0.445687     0.425626     0.630331    Uiso  ? N
   N25        1.0     0.226651     0.875700     0.339690    Uiso  ? N
   N26        1.0     0.115770     0.758070     0.133916    Uiso  ? N
   N27        1.0     0.884241     0.866847     0.894056    Uiso  ? N
   N28        1.0     0.759463     0.774042     0.643537    Uiso  ? N
   N29        1.0     0.556173     0.874038     0.382992    Uiso  ? N
   N30        1.0     0.440314     0.774098     0.082567    Uiso  ? N
   N31        1.0     0.228924     0.862563     0.818753    Uiso  ? N
   N32        1.0     0.120234     0.752649     0.608984    Uiso  ? N
   N33        1.0     0.887242     0.869139     0.364490    Uiso  ? N
   N34        1.0     0.774608     0.760460     0.130154    Uiso  ? N
   N35        1.0     0.559419     0.893141     0.883452    Uiso  ? N
   N36        1.0     0.448904     0.755975     0.598201    Uiso  ? N
