
#======================================================================
# CRYSTAL DATA
#----------------------------------------------------------------------
data_VESTA_phase_1

_chemical_name_common                  'Al   Hf   Mg   N                      '
_cell_length_a                         9.727435
_cell_length_b                         9.737956
_cell_length_c                         10.181977
_cell_angle_alpha                      90.224144
_cell_angle_beta                       90.030937
_cell_angle_gamma                      60.129597
_cell_volume                           836.355038
_space_group_name_H-M_alt              'P 1'
_space_group_IT_number                 1

loop_
_space_group_symop_operation_xyz
   'x, y, z'

loop_
   _atom_site_label
   _atom_site_occupancy
   _atom_site_fract_x
   _atom_site_fract_y
   _atom_site_fract_z
   _atom_site_adp_type
   _atom_site_U_iso_or_equiv
   _atom_site_type_symbol
   Al1        1.0     0.108277     0.092025     0.395301    Uiso  ? Al
   Al2        1.0     0.872881     0.214633     0.623452    Uiso  ? Al
   Al3        1.0     0.451359     0.089992     0.388795    Uiso  ? Al
   Al4        1.0     0.562918     0.195687     0.136875    Uiso  ? Al
   Al5        1.0     0.229603     0.206612     0.636334    Uiso  ? Al
   Al6        1.0     0.778373     0.094620     0.384171    Uiso  ? Al
   Al7        1.0     0.456714     0.095851     0.876038    Uiso  ? Al
   Al8        1.0     0.557367     0.206640     0.631650    Uiso  ? Al
   Al9        1.0     0.220227     0.546210     0.131855    Uiso  ? Al
   Al10       1.0     0.781968     0.428363     0.879451    Uiso  ? Al
   Al11       1.0     0.446695     0.424952     0.389868    Uiso  ? Al
   Al12       1.0     0.105671     0.441253     0.878684    Uiso  ? Al
   Al13       1.0     0.227587     0.540469     0.637208    Uiso  ? Al
   Al14       1.0     0.776934     0.426785     0.390202    Uiso  ? Al
   Al15       1.0     0.881437     0.549241     0.126929    Uiso  ? Al
   Al16       1.0     0.440158     0.416230     0.876920    Uiso  ? Al
   Al17       1.0     0.557833     0.532494     0.626310    Uiso  ? Al
   Al18       1.0     0.111042     0.764728     0.382450    Uiso  ? Al
   Al19       1.0     0.217510     0.870651     0.143435    Uiso  ? Al
   Al20       1.0     0.785595     0.764011     0.885540    Uiso  ? Al
   Al21       1.0     0.445769     0.765087     0.390189    Uiso  ? Al
   Al22       1.0     0.563642     0.872850     0.136837    Uiso  ? Al
   Al23       1.0     0.223187     0.864019     0.620445    Uiso  ? Al
   Al24       1.0     0.771582     0.769413     0.383957    Uiso  ? Al
   Al25       1.0     0.887960     0.875067     0.133741    Uiso  ? Al
   Al26       1.0     0.562602     0.875217     0.626700    Uiso  ? Al
   Hf1        1.0     0.226567     0.201880     0.120316    Uiso  ? Hf
   Hf2        1.0     0.100764     0.094237     0.861595    Uiso  ? Hf
   Hf3        1.0     0.107640     0.433381     0.382227    Uiso  ? Hf
   Hf4        1.0     0.556218     0.532548     0.129483    Uiso  ? Hf
   Hf5        1.0     0.448546     0.761285     0.869956    Uiso  ? Hf
   Mg1        1.0     0.769856     0.093176     0.884096    Uiso  ? Mg
   Mg2        1.0     0.888501     0.199064     0.140070    Uiso  ? Mg
   Mg3        1.0     0.880329     0.548636     0.637322    Uiso  ? Mg
   Mg4        1.0     0.887126     0.873556     0.632778    Uiso  ? Mg
   Mg5        1.0     0.105572     0.754760     0.885530    Uiso  ? Mg
   N1         1.0     0.229046     0.191093     0.327905    Uiso  ? N
   N2         1.0     0.118928     0.075052     0.067586    Uiso  ? N
   N3         1.0     0.871195     0.225162     0.811372    Uiso  ? N
   N4         1.0     0.766509     0.109219     0.568322    Uiso  ? N
   N5         1.0     0.549595     0.207736     0.326706    Uiso  ? N
   N6         1.0     0.462324     0.082688     0.067817    Uiso  ? N
   N7         1.0     0.228792     0.213187     0.834301    Uiso  ? N
   N8         1.0     0.113088     0.095680     0.587794    Uiso  ? N
   N9         1.0     0.893889     0.206748     0.342704    Uiso  ? N
   N10        1.0     0.770686     0.088813     0.089419    Uiso  ? N
   N11        1.0     0.542684     0.212023     0.815520    Uiso  ? N
   N12        1.0     0.442882     0.095515     0.575195    Uiso  ? N
   N13        1.0     0.233436     0.543287     0.320838    Uiso  ? N
   N14        1.0     0.103039     0.445007     0.079097    Uiso  ? N
   N15        1.0     0.886509     0.542166     0.840970    Uiso  ? N
   N16        1.0     0.768525     0.428215     0.572630    Uiso  ? N
   N17        1.0     0.553756     0.540086     0.334389    Uiso  ? N
   N18        1.0     0.436306     0.413635     0.070914    Uiso  ? N
   N19        1.0     0.229601     0.526158     0.822768    Uiso  ? N
   N20        1.0     0.126100     0.420527     0.581736    Uiso  ? N
   N21        1.0     0.870986     0.548160     0.318890    Uiso  ? N
   N22        1.0     0.786236     0.430937     0.069200    Uiso  ? N
   N23        1.0     0.560547     0.521904     0.829243    Uiso  ? N
   N24        1.0     0.444144     0.427951     0.575412    Uiso  ? N
   N25        1.0     0.224783     0.875799     0.332948    Uiso  ? N
   N26        1.0     0.114808     0.761150     0.092369    Uiso  ? N
   N27        1.0     0.884372     0.866970     0.831527    Uiso  ? N
   N28        1.0     0.763430     0.769001     0.562547    Uiso  ? N
   N29        1.0     0.550991     0.876234     0.323701    Uiso  ? N
   N30        1.0     0.438212     0.774512     0.079602    Uiso  ? N
   N31        1.0     0.223404     0.862152     0.805700    Uiso  ? N
   N32        1.0     0.127963     0.748411     0.565953    Uiso  ? N
   N33        1.0     0.890520     0.870884     0.326499    Uiso  ? N
   N34        1.0     0.774890     0.763668     0.078759    Uiso  ? N
   N35        1.0     0.564020     0.881442     0.817636    Uiso  ? N
   N36        1.0     0.447860     0.760324     0.581440    Uiso  ? N
