
#======================================================================
# CRYSTAL DATA
#----------------------------------------------------------------------
data_VESTA_phase_1

_chemical_name_common                  'Al   Hf   Mg   N '
_cell_length_a                         9.701322
_cell_length_b                         9.720690
_cell_length_c                         10.188743
_cell_angle_alpha                      90.252716
_cell_angle_beta                       89.996750
_cell_angle_gamma                      60.143585
_cell_volume                           833.297476
_space_group_name_H-M_alt              'P 1'
_space_group_IT_number                 1

loop_
_space_group_symop_operation_xyz
   'x, y, z'

loop_
   _atom_site_label
   _atom_site_occupancy
   _atom_site_fract_x
   _atom_site_fract_y
   _atom_site_fract_z
   _atom_site_adp_type
   _atom_site_U_iso_or_equiv
   _atom_site_type_symbol
   Al1        1.0     0.109722     0.089342     0.299534    Uiso  ? Al
   Al2        1.0     0.876610     0.210347     0.538183    Uiso  ? Al
   Al3        1.0     0.454567     0.088499     0.300286    Uiso  ? Al
   Al4        1.0     0.561029     0.196071     0.045154    Uiso  ? Al
   Al5        1.0     0.229848     0.201886     0.543855    Uiso  ? Al
   Al6        1.0     0.776809     0.090280     0.297483    Uiso  ? Al
   Al7        1.0     0.452028     0.096592     0.790281    Uiso  ? Al
   Al8        1.0     0.559815     0.205563     0.545640    Uiso  ? Al
   Al9        1.0     0.218179     0.543196     0.041637    Uiso  ? Al
   Al10       1.0     0.781236     0.422825     0.787825    Uiso  ? Al
   Al11       1.0     0.445081     0.422221     0.300634    Uiso  ? Al
   Al12       1.0     0.111419     0.434008     0.784781    Uiso  ? Al
   Al13       1.0     0.229759     0.545980     0.551668    Uiso  ? Al
   Al14       1.0     0.779735     0.428957     0.298686    Uiso  ? Al
   Al15       1.0     0.884668     0.548064     0.041155    Uiso  ? Al
   Al16       1.0     0.442261     0.416672     0.793448    Uiso  ? Al
   Al17       1.0     0.557751     0.531730     0.538136    Uiso  ? Al
   Al18       1.0     0.109021     0.766306     0.294863    Uiso  ? Al
   Al19       1.0     0.221640     0.868799     0.056247    Uiso  ? Al
   Al20       1.0     0.780172     0.767706     0.797799    Uiso  ? Al
   Al21       1.0     0.444780     0.766198     0.302067    Uiso  ? Al
   Al22       1.0     0.562769     0.873108     0.050592    Uiso  ? Al
   Al23       1.0     0.220298     0.867593     0.533165    Uiso  ? Al
   Al24       1.0     0.774987     0.766440     0.293038    Uiso  ? Al
   Al25       1.0     0.885126     0.873487     0.048650    Uiso  ? Al
   Al26       1.0     0.560880     0.875001     0.542094    Uiso  ? Al
   Hf1        1.0     0.225067     0.208260     0.050448    Uiso  ? Hf
   Hf2        1.0     0.104685     0.091514     0.788596    Uiso  ? Hf
   Hf3        1.0     0.105212     0.437768     0.318215    Uiso  ? Hf
   Hf4        1.0     0.557240     0.532122     0.061455    Uiso  ? Hf
   Hf5        1.0     0.452181     0.756121     0.789904    Uiso  ? Hf
   Mg1        1.0     0.772246     0.092302     0.793655    Uiso  ? Mg
   Mg2        1.0     0.886624     0.200126     0.053355    Uiso  ? Mg
   Mg3        1.0     0.876409     0.549511     0.557865    Uiso  ? Mg
   Mg4        1.0     0.888965     0.872497     0.547683    Uiso  ? Mg
   Mg5        1.0     0.106010     0.754455     0.798863    Uiso  ? Mg
   N1         1.0     0.231671     0.190973     0.349532    Uiso  ? N
   N2         1.0     0.121339     0.081336     0.111086    Uiso  ? N
   N3         1.0     0.882908     0.219326     0.852688    Uiso  ? N
   N4         1.0     0.770693     0.107915     0.590883    Uiso  ? N
   N5         1.0     0.552011     0.206860     0.356227    Uiso  ? N
   N6         1.0     0.458343     0.085196     0.112254    Uiso  ? N
   N7         1.0     0.225865     0.210852     0.843351    Uiso  ? N
   N8         1.0     0.110880     0.095015     0.582947    Uiso  ? N
   N9         1.0     0.888351     0.208208     0.347436    Uiso  ? N
   N10        1.0     0.767538     0.088444     0.110833    Uiso  ? N
   N11        1.0     0.540008     0.211102     0.860407    Uiso  ? N
   N12        1.0     0.444613     0.094140     0.601720    Uiso  ? N
   N13        1.0     0.232466     0.551163     0.359852    Uiso  ? N
   N14        1.0     0.099722     0.447641     0.108670    Uiso  ? N
   N15        1.0     0.889116     0.537643     0.848814    Uiso  ? N
   N16        1.0     0.766791     0.423255     0.602361    Uiso  ? N
   N17        1.0     0.554732     0.537380     0.342669    Uiso  ? N
   N18        1.0     0.432977     0.414502     0.111973    Uiso  ? N
   N19        1.0     0.230363     0.520900     0.857085    Uiso  ? N
   N20        1.0     0.126936     0.422065     0.591589    Uiso  ? N
   N21        1.0     0.867644     0.553797     0.352796    Uiso  ? N
   N22        1.0     0.789428     0.435002     0.111879    Uiso  ? N
   N23        1.0     0.562155     0.522127     0.854757    Uiso  ? N
   N24        1.0     0.446876     0.427125     0.603425    Uiso  ? N
   N25        1.0     0.223395     0.872101     0.346828    Uiso  ? N
   N26        1.0     0.115583     0.757293     0.104860    Uiso  ? N
   N27        1.0     0.882729     0.866751     0.866962    Uiso  ? N
   N28        1.0     0.756778     0.775115     0.617887    Uiso  ? N
   N29        1.0     0.557038     0.873867     0.353407    Uiso  ? N
   N30        1.0     0.442451     0.773226     0.108709    Uiso  ? N
   N31        1.0     0.229590     0.866610     0.869914    Uiso  ? N
   N32        1.0     0.127934     0.757499     0.599146    Uiso  ? N
   N33        1.0     0.890980     0.868692     0.339292    Uiso  ? N
   N34        1.0     0.776061     0.759782     0.104131    Uiso  ? N
   N35        1.0     0.555390     0.883506     0.862843    Uiso  ? N
   N36        1.0     0.443818     0.762049     0.583849    Uiso  ? N
