
#======================================================================
# CRYSTAL DATA
#----------------------------------------------------------------------
data_VESTA_phase_1

_chemical_name_common                  'Al   Hf   Mg   N                      '
_cell_length_a                         9.706083
_cell_length_b                         9.725995
_cell_length_c                         10.189121
_cell_angle_alpha                      90.256493
_cell_angle_beta                       89.996048
_cell_angle_gamma                      60.147243
_cell_volume                           834.222709
_space_group_name_H-M_alt              'P 1'
_space_group_IT_number                 1

loop_
_space_group_symop_operation_xyz
   'x, y, z'

loop_
   _atom_site_label
   _atom_site_occupancy
   _atom_site_fract_x
   _atom_site_fract_y
   _atom_site_fract_z
   _atom_site_adp_type
   _atom_site_U_iso_or_equiv
   _atom_site_type_symbol
   Al1        1.0     0.109697     0.089370     0.304821    Uiso  ? Al
   Al2        1.0     0.876538     0.210384     0.543463    Uiso  ? Al
   Al3        1.0     0.454546     0.088548     0.305570    Uiso  ? Al
   Al4        1.0     0.560990     0.196120     0.050414    Uiso  ? Al
   Al5        1.0     0.229857     0.201913     0.549115    Uiso  ? Al
   Al6        1.0     0.776763     0.090325     0.302711    Uiso  ? Al
   Al7        1.0     0.452017     0.096641     0.795578    Uiso  ? Al
   Al8        1.0     0.559801     0.205618     0.550906    Uiso  ? Al
   Al9        1.0     0.218166     0.543232     0.046932    Uiso  ? Al
   Al10       1.0     0.781230     0.422829     0.793113    Uiso  ? Al
   Al11       1.0     0.445028     0.422273     0.305902    Uiso  ? Al
   Al12       1.0     0.111467     0.434017     0.790088    Uiso  ? Al
   Al13       1.0     0.229768     0.546015     0.556934    Uiso  ? Al
   Al14       1.0     0.779712     0.429021     0.303964    Uiso  ? Al
   Al15       1.0     0.884644     0.548116     0.046439    Uiso  ? Al
   Al16       1.0     0.442256     0.416693     0.798752    Uiso  ? Al
   Al17       1.0     0.557728     0.531754     0.543429    Uiso  ? Al
   Al18       1.0     0.108973     0.766365     0.300131    Uiso  ? Al
   Al19       1.0     0.221614     0.868850     0.061480    Uiso  ? Al
   Al20       1.0     0.780141     0.767746     0.803058    Uiso  ? Al
   Al21       1.0     0.444707     0.766284     0.307339    Uiso  ? Al
   Al22       1.0     0.562739     0.873167     0.055879    Uiso  ? Al
   Al23       1.0     0.220284     0.867591     0.538481    Uiso  ? Al
   Al24       1.0     0.774934     0.766488     0.298327    Uiso  ? Al
   Al25       1.0     0.885054     0.873531     0.053923    Uiso  ? Al
   Al26       1.0     0.560828     0.875050     0.547393    Uiso  ? Al
   Hf1        1.0     0.225059     0.208294     0.055840    Uiso  ? Hf
   Hf2        1.0     0.104727     0.091613     0.793914    Uiso  ? Hf
   Hf3        1.0     0.105153     0.437835     0.323544    Uiso  ? Hf
   Hf4        1.0     0.557213     0.532192     0.066805    Uiso  ? Hf
   Hf5        1.0     0.452195     0.756137     0.795261    Uiso  ? Hf
   Mg1        1.0     0.772253     0.092320     0.798942    Uiso  ? Mg
   Mg2        1.0     0.886594     0.200194     0.058622    Uiso  ? Mg
   Mg3        1.0     0.876355     0.549543     0.563191    Uiso  ? Mg
   Mg4        1.0     0.888904     0.872549     0.552947    Uiso  ? Mg
   Mg5        1.0     0.105993     0.754490     0.804144    Uiso  ? Mg
   N1         1.0     0.231621     0.191065     0.354730    Uiso  ? N
   N2         1.0     0.121343     0.081351     0.116317    Uiso  ? N
   N3         1.0     0.882963     0.219339     0.857872    Uiso  ? N
   N4         1.0     0.770638     0.107954     0.596104    Uiso  ? N
   N5         1.0     0.551959     0.206929     0.361466    Uiso  ? N
   N6         1.0     0.458325     0.085236     0.117499    Uiso  ? N
   N7         1.0     0.225882     0.210914     0.848710    Uiso  ? N
   N8         1.0     0.110890     0.095038     0.588236    Uiso  ? N
   N9         1.0     0.888322     0.208265     0.352676    Uiso  ? N
   N10        1.0     0.767490     0.088492     0.116031    Uiso  ? N
   N11        1.0     0.539992     0.211144     0.865633    Uiso  ? N
   N12        1.0     0.444589     0.094181     0.606974    Uiso  ? N
   N13        1.0     0.232406     0.551204     0.365064    Uiso  ? N
   N14        1.0     0.099701     0.447681     0.113943    Uiso  ? N
   N15        1.0     0.889125     0.537666     0.854050    Uiso  ? N
   N16        1.0     0.766741     0.423270     0.607606    Uiso  ? N
   N17        1.0     0.554683     0.537449     0.347901    Uiso  ? N
   N18        1.0     0.432982     0.414548     0.117209    Uiso  ? N
   N19        1.0     0.230373     0.520936     0.862343    Uiso  ? N
   N20        1.0     0.126970     0.422065     0.596830    Uiso  ? N
   N21        1.0     0.867630     0.553856     0.358035    Uiso  ? N
   N22        1.0     0.789369     0.435087     0.117119    Uiso  ? N
   N23        1.0     0.562148     0.522171     0.860065    Uiso  ? N
   N24        1.0     0.446853     0.427168     0.608676    Uiso  ? N
   N25        1.0     0.223348     0.872162     0.352109    Uiso  ? N
   N26        1.0     0.115577     0.757341     0.110088    Uiso  ? N
   N27        1.0     0.882698     0.866756     0.872199    Uiso  ? N
   N28        1.0     0.756711     0.775148     0.623118    Uiso  ? N
   N29        1.0     0.556968     0.873942     0.358669    Uiso  ? N
   N30        1.0     0.442414     0.773273     0.113934    Uiso  ? N
   N31        1.0     0.229579     0.866701     0.875100    Uiso  ? N
   N32        1.0     0.127903     0.757502     0.604350    Uiso  ? N
   N33        1.0     0.890921     0.868759     0.344483    Uiso  ? N
   N34        1.0     0.776002     0.759821     0.109389    Uiso  ? N
   N35        1.0     0.555360     0.883565     0.868091    Uiso  ? N
   N36        1.0     0.443792     0.762064     0.589183    Uiso  ? N
