
#======================================================================
# CRYSTAL DATA
#----------------------------------------------------------------------
data_VESTA_phase_1

_chemical_name_common                  'Al   Hf   Mg   N                      '
_cell_length_a                         10.051189
_cell_length_b                         10.082144
_cell_length_c                         9.262363
_cell_angle_alpha                      90.043076
_cell_angle_beta                       89.968575
_cell_angle_gamma                      60.058674
_cell_volume                           813.352661
_space_group_name_H-M_alt              'P 1'
_space_group_IT_number                 1

loop_
_space_group_symop_operation_xyz
   'x, y, z'

loop_
   _atom_site_label
   _atom_site_occupancy
   _atom_site_fract_x
   _atom_site_fract_y
   _atom_site_fract_z
   _atom_site_adp_type
   _atom_site_U_iso_or_equiv
   _atom_site_type_symbol
   Al1        1.0     0.109027     0.091998     0.379580    Uiso  ? Al
   Al2        1.0     0.873989     0.211722     0.585304    Uiso  ? Al
   Al3        1.0     0.456180     0.088811     0.338564    Uiso  ? Al
   Al4        1.0     0.561144     0.197422     0.077808    Uiso  ? Al
   Al5        1.0     0.232023     0.201697     0.585300    Uiso  ? Al
   Al6        1.0     0.775265     0.090714     0.344658    Uiso  ? Al
   Al7        1.0     0.449888     0.099127     0.824676    Uiso  ? Al
   Al8        1.0     0.558037     0.206893     0.582756    Uiso  ? Al
   Al9        1.0     0.218693     0.544513     0.075410    Uiso  ? Al
   Al10       1.0     0.776022     0.425941     0.820603    Uiso  ? Al
   Al11       1.0     0.440923     0.418505     0.336011    Uiso  ? Al
   Al12       1.0     0.112935     0.432520     0.820892    Uiso  ? Al
   Al13       1.0     0.232623     0.542040     0.589898    Uiso  ? Al
   Al14       1.0     0.785002     0.428012     0.344722    Uiso  ? Al
   Al15       1.0     0.884637     0.548227     0.074861    Uiso  ? Al
   Al16       1.0     0.444151     0.418522     0.828441    Uiso  ? Al
   Al17       1.0     0.555814     0.530350     0.571523    Uiso  ? Al
   Al18       1.0     0.108695     0.762791     0.356782    Uiso  ? Al
   Al19       1.0     0.221135     0.868578     0.137117    Uiso  ? Al
   Al20       1.0     0.776742     0.772370     0.828929    Uiso  ? Al
   Al21       1.0     0.445366     0.765465     0.363681    Uiso  ? Al
   Al22       1.0     0.563862     0.874493     0.088504    Uiso  ? Al
   Al23       1.0     0.223746     0.864783     0.604988    Uiso  ? Al
   Al24       1.0     0.775907     0.764832     0.333063    Uiso  ? Al
   Al25       1.0     0.886631     0.873081     0.092441    Uiso  ? Al
   Al26       1.0     0.560057     0.876109     0.576062    Uiso  ? Al
   Hf1        1.0     0.227016     0.207300     0.101908    Uiso  ? Hf
   Hf2        1.0     0.105128     0.097240     0.847254    Uiso  ? Hf
   Hf3        1.0     0.101783     0.441126     0.361696    Uiso  ? Hf
   Hf4        1.0     0.558658     0.531444     0.109238    Uiso  ? Hf
   Hf5        1.0     0.453534     0.757517     0.842006    Uiso  ? Hf
   Mg1        1.0     0.772915     0.091573     0.833492    Uiso  ? Mg
   Mg2        1.0     0.884822     0.202351     0.102037    Uiso  ? Mg
   Mg3        1.0     0.873944     0.550874     0.603749    Uiso  ? Mg
   Mg4        1.0     0.885667     0.874842     0.587183    Uiso  ? Mg
   Mg5        1.0     0.103528     0.756236     0.835933    Uiso  ? Mg
   N1         1.0     0.229213     0.193550     0.360360    Uiso  ? N
   N2         1.0     0.123589     0.076007     0.089277    Uiso  ? N
   N3         1.0     0.876452     0.220814     0.856717    Uiso  ? N
   N4         1.0     0.769219     0.106622     0.599466    Uiso  ? N
   N5         1.0     0.548162     0.207840     0.378286    Uiso  ? N
   N6         1.0     0.461284     0.085263     0.131603    Uiso  ? N
   N7         1.0     0.229048     0.216146     0.865996    Uiso  ? N
   N8         1.0     0.114758     0.095867     0.599012    Uiso  ? N
   N9         1.0     0.892565     0.207258     0.369652    Uiso  ? N
   N10        1.0     0.766229     0.091012     0.133790    Uiso  ? N
   N11        1.0     0.541037     0.211890     0.872869    Uiso  ? N
   N12        1.0     0.444805     0.093205     0.617273    Uiso  ? N
   N13        1.0     0.233228     0.544316     0.378575    Uiso  ? N
   N14        1.0     0.099620     0.448728     0.126020    Uiso  ? N
   N15        1.0     0.887987     0.538027     0.862625    Uiso  ? N
   N16        1.0     0.763856     0.425726     0.612941    Uiso  ? N
   N17        1.0     0.551585     0.537457     0.359537    Uiso  ? N
   N18        1.0     0.433879     0.413675     0.128638    Uiso  ? N
   N19        1.0     0.230026     0.524577     0.867830    Uiso  ? N
   N20        1.0     0.128256     0.419233     0.609581    Uiso  ? N
   N21        1.0     0.869324     0.554542     0.378195    Uiso  ? N
   N22        1.0     0.790614     0.435327     0.133927    Uiso  ? N
   N23        1.0     0.561640     0.520464     0.875927    Uiso  ? N
   N24        1.0     0.447924     0.426925     0.620780    Uiso  ? N
   N25        1.0     0.225090     0.876038     0.354818    Uiso  ? N
   N26        1.0     0.118985     0.755865     0.127740    Uiso  ? N
   N27        1.0     0.882910     0.866545     0.885403    Uiso  ? N
   N28        1.0     0.758087     0.776283     0.629345    Uiso  ? N
   N29        1.0     0.554582     0.874219     0.369456    Uiso  ? N
   N30        1.0     0.440889     0.772658     0.105914    Uiso  ? N
   N31        1.0     0.225495     0.864568     0.824225    Uiso  ? N
   N32        1.0     0.122545     0.755054     0.592736    Uiso  ? N
   N33        1.0     0.889045     0.868250     0.355354    Uiso  ? N
   N34        1.0     0.775270     0.758143     0.125366    Uiso  ? N
   N35        1.0     0.556658     0.889094     0.879281    Uiso  ? N
   N36        1.0     0.450912     0.755853     0.598592    Uiso  ? N
