
#======================================================================
# CRYSTAL DATA
#----------------------------------------------------------------------
data_VESTA_phase_1

_chemical_name_common                  'Al   Hf   Mg   N                      '
_cell_length_a                         9.741479
_cell_length_b                         9.775040
_cell_length_c                         10.104800
_cell_angle_alpha                      89.978249
_cell_angle_beta                       89.813126
_cell_angle_gamma                      60.151009
_cell_volume                           834.560588
_space_group_name_H-M_alt              'P 1'
_space_group_IT_number                 1

loop_
_space_group_symop_operation_xyz
   'x, y, z'

loop_
   _atom_site_label
   _atom_site_occupancy
   _atom_site_fract_x
   _atom_site_fract_y
   _atom_site_fract_z
   _atom_site_adp_type
   _atom_site_U_iso_or_equiv
   _atom_site_type_symbol
   Al1        1.0     0.108859     0.091915     0.355149    Uiso  ? Al
   Al2        1.0     0.872450     0.211745     0.571874    Uiso  ? Al
   Al3        1.0     0.454504     0.088957     0.326676    Uiso  ? Al
   Al4        1.0     0.562068     0.196710     0.071904    Uiso  ? Al
   Al5        1.0     0.230836     0.202895     0.575893    Uiso  ? Al
   Al6        1.0     0.776581     0.090413     0.324662    Uiso  ? Al
   Al7        1.0     0.453826     0.097226     0.816640    Uiso  ? Al
   Al8        1.0     0.558265     0.206265     0.571669    Uiso  ? Al
   Al9        1.0     0.216912     0.545399     0.068335    Uiso  ? Al
   Al10       1.0     0.780466     0.422931     0.814994    Uiso  ? Al
   Al11       1.0     0.443763     0.421831     0.325643    Uiso  ? Al
   Al12       1.0     0.110927     0.436001     0.810193    Uiso  ? Al
   Al13       1.0     0.229391     0.544656     0.576182    Uiso  ? Al
   Al14       1.0     0.779963     0.428959     0.325410    Uiso  ? Al
   Al15       1.0     0.884513     0.548719     0.068134    Uiso  ? Al
   Al16       1.0     0.442079     0.417803     0.820897    Uiso  ? Al
   Al17       1.0     0.556528     0.530701     0.562207    Uiso  ? Al
   Al18       1.0     0.107845     0.767237     0.322402    Uiso  ? Al
   Al19       1.0     0.224330     0.867610     0.078664    Uiso  ? Al
   Al20       1.0     0.780040     0.768713     0.825623    Uiso  ? Al
   Al21       1.0     0.443793     0.767482     0.329868    Uiso  ? Al
   Al22       1.0     0.562001     0.874831     0.078080    Uiso  ? Al
   Al23       1.0     0.221091     0.863215     0.564416    Uiso  ? Al
   Al24       1.0     0.774623     0.766551     0.318727    Uiso  ? Al
   Al25       1.0     0.886090     0.874313     0.075372    Uiso  ? Al
   Al26       1.0     0.560176     0.875662     0.567007    Uiso  ? Al
   Hf1        1.0     0.227812     0.212216     0.073928    Uiso  ? Hf
   Hf2        1.0     0.108101     0.090393     0.824068    Uiso  ? Hf
   Hf3        1.0     0.103782     0.437991     0.346185    Uiso  ? Hf
   Hf4        1.0     0.556524     0.533771     0.090678    Uiso  ? Hf
   Hf5        1.0     0.460077     0.752992     0.813794    Uiso  ? Hf
   Mg1        1.0     0.771852     0.091417     0.820289    Uiso  ? Mg
   Mg2        1.0     0.886192     0.201941     0.076779    Uiso  ? Mg
   Mg3        1.0     0.874001     0.550291     0.585327    Uiso  ? Mg
   Mg4        1.0     0.885783     0.872431     0.574106    Uiso  ? Mg
   Mg5        1.0     0.106970     0.752827     0.822133    Uiso  ? Mg
   N1         1.0     0.232228     0.191343     0.378261    Uiso  ? N
   N2         1.0     0.123735     0.082877     0.106600    Uiso  ? N
   N3         1.0     0.880852     0.218290     0.872438    Uiso  ? N
   N4         1.0     0.767951     0.106768     0.616428    Uiso  ? N
   N5         1.0     0.551150     0.207490     0.381446    Uiso  ? N
   N6         1.0     0.459822     0.085683     0.138526    Uiso  ? N
   N7         1.0     0.227844     0.214540     0.864311    Uiso  ? N
   N8         1.0     0.111762     0.093288     0.609772    Uiso  ? N
   N9         1.0     0.886962     0.209353     0.377332    Uiso  ? N
   N10        1.0     0.768703     0.089437     0.136573    Uiso  ? N
   N11        1.0     0.540271     0.212021     0.886129    Uiso  ? N
   N12        1.0     0.445837     0.093384     0.627222    Uiso  ? N
   N13        1.0     0.231701     0.550627     0.383612    Uiso  ? N
   N14        1.0     0.097915     0.450578     0.135472    Uiso  ? N
   N15        1.0     0.888715     0.537810     0.874188    Uiso  ? N
   N16        1.0     0.763611     0.425105     0.628213    Uiso  ? N
   N17        1.0     0.553870     0.536845     0.365913    Uiso  ? N
   N18        1.0     0.432470     0.414937     0.136382    Uiso  ? N
   N19        1.0     0.229806     0.521365     0.882538    Uiso  ? N
   N20        1.0     0.125219     0.423110     0.615553    Uiso  ? N
   N21        1.0     0.866310     0.554442     0.378842    Uiso  ? N
   N22        1.0     0.789534     0.434867     0.137405    Uiso  ? N
   N23        1.0     0.562917     0.521384     0.882264    Uiso  ? N
   N24        1.0     0.445718     0.427167     0.628531    Uiso  ? N
   N25        1.0     0.222088     0.873071     0.374308    Uiso  ? N
   N26        1.0     0.116494     0.758863     0.130857    Uiso  ? N
   N27        1.0     0.884504     0.866079     0.891987    Uiso  ? N
   N28        1.0     0.754020     0.774752     0.644542    Uiso  ? N
   N29        1.0     0.556658     0.874568     0.378339    Uiso  ? N
   N30        1.0     0.442416     0.774392     0.135588    Uiso  ? N
   N31        1.0     0.236965     0.856298     0.886434    Uiso  ? N
   N32        1.0     0.124260     0.754850     0.620792    Uiso  ? N
   N33        1.0     0.889461     0.869117     0.364754    Uiso  ? N
   N34        1.0     0.775926     0.760492     0.129170    Uiso  ? N
   N35        1.0     0.555596     0.885920     0.889516    Uiso  ? N
   N36        1.0     0.444754     0.759489     0.606043    Uiso  ? N
