
#======================================================================
# CRYSTAL DATA
#----------------------------------------------------------------------
data_VESTA_phase_1

_chemical_name_common                  'Al   Hf   Mg   N                      '
_cell_length_a                         9.717682
_cell_length_b                         9.726128
_cell_length_c                         10.203189
_cell_angle_alpha                      90.201637
_cell_angle_beta                       90.048798
_cell_angle_gamma                      60.171867
_cell_volume                           836.596048
_space_group_name_H-M_alt              'P 1'
_space_group_IT_number                 1

loop_
_space_group_symop_operation_xyz
   'x, y, z'

loop_
   _atom_site_label
   _atom_site_occupancy
   _atom_site_fract_x
   _atom_site_fract_y
   _atom_site_fract_z
   _atom_site_adp_type
   _atom_site_U_iso_or_equiv
   _atom_site_type_symbol
   Al1        1.0     0.107880     0.092173     0.417640    Uiso  ? Al
   Al2        1.0     0.873390     0.214121     0.646350    Uiso  ? Al
   Al3        1.0     0.451471     0.090121     0.411253    Uiso  ? Al
   Al4        1.0     0.562940     0.196420     0.158906    Uiso  ? Al
   Al5        1.0     0.229480     0.206356     0.658277    Uiso  ? Al
   Al6        1.0     0.778260     0.094929     0.406587    Uiso  ? Al
   Al7        1.0     0.456474     0.096251     0.898345    Uiso  ? Al
   Al8        1.0     0.557501     0.206299     0.654098    Uiso  ? Al
   Al9        1.0     0.220160     0.546531     0.154011    Uiso  ? Al
   Al10       1.0     0.781458     0.428842     0.901068    Uiso  ? Al
   Al11       1.0     0.446580     0.425035     0.413147    Uiso  ? Al
   Al12       1.0     0.105947     0.441151     0.900840    Uiso  ? Al
   Al13       1.0     0.227421     0.540397     0.659485    Uiso  ? Al
   Al14       1.0     0.776634     0.426829     0.413631    Uiso  ? Al
   Al15       1.0     0.880993     0.549456     0.148663    Uiso  ? Al
   Al16       1.0     0.440439     0.416791     0.898299    Uiso  ? Al
   Al17       1.0     0.558166     0.531838     0.650332    Uiso  ? Al
   Al18       1.0     0.111027     0.764817     0.404927    Uiso  ? Al
   Al19       1.0     0.217305     0.871001     0.166111    Uiso  ? Al
   Al20       1.0     0.785611     0.764375     0.907844    Uiso  ? Al
   Al21       1.0     0.445630     0.765066     0.413732    Uiso  ? Al
   Al22       1.0     0.563459     0.873179     0.159198    Uiso  ? Al
   Al23       1.0     0.223070     0.864166     0.643179    Uiso  ? Al
   Al24       1.0     0.771226     0.769300     0.406071    Uiso  ? Al
   Al25       1.0     0.887777     0.875470     0.156460    Uiso  ? Al
   Al26       1.0     0.562618     0.874916     0.649094    Uiso  ? Al
   Hf1        1.0     0.226821     0.202280     0.143850    Uiso  ? Hf
   Hf2        1.0     0.101027     0.094486     0.885075    Uiso  ? Hf
   Hf3        1.0     0.106912     0.434041     0.404781    Uiso  ? Hf
   Hf4        1.0     0.555674     0.533387     0.153736    Uiso  ? Hf
   Hf5        1.0     0.448772     0.761056     0.892389    Uiso  ? Hf
   Mg1        1.0     0.770034     0.093177     0.906548    Uiso  ? Mg
   Mg2        1.0     0.887793     0.200360     0.162252    Uiso  ? Mg
   Mg3        1.0     0.880452     0.548461     0.660027    Uiso  ? Mg
   Mg4        1.0     0.887075     0.873344     0.654730    Uiso  ? Mg
   Mg5        1.0     0.105359     0.755085     0.907911    Uiso  ? Mg
   N1         1.0     0.228847     0.191639     0.350808    Uiso  ? N
   N2         1.0     0.118784     0.075877     0.090640    Uiso  ? N
   N3         1.0     0.871662     0.225055     0.833904    Uiso  ? N
   N4         1.0     0.766566     0.109143     0.590424    Uiso  ? N
   N5         1.0     0.549547     0.208182     0.348646    Uiso  ? N
   N6         1.0     0.462162     0.083227     0.089936    Uiso  ? N
   N7         1.0     0.228908     0.213307     0.855697    Uiso  ? N
   N8         1.0     0.112883     0.095522     0.609580    Uiso  ? N
   N9         1.0     0.893483     0.207249     0.364588    Uiso  ? N
   N10        1.0     0.770733     0.089123     0.111440    Uiso  ? N
   N11        1.0     0.542948     0.212146     0.837684    Uiso  ? N
   N12        1.0     0.443006     0.095268     0.597288    Uiso  ? N
   N13        1.0     0.233534     0.543273     0.342843    Uiso  ? N
   N14        1.0     0.102948     0.445034     0.100962    Uiso  ? N
   N15        1.0     0.886621     0.542455     0.863256    Uiso  ? N
   N16        1.0     0.768786     0.427786     0.595495    Uiso  ? N
   N17        1.0     0.553613     0.540214     0.357948    Uiso  ? N
   N18        1.0     0.436419     0.414816     0.092249    Uiso  ? N
   N19        1.0     0.229557     0.526564     0.844723    Uiso  ? N
   N20        1.0     0.125797     0.420572     0.603818    Uiso  ? N
   N21        1.0     0.870353     0.548096     0.340462    Uiso  ? N
   N22        1.0     0.784383     0.432342     0.090247    Uiso  ? N
   N23        1.0     0.560702     0.522229     0.847984    Uiso  ? N
   N24        1.0     0.444011     0.427616     0.598066    Uiso  ? N
   N25        1.0     0.224799     0.875837     0.355261    Uiso  ? N
   N26        1.0     0.114386     0.761646     0.114522    Uiso  ? N
   N27        1.0     0.884351     0.867255     0.853068    Uiso  ? N
   N28        1.0     0.763319     0.768555     0.584359    Uiso  ? N
   N29        1.0     0.550613     0.876363     0.345836    Uiso  ? N
   N30        1.0     0.437933     0.774602     0.101694    Uiso  ? N
   N31        1.0     0.223440     0.862681     0.828178    Uiso  ? N
   N32        1.0     0.127941     0.748367     0.588078    Uiso  ? N
   N33        1.0     0.890355     0.870985     0.348775    Uiso  ? N
   N34        1.0     0.774685     0.764159     0.100794    Uiso  ? N
   N35        1.0     0.563903     0.881644     0.839835    Uiso  ? N
   N36        1.0     0.447768     0.760165     0.604267    Uiso  ? N
