
#======================================================================
# CRYSTAL DATA
#----------------------------------------------------------------------
data_VESTA_phase_1

_chemical_name_common                  'Al   Hf   Mg   N                      '
_cell_length_a                         10.264258
_cell_length_b                         10.274908
_cell_length_c                         8.678207
_cell_angle_alpha                      90.110374
_cell_angle_beta                       90.025284
_cell_angle_gamma                      60.102512
_cell_volume                           793.437982
_space_group_name_H-M_alt              'P 1'
_space_group_IT_number                 1

loop_
_space_group_symop_operation_xyz
   'x, y, z'

loop_
   _atom_site_label
   _atom_site_occupancy
   _atom_site_fract_x
   _atom_site_fract_y
   _atom_site_fract_z
   _atom_site_adp_type
   _atom_site_U_iso_or_equiv
   _atom_site_type_symbol
   Al1        1.0     0.109214     0.093860     0.367658    Uiso  ? Al
   Al2        1.0     0.871476     0.212041     0.594565    Uiso  ? Al
   Al3        1.0     0.449703     0.092628     0.372123    Uiso  ? Al
   Al4        1.0     0.560508     0.197478     0.117988    Uiso  ? Al
   Al5        1.0     0.229706     0.205250     0.607375    Uiso  ? Al
   Al6        1.0     0.779187     0.088465     0.354197    Uiso  ? Al
   Al7        1.0     0.454915     0.094856     0.846727    Uiso  ? Al
   Al8        1.0     0.559031     0.206592     0.610207    Uiso  ? Al
   Al9        1.0     0.222462     0.544577     0.097684    Uiso  ? Al
   Al10       1.0     0.778653     0.427637     0.834110    Uiso  ? Al
   Al11       1.0     0.440371     0.423331     0.368582    Uiso  ? Al
   Al12       1.0     0.107287     0.436551     0.845539    Uiso  ? Al
   Al13       1.0     0.229178     0.542507     0.625329    Uiso  ? Al
   Al14       1.0     0.783625     0.426531     0.361025    Uiso  ? Al
   Al15       1.0     0.879921     0.550529     0.092904    Uiso  ? Al
   Al16       1.0     0.443909     0.415912     0.856228    Uiso  ? Al
   Al17       1.0     0.554795     0.532243     0.592393    Uiso  ? Al
   Al18       1.0     0.109257     0.760787     0.356350    Uiso  ? Al
   Al19       1.0     0.220475     0.868643     0.128310    Uiso  ? Al
   Al20       1.0     0.778639     0.766801     0.835180    Uiso  ? Al
   Al21       1.0     0.444196     0.766538     0.364040    Uiso  ? Al
   Al22       1.0     0.564400     0.872301     0.119312    Uiso  ? Al
   Al23       1.0     0.222911     0.863491     0.594410    Uiso  ? Al
   Al24       1.0     0.777716     0.766074     0.363014    Uiso  ? Al
   Al25       1.0     0.883450     0.872165     0.100850    Uiso  ? Al
   Al26       1.0     0.558521     0.876079     0.597276    Uiso  ? Al
   Hf1        1.0     0.230718     0.203042     0.102126    Uiso  ? Hf
   Hf2        1.0     0.102555     0.095616     0.843637    Uiso  ? Hf
   Hf3        1.0     0.106193     0.439280     0.362212    Uiso  ? Hf
   Hf4        1.0     0.558532     0.530618     0.111576    Uiso  ? Hf
   Hf5        1.0     0.448211     0.762264     0.846351    Uiso  ? Hf
   Mg1        1.0     0.771540     0.092872     0.859063    Uiso  ? Mg
   Mg2        1.0     0.884481     0.203667     0.112377    Uiso  ? Mg
   Mg3        1.0     0.878574     0.546455     0.607586    Uiso  ? Mg
   Mg4        1.0     0.890942     0.875941     0.606973    Uiso  ? Mg
   Mg5        1.0     0.104996     0.759109     0.858488    Uiso  ? Mg
   N1         1.0     0.229060     0.197083     0.355561    Uiso  ? N
   N2         1.0     0.121932     0.078953     0.099326    Uiso  ? N
   N3         1.0     0.876105     0.220046     0.840587    Uiso  ? N
   N4         1.0     0.767780     0.106763     0.583186    Uiso  ? N
   N5         1.0     0.544841     0.209013     0.352598    Uiso  ? N
   N6         1.0     0.461277     0.083418     0.095665    Uiso  ? N
   N7         1.0     0.228266     0.211475     0.847850    Uiso  ? N
   N8         1.0     0.117329     0.094418     0.594681    Uiso  ? N
   N9         1.0     0.895209     0.207702     0.363227    Uiso  ? N
   N10        1.0     0.768815     0.090753     0.121158    Uiso  ? N
   N11        1.0     0.544219     0.210550     0.839644    Uiso  ? N
   N12        1.0     0.443764     0.094303     0.600378    Uiso  ? N
   N13        1.0     0.231598     0.543676     0.340186    Uiso  ? N
   N14        1.0     0.102681     0.442298     0.100200    Uiso  ? N
   N15        1.0     0.885085     0.540997     0.858666    Uiso  ? N
   N16        1.0     0.765578     0.427104     0.600022    Uiso  ? N
   N17        1.0     0.550725     0.539314     0.359732    Uiso  ? N
   N18        1.0     0.440564     0.412649     0.097883    Uiso  ? N
   N19        1.0     0.229878     0.527080     0.855233    Uiso  ? N
   N20        1.0     0.125717     0.423268     0.610149    Uiso  ? N
   N21        1.0     0.875470     0.548950     0.355234    Uiso  ? N
   N22        1.0     0.785483     0.433741     0.114184    Uiso  ? N
   N23        1.0     0.558951     0.525219     0.852480    Uiso  ? N
   N24        1.0     0.443060     0.428595     0.598861    Uiso  ? N
   N25        1.0     0.225216     0.875840     0.356056    Uiso  ? N
   N26        1.0     0.119026     0.759830     0.113734    Uiso  ? N
   N27        1.0     0.882679     0.865889     0.869609    Uiso  ? N
   N28        1.0     0.764027     0.771947     0.600616    Uiso  ? N
   N29        1.0     0.550725     0.877682     0.354117    Uiso  ? N
   N30        1.0     0.440886     0.771916     0.106144    Uiso  ? N
   N31        1.0     0.222582     0.866840     0.831996    Uiso  ? N
   N32        1.0     0.127150     0.749386     0.586661    Uiso  ? N
   N33        1.0     0.892888     0.866769     0.342599    Uiso  ? N
   N34        1.0     0.772643     0.760726     0.114233    Uiso  ? N
   N35        1.0     0.559796     0.882233     0.845166    Uiso  ? N
   N36        1.0     0.449000     0.757906     0.593445    Uiso  ? N
