
#======================================================================
# CRYSTAL DATA
#----------------------------------------------------------------------
data_VESTA_phase_1

_chemical_name_common                  'Al   Hf   Mg   N                      '
_cell_length_a                         9.770283
_cell_length_b                         9.807135
_cell_length_c                         10.090490
_cell_angle_alpha                      89.869919
_cell_angle_beta                       89.794533
_cell_angle_gamma                      60.089443
_cell_volume                           838.069493
_space_group_name_H-M_alt              'P 1'
_space_group_IT_number                 1

loop_
_space_group_symop_operation_xyz
   'x, y, z'

loop_
   _atom_site_label
   _atom_site_occupancy
   _atom_site_fract_x
   _atom_site_fract_y
   _atom_site_fract_z
   _atom_site_adp_type
   _atom_site_U_iso_or_equiv
   _atom_site_type_symbol
   Al1        1.0     0.109232     0.087948     0.400391    Uiso  ? Al
   Al2        1.0     0.868808     0.213336     0.579673    Uiso  ? Al
   Al3        1.0     0.454524     0.089031     0.330368    Uiso  ? Al
   Al4        1.0     0.562498     0.197533     0.075614    Uiso  ? Al
   Al5        1.0     0.231409     0.204552     0.581961    Uiso  ? Al
   Al6        1.0     0.776382     0.090542     0.329149    Uiso  ? Al
   Al7        1.0     0.452979     0.099889     0.822161    Uiso  ? Al
   Al8        1.0     0.557038     0.207030     0.575744    Uiso  ? Al
   Al9        1.0     0.216266     0.547356     0.072923    Uiso  ? Al
   Al10       1.0     0.779929     0.422927     0.819936    Uiso  ? Al
   Al11       1.0     0.443803     0.420384     0.328173    Uiso  ? Al
   Al12       1.0     0.111002     0.437333     0.815415    Uiso  ? Al
   Al13       1.0     0.229460     0.542250     0.578116    Uiso  ? Al
   Al14       1.0     0.781257     0.426806     0.329120    Uiso  ? Al
   Al15       1.0     0.884361     0.548776     0.072419    Uiso  ? Al
   Al16       1.0     0.441540     0.419857     0.825749    Uiso  ? Al
   Al17       1.0     0.557585     0.526604     0.564420    Uiso  ? Al
   Al18       1.0     0.104782     0.764789     0.334920    Uiso  ? Al
   Al19       1.0     0.221869     0.875304     0.146880    Uiso  ? Al
   Al20       1.0     0.780730     0.770900     0.831673    Uiso  ? Al
   Al21       1.0     0.446878     0.763811     0.351979    Uiso  ? Al
   Al22       1.0     0.561801     0.874633     0.081566    Uiso  ? Al
   Al23       1.0     0.221364     0.862204     0.621451    Uiso  ? Al
   Al24       1.0     0.774124     0.766137     0.321189    Uiso  ? Al
   Al25       1.0     0.887930     0.873937     0.080205    Uiso  ? Al
   Al26       1.0     0.560990     0.878535     0.568958    Uiso  ? Al
   Hf1        1.0     0.229551     0.211569     0.080656    Uiso  ? Hf
   Hf2        1.0     0.109299     0.092259     0.849289    Uiso  ? Hf
   Hf3        1.0     0.102798     0.436661     0.349846    Uiso  ? Hf
   Hf4        1.0     0.555592     0.535893     0.094466    Uiso  ? Hf
   Hf5        1.0     0.476081     0.748846     0.808581    Uiso  ? Hf
   Mg1        1.0     0.770843     0.092487     0.824551    Uiso  ? Mg
   Mg2        1.0     0.885620     0.201765     0.081136    Uiso  ? Mg
   Mg3        1.0     0.873412     0.550454     0.589954    Uiso  ? Mg
   Mg4        1.0     0.881486     0.873932     0.577001    Uiso  ? Mg
   Mg5        1.0     0.105130     0.751198     0.823627    Uiso  ? Mg
   N1         1.0     0.231704     0.190341     0.380296    Uiso  ? N
   N2         1.0     0.129858     0.073228     0.071179    Uiso  ? N
   N3         1.0     0.876239     0.219816     0.873976    Uiso  ? N
   N4         1.0     0.765973     0.106920     0.620650    Uiso  ? N
   N5         1.0     0.550628     0.207145     0.385353    Uiso  ? N
   N6         1.0     0.460911     0.085553     0.142423    Uiso  ? N
   N7         1.0     0.229087     0.219526     0.870792    Uiso  ? N
   N8         1.0     0.110717     0.094508     0.603278    Uiso  ? N
   N9         1.0     0.886590     0.208433     0.382819    Uiso  ? N
   N10        1.0     0.769189     0.089428     0.140769    Uiso  ? N
   N11        1.0     0.540027     0.213840     0.890012    Uiso  ? N
   N12        1.0     0.445187     0.093985     0.631865    Uiso  ? N
   N13        1.0     0.232590     0.546836     0.386477    Uiso  ? N
   N14        1.0     0.097831     0.450150     0.139063    Uiso  ? N
   N15        1.0     0.887738     0.539175     0.878115    Uiso  ? N
   N16        1.0     0.762569     0.426156     0.632944    Uiso  ? N
   N17        1.0     0.555344     0.532772     0.369645    Uiso  ? N
   N18        1.0     0.432282     0.415644     0.139348    Uiso  ? N
   N19        1.0     0.229094     0.523609     0.886510    Uiso  ? N
   N20        1.0     0.124644     0.422779     0.619917    Uiso  ? N
   N21        1.0     0.865359     0.554352     0.382854    Uiso  ? N
   N22        1.0     0.790555     0.433782     0.140853    Uiso  ? N
   N23        1.0     0.561556     0.522866     0.885577    Uiso  ? N
   N24        1.0     0.444764     0.427253     0.632576    Uiso  ? N
   N25        1.0     0.219262     0.878872     0.344672    Uiso  ? N
   N26        1.0     0.114595     0.758342     0.136899    Uiso  ? N
   N27        1.0     0.885670     0.867464     0.896086    Uiso  ? N
   N28        1.0     0.751387     0.774537     0.650685    Uiso  ? N
   N29        1.0     0.557980     0.875802     0.381847    Uiso  ? N
   N30        1.0     0.445744     0.773376     0.136426    Uiso  ? N
   N31        1.0     0.241902     0.854876     0.817873    Uiso  ? N
   N32        1.0     0.117507     0.752270     0.613948    Uiso  ? N
   N33        1.0     0.885881     0.869808     0.369035    Uiso  ? N
   N34        1.0     0.776292     0.760536     0.131983    Uiso  ? N
   N35        1.0     0.556129     0.889990     0.893787    Uiso  ? N
   N36        1.0     0.448703     0.756459     0.595080    Uiso  ? N
