
#======================================================================
# CRYSTAL DATA
#----------------------------------------------------------------------
data_VESTA_phase_1

_chemical_name_common                  'Al   Hf   Mg   N                      '
_cell_length_a                         10.167513
_cell_length_b                         10.191416
_cell_length_c                         8.926685
_cell_angle_alpha                      90.047752
_cell_angle_beta                       89.975204
_cell_angle_gamma                      60.051308
_cell_volume                           801.482517
_space_group_name_H-M_alt              'P 1'
_space_group_IT_number                 1

loop_
_space_group_symop_operation_xyz
   'x, y, z'

loop_
   _atom_site_label
   _atom_site_occupancy
   _atom_site_fract_x
   _atom_site_fract_y
   _atom_site_fract_z
   _atom_site_adp_type
   _atom_site_U_iso_or_equiv
   _atom_site_type_symbol
   Al1        1.0     0.108693     0.092815     0.371813    Uiso  ? Al
   Al2        1.0     0.874254     0.210927     0.591896    Uiso  ? Al
   Al3        1.0     0.454050     0.090940     0.347744    Uiso  ? Al
   Al4        1.0     0.560040     0.198268     0.083513    Uiso  ? Al
   Al5        1.0     0.230255     0.202497     0.593845    Uiso  ? Al
   Al6        1.0     0.775647     0.090922     0.350951    Uiso  ? Al
   Al7        1.0     0.451463     0.096582     0.827182    Uiso  ? Al
   Al8        1.0     0.559271     0.205998     0.589129    Uiso  ? Al
   Al9        1.0     0.221184     0.543580     0.079611    Uiso  ? Al
   Al10       1.0     0.776849     0.427290     0.824506    Uiso  ? Al
   Al11       1.0     0.440639     0.419764     0.346768    Uiso  ? Al
   Al12       1.0     0.111064     0.433419     0.829797    Uiso  ? Al
   Al13       1.0     0.230091     0.543253     0.600431    Uiso  ? Al
   Al14       1.0     0.784617     0.427239     0.355282    Uiso  ? Al
   Al15       1.0     0.882578     0.549504     0.082547    Uiso  ? Al
   Al16       1.0     0.444251     0.418441     0.830683    Uiso  ? Al
   Al17       1.0     0.554671     0.532520     0.578695    Uiso  ? Al
   Al18       1.0     0.108834     0.762241     0.358416    Uiso  ? Al
   Al19       1.0     0.220777     0.867563     0.131598    Uiso  ? Al
   Al20       1.0     0.776186     0.771062     0.829264    Uiso  ? Al
   Al21       1.0     0.444442     0.765774     0.359638    Uiso  ? Al
   Al22       1.0     0.564808     0.873708     0.100105    Uiso  ? Al
   Al23       1.0     0.223596     0.865008     0.598278    Uiso  ? Al
   Al24       1.0     0.777176     0.765109     0.346196    Uiso  ? Al
   Al25       1.0     0.884806     0.872618     0.098206    Uiso  ? Al
   Al26       1.0     0.557941     0.875498     0.577927    Uiso  ? Al
   Hf1        1.0     0.228678     0.205643     0.103468    Uiso  ? Hf
   Hf2        1.0     0.104495     0.096269     0.846123    Uiso  ? Hf
   Hf3        1.0     0.103382     0.440563     0.362795    Uiso  ? Hf
   Hf4        1.0     0.559407     0.529507     0.111399    Uiso  ? Hf
   Hf5        1.0     0.451385     0.760033     0.845849    Uiso  ? Hf
   Mg1        1.0     0.773368     0.091749     0.844303    Uiso  ? Mg
   Mg2        1.0     0.884485     0.203182     0.110243    Uiso  ? Mg
   Mg3        1.0     0.875968     0.549285     0.606204    Uiso  ? Mg
   Mg4        1.0     0.888371     0.875542     0.597694    Uiso  ? Mg
   Mg5        1.0     0.104742     0.757833     0.846097    Uiso  ? Mg
   N1         1.0     0.228140     0.195481     0.359164    Uiso  ? N
   N2         1.0     0.122521     0.077577     0.096581    Uiso  ? N
   N3         1.0     0.876876     0.220918     0.846268    Uiso  ? N
   N4         1.0     0.769697     0.106061     0.593084    Uiso  ? N
   N5         1.0     0.548266     0.207893     0.373776    Uiso  ? N
   N6         1.0     0.460243     0.086250     0.126407    Uiso  ? N
   N7         1.0     0.229688     0.212740     0.857050    Uiso  ? N
   N8         1.0     0.116167     0.094434     0.597505    Uiso  ? N
   N9         1.0     0.893794     0.206741     0.366484    Uiso  ? N
   N10        1.0     0.766376     0.091811     0.126836    Uiso  ? N
   N11        1.0     0.541044     0.211602     0.864365    Uiso  ? N
   N12        1.0     0.444788     0.092155     0.609425    Uiso  ? N
   N13        1.0     0.230993     0.545011     0.372607    Uiso  ? N
   N14        1.0     0.101854     0.446002     0.114320    Uiso  ? N
   N15        1.0     0.886169     0.539614     0.859910    Uiso  ? N
   N16        1.0     0.764490     0.426562     0.604298    Uiso  ? N
   N17        1.0     0.550212     0.539161     0.359932    Uiso  ? N
   N18        1.0     0.435334     0.413841     0.124050    Uiso  ? N
   N19        1.0     0.230851     0.525118     0.859793    Uiso  ? N
   N20        1.0     0.126816     0.419805     0.610582    Uiso  ? N
   N21        1.0     0.872930     0.551751     0.369798    Uiso  ? N
   N22        1.0     0.788712     0.434735     0.127883    Uiso  ? N
   N23        1.0     0.560571     0.522472     0.866018    Uiso  ? N
   N24        1.0     0.447112     0.427178     0.612658    Uiso  ? N
   N25        1.0     0.224994     0.875640     0.356685    Uiso  ? N
   N26        1.0     0.120360     0.755650     0.120635    Uiso  ? N
   N27        1.0     0.882674     0.865557     0.877685    Uiso  ? N
   N28        1.0     0.759213     0.775359     0.615642    Uiso  ? N
   N29        1.0     0.552665     0.874597     0.361053    Uiso  ? N
   N30        1.0     0.441100     0.770915     0.108028    Uiso  ? N
   N31        1.0     0.224924     0.865674     0.831372    Uiso  ? N
   N32        1.0     0.123660     0.755082     0.592033    Uiso  ? N
   N33        1.0     0.891040     0.868489     0.348711    Uiso  ? N
   N34        1.0     0.775325     0.758563     0.124194    Uiso  ? N
   N35        1.0     0.558095     0.886997     0.874203    Uiso  ? N
   N36        1.0     0.450096     0.757480     0.597038    Uiso  ? N
