
#======================================================================
# CRYSTAL DATA
#----------------------------------------------------------------------
data_VESTA_phase_1

_chemical_name_common                  'Al   Hf   Mg   N                      '
_cell_length_a                         10.278926
_cell_length_b                         10.290174
_cell_length_c                         8.638881
_cell_angle_alpha                      90.071297
_cell_angle_beta                       89.990509
_cell_angle_gamma                      60.058083
_cell_volume                           791.793540
_space_group_name_H-M_alt              'P 1'
_space_group_IT_number                 1

loop_
_space_group_symop_operation_xyz
   'x, y, z'

loop_
   _atom_site_label
   _atom_site_occupancy
   _atom_site_fract_x
   _atom_site_fract_y
   _atom_site_fract_z
   _atom_site_adp_type
   _atom_site_U_iso_or_equiv
   _atom_site_type_symbol
   Al1        1.0     0.108521     0.093135     0.364509    Uiso  ? Al
   Al2        1.0     0.872074     0.211975     0.595234    Uiso  ? Al
   Al3        1.0     0.452166     0.092069     0.358844    Uiso  ? Al
   Al4        1.0     0.560640     0.197954     0.098201    Uiso  ? Al
   Al5        1.0     0.229620     0.203946     0.601535    Uiso  ? Al
   Al6        1.0     0.777147     0.089845     0.353500    Uiso  ? Al
   Al7        1.0     0.453098     0.095269     0.834927    Uiso  ? Al
   Al8        1.0     0.559814     0.205602     0.599525    Uiso  ? Al
   Al9        1.0     0.222498     0.544247     0.092725    Uiso  ? Al
   Al10       1.0     0.779277     0.427638     0.836321    Uiso  ? Al
   Al11       1.0     0.441467     0.421558     0.360729    Uiso  ? Al
   Al12       1.0     0.108149     0.436375     0.843120    Uiso  ? Al
   Al13       1.0     0.228568     0.543207     0.615514    Uiso  ? Al
   Al14       1.0     0.783492     0.426370     0.361292    Uiso  ? Al
   Al15       1.0     0.880136     0.550759     0.093293    Uiso  ? Al
   Al16       1.0     0.443169     0.417599     0.843365    Uiso  ? Al
   Al17       1.0     0.555283     0.532134     0.591396    Uiso  ? Al
   Al18       1.0     0.108946     0.761913     0.356541    Uiso  ? Al
   Al19       1.0     0.220429     0.867714     0.124692    Uiso  ? Al
   Al20       1.0     0.778026     0.767836     0.834561    Uiso  ? Al
   Al21       1.0     0.443762     0.766370     0.359914    Uiso  ? Al
   Al22       1.0     0.565035     0.872717     0.111055    Uiso  ? Al
   Al23       1.0     0.222915     0.864618     0.593524    Uiso  ? Al
   Al24       1.0     0.777505     0.765895     0.358759    Uiso  ? Al
   Al25       1.0     0.883600     0.872492     0.100632    Uiso  ? Al
   Al26       1.0     0.557736     0.875600     0.586918    Uiso  ? Al
   Hf1        1.0     0.230538     0.203817     0.103007    Uiso  ? Hf
   Hf2        1.0     0.103455     0.095842     0.844410    Uiso  ? Hf
   Hf3        1.0     0.105048     0.439837     0.362726    Uiso  ? Hf
   Hf4        1.0     0.558359     0.529838     0.111499    Uiso  ? Hf
   Hf5        1.0     0.449156     0.762469     0.846778    Uiso  ? Hf
   Mg1        1.0     0.773324     0.091778     0.853016    Uiso  ? Mg
   Mg2        1.0     0.883574     0.203703     0.111476    Uiso  ? Mg
   Mg3        1.0     0.877236     0.547098     0.608163    Uiso  ? Mg
   Mg4        1.0     0.890350     0.875491     0.605443    Uiso  ? Mg
   Mg5        1.0     0.105240     0.758422     0.854266    Uiso  ? Mg
   N1         1.0     0.228026     0.197774     0.358731    Uiso  ? N
   N2         1.0     0.121701     0.079588     0.102635    Uiso  ? N
   N3         1.0     0.877271     0.220134     0.842407    Uiso  ? N
   N4         1.0     0.769209     0.106137     0.588578    Uiso  ? N
   N5         1.0     0.547909     0.208240     0.363067    Uiso  ? N
   N6         1.0     0.460013     0.085282     0.114225    Uiso  ? N
   N7         1.0     0.229706     0.210464     0.849286    Uiso  ? N
   N8         1.0     0.117664     0.092972     0.594907    Uiso  ? N
   N9         1.0     0.894156     0.207660     0.363905    Uiso  ? N
   N10        1.0     0.768023     0.091106     0.121173    Uiso  ? N
   N11        1.0     0.542920     0.210405     0.852929    Uiso  ? N
   N12        1.0     0.444705     0.092811     0.602868    Uiso  ? N
   N13        1.0     0.230619     0.544283     0.353372    Uiso  ? N
   N14        1.0     0.103299     0.442895     0.102052    Uiso  ? N
   N15        1.0     0.885282     0.541491     0.859691    Uiso  ? N
   N16        1.0     0.765708     0.426920     0.601317    Uiso  ? N
   N17        1.0     0.550868     0.539237     0.361154    Uiso  ? N
   N18        1.0     0.438593     0.413865     0.109820    Uiso  ? N
   N19        1.0     0.230495     0.526510     0.855488    Uiso  ? N
   N20        1.0     0.124909     0.422347     0.611513    Uiso  ? N
   N21        1.0     0.874790     0.548927     0.356275    Uiso  ? N
   N22        1.0     0.785534     0.433963     0.113849    Uiso  ? N
   N23        1.0     0.558692     0.525290     0.853693    Uiso  ? N
   N24        1.0     0.444591     0.427562     0.604450    Uiso  ? N
   N25        1.0     0.225063     0.875280     0.355780    Uiso  ? N
   N26        1.0     0.119571     0.757839     0.115706    Uiso  ? N
   N27        1.0     0.883119     0.865225     0.870283    Uiso  ? N
   N28        1.0     0.761871     0.772812     0.603590    Uiso  ? N
   N29        1.0     0.551336     0.875869     0.355594    Uiso  ? N
   N30        1.0     0.441418     0.770394     0.108685    Uiso  ? N
   N31        1.0     0.223513     0.866881     0.838867    Uiso  ? N
   N32        1.0     0.126230     0.752238     0.590036    Uiso  ? N
   N33        1.0     0.892345     0.867677     0.344493    Uiso  ? N
   N34        1.0     0.773846     0.760552     0.117882    Uiso  ? N
   N35        1.0     0.559375     0.884241     0.860314    Uiso  ? N
   N36        1.0     0.448534     0.759060     0.594521    Uiso  ? N
