
#======================================================================
# CRYSTAL DATA
#----------------------------------------------------------------------
data_VESTA_phase_1

_chemical_name_common                  'Al   Hf   Mg   N                      '
_cell_length_a                         9.717676
_cell_length_b                         9.726123
_cell_length_c                         10.203206
_cell_angle_alpha                      90.201622
_cell_angle_beta                       90.048813
_cell_angle_gamma                      60.171871
_cell_volume                           836.596586
_space_group_name_H-M_alt              'P 1'
_space_group_IT_number                 1

loop_
_space_group_symop_operation_xyz
   'x, y, z'

loop_
   _atom_site_label
   _atom_site_occupancy
   _atom_site_fract_x
   _atom_site_fract_y
   _atom_site_fract_z
   _atom_site_adp_type
   _atom_site_U_iso_or_equiv
   _atom_site_type_symbol
   Al1        1.0     0.107932     0.092081     0.406492    Uiso  ? Al
   Al2        1.0     0.873443     0.214028     0.635207    Uiso  ? Al
   Al3        1.0     0.451525     0.090029     0.400106    Uiso  ? Al
   Al4        1.0     0.562993     0.196328     0.147755    Uiso  ? Al
   Al5        1.0     0.229532     0.206265     0.647127    Uiso  ? Al
   Al6        1.0     0.778313     0.094837     0.395440    Uiso  ? Al
   Al7        1.0     0.456526     0.096158     0.887193    Uiso  ? Al
   Al8        1.0     0.557555     0.206206     0.642953    Uiso  ? Al
   Al9        1.0     0.220214     0.546439     0.142867    Uiso  ? Al
   Al10       1.0     0.781511     0.428750     0.889918    Uiso  ? Al
   Al11       1.0     0.446634     0.424942     0.402003    Uiso  ? Al
   Al12       1.0     0.106001     0.441059     0.889694    Uiso  ? Al
   Al13       1.0     0.227473     0.540304     0.648334    Uiso  ? Al
   Al14       1.0     0.776688     0.426737     0.402487    Uiso  ? Al
   Al15       1.0     0.881045     0.549363     0.137512    Uiso  ? Al
   Al16       1.0     0.440491     0.416701     0.887148    Uiso  ? Al
   Al17       1.0     0.558218     0.531747     0.639183    Uiso  ? Al
   Al18       1.0     0.111079     0.764726     0.393781    Uiso  ? Al
   Al19       1.0     0.217357     0.870908     0.154960    Uiso  ? Al
   Al20       1.0     0.785664     0.764282     0.896690    Uiso  ? Al
   Al21       1.0     0.445683     0.764974     0.402580    Uiso  ? Al
   Al22       1.0     0.563513     0.873087     0.148046    Uiso  ? Al
   Al23       1.0     0.223124     0.864074     0.632026    Uiso  ? Al
   Al24       1.0     0.771279     0.769208     0.394923    Uiso  ? Al
   Al25       1.0     0.887830     0.875377     0.145309    Uiso  ? Al
   Al26       1.0     0.562669     0.874823     0.637941    Uiso  ? Al
   Hf1        1.0     0.226875     0.202186     0.132702    Uiso  ? Hf
   Hf2        1.0     0.101082     0.094392     0.873926    Uiso  ? Hf
   Hf3        1.0     0.106964     0.433949     0.393630    Uiso  ? Hf
   Hf4        1.0     0.555728     0.533293     0.142589    Uiso  ? Hf
   Hf5        1.0     0.448826     0.760964     0.881241    Uiso  ? Hf
   Mg1        1.0     0.770087     0.093084     0.895401    Uiso  ? Mg
   Mg2        1.0     0.887846     0.200268     0.151103    Uiso  ? Mg
   Mg3        1.0     0.880507     0.548368     0.648879    Uiso  ? Mg
   Mg4        1.0     0.887128     0.873252     0.643582    Uiso  ? Mg
   Mg5        1.0     0.105413     0.754991     0.896761    Uiso  ? Mg
   N1         1.0     0.228900     0.191546     0.339659    Uiso  ? N
   N2         1.0     0.118837     0.075784     0.079490    Uiso  ? N
   N3         1.0     0.871715     0.224961     0.822759    Uiso  ? N
   N4         1.0     0.766619     0.109051     0.579277    Uiso  ? N
   N5         1.0     0.549600     0.208090     0.337497    Uiso  ? N
   N6         1.0     0.462215     0.083135     0.078784    Uiso  ? N
   N7         1.0     0.228961     0.213215     0.844547    Uiso  ? N
   N8         1.0     0.112936     0.095430     0.598431    Uiso  ? N
   N9         1.0     0.893535     0.207157     0.353440    Uiso  ? N
   N10        1.0     0.770786     0.089030     0.100291    Uiso  ? N
   N11        1.0     0.543002     0.212053     0.826537    Uiso  ? N
   N12        1.0     0.443059     0.095177     0.586140    Uiso  ? N
   N13        1.0     0.233588     0.543181     0.331697    Uiso  ? N
   N14        1.0     0.103002     0.444941     0.089816    Uiso  ? N
   N15        1.0     0.886676     0.542362     0.852107    Uiso  ? N
   N16        1.0     0.768840     0.427693     0.584350    Uiso  ? N
   N17        1.0     0.553667     0.540120     0.346801    Uiso  ? N
   N18        1.0     0.436471     0.414725     0.081099    Uiso  ? N
   N19        1.0     0.229610     0.526471     0.833572    Uiso  ? N
   N20        1.0     0.125849     0.420480     0.592667    Uiso  ? N
   N21        1.0     0.870404     0.548005     0.329312    Uiso  ? N
   N22        1.0     0.784436     0.432250     0.079097    Uiso  ? N
   N23        1.0     0.560755     0.522137     0.836833    Uiso  ? N
   N24        1.0     0.444064     0.427523     0.586920    Uiso  ? N
   N25        1.0     0.224851     0.875745     0.344111    Uiso  ? N
   N26        1.0     0.114439     0.761552     0.103372    Uiso  ? N
   N27        1.0     0.884405     0.867163     0.841919    Uiso  ? N
   N28        1.0     0.763373     0.768462     0.573210    Uiso  ? N
   N29        1.0     0.550666     0.876271     0.334685    Uiso  ? N
   N30        1.0     0.437987     0.774508     0.090546    Uiso  ? N
   N31        1.0     0.223495     0.862588     0.817026    Uiso  ? N
   N32        1.0     0.127993     0.748275     0.576930    Uiso  ? N
   N33        1.0     0.890407     0.870893     0.337625    Uiso  ? N
   N34        1.0     0.774739     0.764067     0.089642    Uiso  ? N
   N35        1.0     0.563956     0.881551     0.828683    Uiso  ? N
   N36        1.0     0.447821     0.760073     0.593113    Uiso  ? N
