
#======================================================================
# CRYSTAL DATA
#----------------------------------------------------------------------
data_VESTA_phase_1

_chemical_name_common                  'Al   Hf   Mg   N                      '
_cell_length_a                         9.760096
_cell_length_b                         9.789886
_cell_length_c                         10.125944
_cell_angle_alpha                      90.262383
_cell_angle_beta                       89.970963
_cell_angle_gamma                      60.051514
_cell_volume                           838.332452
_space_group_name_H-M_alt              'P 1'
_space_group_IT_number                 1

loop_
_space_group_symop_operation_xyz
   'x, y, z'

loop_
   _atom_site_label
   _atom_site_occupancy
   _atom_site_fract_x
   _atom_site_fract_y
   _atom_site_fract_z
   _atom_site_adp_type
   _atom_site_U_iso_or_equiv
   _atom_site_type_symbol
   Al1        1.0     0.110456     0.091262     0.395375    Uiso  ? Al
   Al2        1.0     0.873460     0.213021     0.616467    Uiso  ? Al
   Al3        1.0     0.450899     0.090077     0.388733    Uiso  ? Al
   Al4        1.0     0.562363     0.193330     0.137299    Uiso  ? Al
   Al5        1.0     0.229675     0.207441     0.637742    Uiso  ? Al
   Al6        1.0     0.777911     0.093216     0.384038    Uiso  ? Al
   Al7        1.0     0.456526     0.095125     0.876192    Uiso  ? Al
   Al8        1.0     0.556659     0.208588     0.631818    Uiso  ? Al
   Al9        1.0     0.219577     0.546015     0.131733    Uiso  ? Al
   Al10       1.0     0.777992     0.428391     0.856536    Uiso  ? Al
   Al11       1.0     0.443759     0.422294     0.382916    Uiso  ? Al
   Al12       1.0     0.103840     0.441818     0.878919    Uiso  ? Al
   Al13       1.0     0.229554     0.540767     0.638218    Uiso  ? Al
   Al14       1.0     0.782611     0.425899     0.378690    Uiso  ? Al
   Al15       1.0     0.883209     0.550246     0.132152    Uiso  ? Al
   Al16       1.0     0.439109     0.413706     0.884407    Uiso  ? Al
   Al17       1.0     0.554167     0.539572     0.572912    Uiso  ? Al
   Al18       1.0     0.110741     0.765365     0.381985    Uiso  ? Al
   Al19       1.0     0.218048     0.870546     0.141586    Uiso  ? Al
   Al20       1.0     0.784460     0.762891     0.885726    Uiso  ? Al
   Al21       1.0     0.442139     0.772631     0.382679    Uiso  ? Al
   Al22       1.0     0.563450     0.873159     0.135863    Uiso  ? Al
   Al23       1.0     0.223146     0.864336     0.620184    Uiso  ? Al
   Al24       1.0     0.772335     0.772362     0.385330    Uiso  ? Al
   Al25       1.0     0.888437     0.874203     0.132338    Uiso  ? Al
   Al26       1.0     0.561403     0.877731     0.627246    Uiso  ? Al
   Hf1        1.0     0.224619     0.202711     0.117173    Uiso  ? Hf
   Hf2        1.0     0.099289     0.094091     0.859697    Uiso  ? Hf
   Hf3        1.0     0.111820     0.431294     0.382935    Uiso  ? Hf
   Hf4        1.0     0.559428     0.529527     0.118786    Uiso  ? Hf
   Hf5        1.0     0.448668     0.759674     0.870959    Uiso  ? Hf
   Mg1        1.0     0.769012     0.092516     0.883952    Uiso  ? Mg
   Mg2        1.0     0.890782     0.194107     0.143249    Uiso  ? Mg
   Mg3        1.0     0.881819     0.552494     0.632154    Uiso  ? Mg
   Mg4        1.0     0.886900     0.874920     0.634225    Uiso  ? Mg
   Mg5        1.0     0.106015     0.754070     0.885294    Uiso  ? Mg
   N1         1.0     0.229474     0.189972     0.326616    Uiso  ? N
   N2         1.0     0.118523     0.074158     0.066424    Uiso  ? N
   N3         1.0     0.870289     0.221869     0.806399    Uiso  ? N
   N4         1.0     0.765077     0.108782     0.568476    Uiso  ? N
   N5         1.0     0.549778     0.205457     0.327286    Uiso  ? N
   N6         1.0     0.461550     0.081973     0.067988    Uiso  ? N
   N7         1.0     0.227282     0.213338     0.836444    Uiso  ? N
   N8         1.0     0.114881     0.095303     0.588501    Uiso  ? N
   N9         1.0     0.895837     0.203388     0.348202    Uiso  ? N
   N10        1.0     0.770464     0.087767     0.090371    Uiso  ? N
   N11        1.0     0.541182     0.212592     0.816379    Uiso  ? N
   N12        1.0     0.441951     0.097053     0.576207    Uiso  ? N
   N13        1.0     0.231386     0.545205     0.321093    Uiso  ? N
   N14        1.0     0.102144     0.446493     0.079143    Uiso  ? N
   N15        1.0     0.884206     0.541124     0.838610    Uiso  ? N
   N16        1.0     0.770583     0.429214     0.572308    Uiso  ? N
   N17        1.0     0.551516     0.542593     0.342507    Uiso  ? N
   N18        1.0     0.434218     0.408054     0.078466    Uiso  ? N
   N19        1.0     0.230265     0.524907     0.824580    Uiso  ? N
   N20        1.0     0.128190     0.420695     0.583591    Uiso  ? N
   N21        1.0     0.876035     0.552211     0.325874    Uiso  ? N
   N22        1.0     0.794140     0.425885     0.097470    Uiso  ? N
   N23        1.0     0.560107     0.519323     0.875489    Uiso  ? N
   N24        1.0     0.443743     0.428066     0.571491    Uiso  ? N
   N25        1.0     0.223031     0.877333     0.331890    Uiso  ? N
   N26        1.0     0.115886     0.760478     0.092558    Uiso  ? N
   N27        1.0     0.884119     0.865294     0.833819    Uiso  ? N
   N28        1.0     0.761738     0.773637     0.564373    Uiso  ? N
   N29        1.0     0.552294     0.877818     0.323548    Uiso  ? N
   N30        1.0     0.438076     0.777388     0.082124    Uiso  ? N
   N31        1.0     0.223458     0.861643     0.806114    Uiso  ? N
   N32        1.0     0.128681     0.748561     0.566790    Uiso  ? N
   N33        1.0     0.890959     0.871723     0.326557    Uiso  ? N
   N34        1.0     0.775473     0.762543     0.079593    Uiso  ? N
   N35        1.0     0.563265     0.880803     0.818574    Uiso  ? N
   N36        1.0     0.446001     0.764869     0.576859    Uiso  ? N
