
#======================================================================
# CRYSTAL DATA
#----------------------------------------------------------------------
data_VESTA_phase_1

_chemical_name_common                  'Al   Hf   Mg   N                      '
_cell_length_a                         10.042070
_cell_length_b                         10.063924
_cell_length_c                         9.306738
_cell_angle_alpha                      90.277435
_cell_angle_beta                       90.204742
_cell_angle_gamma                      60.129745
_cell_volume                           815.604382
_space_group_name_H-M_alt              'P 1'
_space_group_IT_number                 1

loop_
_space_group_symop_operation_xyz
   'x, y, z'

loop_
   _atom_site_label
   _atom_site_occupancy
   _atom_site_fract_x
   _atom_site_fract_y
   _atom_site_fract_z
   _atom_site_adp_type
   _atom_site_U_iso_or_equiv
   _atom_site_type_symbol
   Al1        1.0     0.113822     0.093838     0.389338    Uiso  ? Al
   Al2        1.0     0.870827     0.211020     0.593583    Uiso  ? Al
   Al3        1.0     0.447278     0.091623     0.382802    Uiso  ? Al
   Al4        1.0     0.558139     0.197325     0.134709    Uiso  ? Al
   Al5        1.0     0.233389     0.206857     0.629863    Uiso  ? Al
   Al6        1.0     0.777373     0.087538     0.359592    Uiso  ? Al
   Al7        1.0     0.458903     0.094455     0.869816    Uiso  ? Al
   Al8        1.0     0.558687     0.207348     0.622811    Uiso  ? Al
   Al9        1.0     0.221207     0.545255     0.119001    Uiso  ? Al
   Al10       1.0     0.773358     0.427664     0.811755    Uiso  ? Al
   Al11       1.0     0.439203     0.422995     0.377411    Uiso  ? Al
   Al12       1.0     0.107943     0.436911     0.852557    Uiso  ? Al
   Al13       1.0     0.230077     0.541895     0.633463    Uiso  ? Al
   Al14       1.0     0.784502     0.429581     0.353004    Uiso  ? Al
   Al15       1.0     0.881795     0.546142     0.083633    Uiso  ? Al
   Al16       1.0     0.443010     0.414618     0.875747    Uiso  ? Al
   Al17       1.0     0.553450     0.534895     0.574018    Uiso  ? Al
   Al18       1.0     0.107077     0.762558     0.365843    Uiso  ? Al
   Al19       1.0     0.221298     0.870633     0.138295    Uiso  ? Al
   Al20       1.0     0.777283     0.767331     0.868242    Uiso  ? Al
   Al21       1.0     0.444951     0.769772     0.380080    Uiso  ? Al
   Al22       1.0     0.563787     0.870316     0.131676    Uiso  ? Al
   Al23       1.0     0.222856     0.861336     0.605288    Uiso  ? Al
   Al24       1.0     0.775913     0.770843     0.388185    Uiso  ? Al
   Al25       1.0     0.885379     0.871232     0.108230    Uiso  ? Al
   Al26       1.0     0.559803     0.880910     0.621143    Uiso  ? Al
   Hf1        1.0     0.227967     0.201260     0.101951    Uiso  ? Hf
   Hf2        1.0     0.100375     0.093560     0.843678    Uiso  ? Hf
   Hf3        1.0     0.108052     0.433836     0.366407    Uiso  ? Hf
   Hf4        1.0     0.558675     0.532432     0.112519    Uiso  ? Hf
   Hf5        1.0     0.448353     0.758159     0.849076    Uiso  ? Hf
   Mg1        1.0     0.767907     0.098830     0.882238    Uiso  ? Mg
   Mg2        1.0     0.892020     0.199265     0.130130    Uiso  ? Mg
   Mg3        1.0     0.882070     0.549634     0.609064    Uiso  ? Mg
   Mg4        1.0     0.889689     0.879408     0.632584    Uiso  ? Mg
   Mg5        1.0     0.108511     0.755749     0.878840    Uiso  ? Mg
   N1         1.0     0.230026     0.190210     0.333579    Uiso  ? N
   N2         1.0     0.120466     0.074478     0.074232    Uiso  ? N
   N3         1.0     0.872273     0.218804     0.820693    Uiso  ? N
   N4         1.0     0.764639     0.105990     0.567837    Uiso  ? N
   N5         1.0     0.541876     0.208747     0.337703    Uiso  ? N
   N6         1.0     0.464494     0.080668     0.077491    Uiso  ? N
   N7         1.0     0.229512     0.212734     0.846793    Uiso  ? N
   N8         1.0     0.120877     0.094743     0.597035    Uiso  ? N
   N9         1.0     0.898192     0.206395     0.365396    Uiso  ? N
   N10        1.0     0.768759     0.092541     0.116649    Uiso  ? N
   N11        1.0     0.543437     0.212130     0.824829    Uiso  ? N
   N12        1.0     0.442788     0.096595     0.585675    Uiso  ? N
   N13        1.0     0.231185     0.544400     0.327520    Uiso  ? N
   N14        1.0     0.102047     0.443988     0.096908    Uiso  ? N
   N15        1.0     0.885099     0.535895     0.855808    Uiso  ? N
   N16        1.0     0.763734     0.430380     0.598829    Uiso  ? N
   N17        1.0     0.549134     0.542940     0.353365    Uiso  ? N
   N18        1.0     0.437742     0.411013     0.086512    Uiso  ? N
   N19        1.0     0.230826     0.526625     0.839056    Uiso  ? N
   N20        1.0     0.128754     0.420507     0.597912    Uiso  ? N
   N21        1.0     0.874856     0.554789     0.359697    Uiso  ? N
   N22        1.0     0.789516     0.431406     0.131821    Uiso  ? N
   N23        1.0     0.562455     0.519945     0.866877    Uiso  ? N
   N24        1.0     0.443298     0.428661     0.582626    Uiso  ? N
   N25        1.0     0.225514     0.877564     0.347816    Uiso  ? N
   N26        1.0     0.119266     0.760708     0.105594    Uiso  ? N
   N27        1.0     0.883541     0.870011     0.864245    Uiso  ? N
   N28        1.0     0.763936     0.776864     0.589930    Uiso  ? N
   N29        1.0     0.553512     0.876245     0.337645    Uiso  ? N
   N30        1.0     0.438416     0.775494     0.086709    Uiso  ? N
   N31        1.0     0.221364     0.861834     0.812078    Uiso  ? N
   N32        1.0     0.125317     0.748172     0.572406    Uiso  ? N
   N33        1.0     0.889958     0.865666     0.327054    Uiso  ? N
   N34        1.0     0.770199     0.759958     0.080752    Uiso  ? N
   N35        1.0     0.558248     0.884218     0.827132    Uiso  ? N
   N36        1.0     0.450071     0.758720     0.591933    Uiso  ? N
