
#======================================================================
# CRYSTAL DATA
#----------------------------------------------------------------------
data_VESTA_phase_1

_chemical_name_common                  'Al   Hf   Mg   N                      '
_cell_length_a                         9.706066
_cell_length_b                         9.725969
_cell_length_c                         10.189173
_cell_angle_alpha                      90.256821
_cell_angle_beta                       89.996315
_cell_angle_gamma                      60.147297
_cell_volume                           834.223671
_space_group_name_H-M_alt              'P 1'
_space_group_IT_number                 1

loop_
_space_group_symop_operation_xyz
   'x, y, z'

loop_
   _atom_site_label
   _atom_site_occupancy
   _atom_site_fract_x
   _atom_site_fract_y
   _atom_site_fract_z
   _atom_site_adp_type
   _atom_site_U_iso_or_equiv
   _atom_site_type_symbol
   Al1        1.0     0.109623     0.089503     0.320626    Uiso  ? Al
   Al2        1.0     0.876464     0.210518     0.559265    Uiso  ? Al
   Al3        1.0     0.454472     0.088681     0.321374    Uiso  ? Al
   Al4        1.0     0.560915     0.196253     0.066218    Uiso  ? Al
   Al5        1.0     0.229783     0.202048     0.564918    Uiso  ? Al
   Al6        1.0     0.776689     0.090458     0.318514    Uiso  ? Al
   Al7        1.0     0.451942     0.096774     0.811382    Uiso  ? Al
   Al8        1.0     0.559728     0.205752     0.566709    Uiso  ? Al
   Al9        1.0     0.218092     0.543364     0.062736    Uiso  ? Al
   Al10       1.0     0.781156     0.422963     0.808915    Uiso  ? Al
   Al11       1.0     0.444955     0.422407     0.321706    Uiso  ? Al
   Al12       1.0     0.111393     0.434150     0.805893    Uiso  ? Al
   Al13       1.0     0.229694     0.546149     0.572738    Uiso  ? Al
   Al14       1.0     0.779637     0.429155     0.319767    Uiso  ? Al
   Al15       1.0     0.884569     0.548249     0.062242    Uiso  ? Al
   Al16       1.0     0.442181     0.416826     0.814555    Uiso  ? Al
   Al17       1.0     0.557655     0.531888     0.559233    Uiso  ? Al
   Al18       1.0     0.108899     0.766498     0.315934    Uiso  ? Al
   Al19       1.0     0.221538     0.868983     0.077285    Uiso  ? Al
   Al20       1.0     0.780067     0.767879     0.818861    Uiso  ? Al
   Al21       1.0     0.444634     0.766417     0.323143    Uiso  ? Al
   Al22       1.0     0.562665     0.873300     0.071683    Uiso  ? Al
   Al23       1.0     0.220211     0.867725     0.554284    Uiso  ? Al
   Al24       1.0     0.774861     0.766621     0.314131    Uiso  ? Al
   Al25       1.0     0.884979     0.873664     0.069727    Uiso  ? Al
   Al26       1.0     0.560755     0.875184     0.563198    Uiso  ? Al
   Hf1        1.0     0.224984     0.208425     0.071642    Uiso  ? Hf
   Hf2        1.0     0.104650     0.091747     0.809714    Uiso  ? Hf
   Hf3        1.0     0.105080     0.437968     0.339344    Uiso  ? Hf
   Hf4        1.0     0.557139     0.532324     0.082607    Uiso  ? Hf
   Hf5        1.0     0.452117     0.756272     0.811065    Uiso  ? Hf
   Mg1        1.0     0.772178     0.092454     0.814745    Uiso  ? Mg
   Mg2        1.0     0.886519     0.200326     0.074426    Uiso  ? Mg
   Mg3        1.0     0.876284     0.549677     0.578993    Uiso  ? Mg
   Mg4        1.0     0.888831     0.872683     0.568750    Uiso  ? Mg
   Mg5        1.0     0.105917     0.754624     0.819948    Uiso  ? Mg
   N1         1.0     0.231547     0.191199     0.370535    Uiso  ? N
   N2         1.0     0.121268     0.081483     0.132124    Uiso  ? N
   N3         1.0     0.882888     0.219474     0.873677    Uiso  ? N
   N4         1.0     0.770565     0.108088     0.611909    Uiso  ? N
   N5         1.0     0.551886     0.207063     0.377270    Uiso  ? N
   N6         1.0     0.458250     0.085369     0.133303    Uiso  ? N
   N7         1.0     0.225807     0.211046     0.864513    Uiso  ? N
   N8         1.0     0.110815     0.095173     0.604037    Uiso  ? N
   N9         1.0     0.888248     0.208399     0.368479    Uiso  ? N
   N10        1.0     0.767415     0.088626     0.131835    Uiso  ? N
   N11        1.0     0.539917     0.211277     0.881438    Uiso  ? N
   N12        1.0     0.444516     0.094315     0.622778    Uiso  ? N
   N13        1.0     0.232332     0.551337     0.380869    Uiso  ? N
   N14        1.0     0.099627     0.447812     0.129745    Uiso  ? N
   N15        1.0     0.889051     0.537799     0.869854    Uiso  ? N
   N16        1.0     0.766668     0.423404     0.623409    Uiso  ? N
   N17        1.0     0.554609     0.537583     0.363706    Uiso  ? N
   N18        1.0     0.432908     0.414681     0.133013    Uiso  ? N
   N19        1.0     0.230299     0.521070     0.878148    Uiso  ? N
   N20        1.0     0.126897     0.422199     0.612637    Uiso  ? N
   N21        1.0     0.867557     0.553989     0.373838    Uiso  ? N
   N22        1.0     0.789294     0.435220     0.132923    Uiso  ? N
   N23        1.0     0.562074     0.522305     0.875868    Uiso  ? N
   N24        1.0     0.446780     0.427301     0.624480    Uiso  ? N
   N25        1.0     0.223275     0.872294     0.367913    Uiso  ? N
   N26        1.0     0.115502     0.757473     0.125892    Uiso  ? N
   N27        1.0     0.882623     0.866890     0.888003    Uiso  ? N
   N28        1.0     0.756639     0.775282     0.638922    Uiso  ? N
   N29        1.0     0.556894     0.874075     0.374474    Uiso  ? N
   N30        1.0     0.442340     0.773406     0.129738    Uiso  ? N
   N31        1.0     0.229502     0.866837     0.890906    Uiso  ? N
   N32        1.0     0.127830     0.757636     0.620156    Uiso  ? N
   N33        1.0     0.890848     0.868893     0.360287    Uiso  ? N
   N34        1.0     0.775928     0.759953     0.125193    Uiso  ? N
   N35        1.0     0.555285     0.883697     0.883895    Uiso  ? N
   N36        1.0     0.443719     0.762198     0.604988    Uiso  ? N
