
#======================================================================
# CRYSTAL DATA
#----------------------------------------------------------------------
data_VESTA_phase_1

_chemical_name_common                  'Al   Hf   Mg   N                      '
_cell_length_a                         9.765690
_cell_length_b                         9.798647
_cell_length_c                         10.084674
_cell_angle_alpha                      89.916756
_cell_angle_beta                       89.799965
_cell_angle_gamma                      60.114040
_cell_volume                           836.674972
_space_group_name_H-M_alt              'P 1'
_space_group_IT_number                 1

loop_
_space_group_symop_operation_xyz
   'x, y, z'

loop_
   _atom_site_label
   _atom_site_occupancy
   _atom_site_fract_x
   _atom_site_fract_y
   _atom_site_fract_z
   _atom_site_adp_type
   _atom_site_U_iso_or_equiv
   _atom_site_type_symbol
   Al1        1.0     0.107750     0.092478     0.390438    Uiso  ? Al
   Al2        1.0     0.868006     0.213999     0.575490    Uiso  ? Al
   Al3        1.0     0.454361     0.089350     0.326640    Uiso  ? Al
   Al4        1.0     0.562579     0.196991     0.071695    Uiso  ? Al
   Al5        1.0     0.232451     0.204658     0.578498    Uiso  ? Al
   Al6        1.0     0.776633     0.090515     0.325109    Uiso  ? Al
   Al7        1.0     0.454383     0.097664     0.817210    Uiso  ? Al
   Al8        1.0     0.557606     0.206677     0.571656    Uiso  ? Al
   Al9        1.0     0.216736     0.546450     0.068193    Uiso  ? Al
   Al10       1.0     0.779652     0.422909     0.815683    Uiso  ? Al
   Al11       1.0     0.443955     0.421077     0.324798    Uiso  ? Al
   Al12       1.0     0.110866     0.436997     0.810448    Uiso  ? Al
   Al13       1.0     0.229638     0.542699     0.574900    Uiso  ? Al
   Al14       1.0     0.780749     0.427794     0.325132    Uiso  ? Al
   Al15       1.0     0.884535     0.548502     0.068029    Uiso  ? Al
   Al16       1.0     0.441786     0.419027     0.821613    Uiso  ? Al
   Al17       1.0     0.556822     0.529243     0.560443    Uiso  ? Al
   Al18       1.0     0.105682     0.765571     0.328458    Uiso  ? Al
   Al19       1.0     0.222322     0.872605     0.116709    Uiso  ? Al
   Al20       1.0     0.779812     0.769424     0.826892    Uiso  ? Al
   Al21       1.0     0.446894     0.765654     0.335736    Uiso  ? Al
   Al22       1.0     0.561887     0.875423     0.078184    Uiso  ? Al
   Al23       1.0     0.222737     0.860612     0.580211    Uiso  ? Al
   Al24       1.0     0.774683     0.766234     0.318112    Uiso  ? Al
   Al25       1.0     0.886385     0.874351     0.075417    Uiso  ? Al
   Al26       1.0     0.560844     0.876455     0.565467    Uiso  ? Al
   Hf1        1.0     0.229559     0.212836     0.072151    Uiso  ? Hf
   Hf2        1.0     0.109372     0.090802     0.834786    Uiso  ? Hf
   Hf3        1.0     0.103451     0.436805     0.345559    Uiso  ? Hf
   Hf4        1.0     0.555894     0.534951     0.090586    Uiso  ? Hf
   Hf5        1.0     0.467547     0.750710     0.808355    Uiso  ? Hf
   Mg1        1.0     0.771366     0.091263     0.820572    Uiso  ? Mg
   Mg2        1.0     0.885529     0.202202     0.075204    Uiso  ? Mg
   Mg3        1.0     0.873558     0.550418     0.585647    Uiso  ? Mg
   Mg4        1.0     0.882906     0.873003     0.573944    Uiso  ? Mg
   Mg5        1.0     0.106293     0.752242     0.819370    Uiso  ? Mg
   N1         1.0     0.232424     0.191034     0.378385    Uiso  ? N
   N2         1.0     0.126165     0.080296     0.074737    Uiso  ? N
   N3         1.0     0.877372     0.218655     0.869259    Uiso  ? N
   N4         1.0     0.766529     0.106428     0.616494    Uiso  ? N
   N5         1.0     0.551001     0.207484     0.381174    Uiso  ? N
   N6         1.0     0.460084     0.086047     0.138594    Uiso  ? N
   N7         1.0     0.229638     0.217435     0.862516    Uiso  ? N
   N8         1.0     0.111493     0.093952     0.601990    Uiso  ? N
   N9         1.0     0.885999     0.209544     0.378976    Uiso  ? N
   N10        1.0     0.769316     0.089383     0.136632    Uiso  ? N
   N11        1.0     0.540124     0.212767     0.886007    Uiso  ? N
   N12        1.0     0.446547     0.092983     0.627192    Uiso  ? N
   N13        1.0     0.232330     0.548004     0.382639    Uiso  ? N
   N14        1.0     0.097932     0.450556     0.134738    Uiso  ? N
   N15        1.0     0.888401     0.537899     0.873995    Uiso  ? N
   N16        1.0     0.762207     0.426572     0.628421    Uiso  ? N
   N17        1.0     0.554725     0.534938     0.364965    Uiso  ? N
   N18        1.0     0.432623     0.415446     0.135557    Uiso  ? N
   N19        1.0     0.229220     0.522402     0.882376    Uiso  ? N
   N20        1.0     0.124635     0.423438     0.615448    Uiso  ? N
   N21        1.0     0.866116     0.554135     0.378566    Uiso  ? N
   N22        1.0     0.789738     0.434256     0.136811    Uiso  ? N
   N23        1.0     0.562429     0.521499     0.882660    Uiso  ? N
   N24        1.0     0.445325     0.427378     0.628239    Uiso  ? N
   N25        1.0     0.220603     0.875301     0.363028    Uiso  ? N
   N26        1.0     0.115373     0.758775     0.133242    Uiso  ? N
   N27        1.0     0.885205     0.865783     0.891803    Uiso  ? N
   N28        1.0     0.752488     0.774465     0.645529    Uiso  ? N
   N29        1.0     0.557761     0.875337     0.377671    Uiso  ? N
   N30        1.0     0.443968     0.774619     0.138283    Uiso  ? N
   N31        1.0     0.240805     0.852514     0.850465    Uiso  ? N
   N32        1.0     0.120290     0.752759     0.614246    Uiso  ? N
   N33        1.0     0.887307     0.869603     0.365154    Uiso  ? N
   N34        1.0     0.776098     0.760300     0.128661    Uiso  ? N
   N35        1.0     0.555911     0.887732     0.890397    Uiso  ? N
   N36        1.0     0.447648     0.757300     0.598006    Uiso  ? N
