
#======================================================================
# CRYSTAL DATA
#----------------------------------------------------------------------
data_VESTA_phase_1

_chemical_name_common                  'Al   Hf   Mg   N                      '
_cell_length_a                         9.799614
_cell_length_b                         9.830212
_cell_length_c                         10.059104
_cell_angle_alpha                      90.378708
_cell_angle_beta                       90.172325
_cell_angle_gamma                      60.110615
_cell_volume                           840.108254
_space_group_name_H-M_alt              'P 1'
_space_group_IT_number                 1

loop_
_space_group_symop_operation_xyz
   'x, y, z'

loop_
   _atom_site_label
   _atom_site_occupancy
   _atom_site_fract_x
   _atom_site_fract_y
   _atom_site_fract_z
   _atom_site_adp_type
   _atom_site_U_iso_or_equiv
   _atom_site_type_symbol
   Al1        1.0     0.109669     0.092184     0.396003    Uiso  ? Al
   Al2        1.0     0.873698     0.211407     0.617733    Uiso  ? Al
   Al3        1.0     0.450196     0.089776     0.388191    Uiso  ? Al
   Al4        1.0     0.561542     0.193022     0.138480    Uiso  ? Al
   Al5        1.0     0.230944     0.207709     0.637383    Uiso  ? Al
   Al6        1.0     0.777006     0.094487     0.382709    Uiso  ? Al
   Al7        1.0     0.456978     0.096086     0.876934    Uiso  ? Al
   Al8        1.0     0.556461     0.209982     0.631231    Uiso  ? Al
   Al9        1.0     0.217475     0.546502     0.132251    Uiso  ? Al
   Al10       1.0     0.769886     0.430181     0.811198    Uiso  ? Al
   Al11       1.0     0.442345     0.421983     0.381923    Uiso  ? Al
   Al12       1.0     0.111885     0.437187     0.873446    Uiso  ? Al
   Al13       1.0     0.231453     0.540811     0.636919    Uiso  ? Al
   Al14       1.0     0.787420     0.428421     0.328743    Uiso  ? Al
   Al15       1.0     0.882145     0.544012     0.068462    Uiso  ? Al
   Al16       1.0     0.440739     0.413099     0.885520    Uiso  ? Al
   Al17       1.0     0.557666     0.537474     0.562498    Uiso  ? Al
   Al18       1.0     0.109903     0.765248     0.380898    Uiso  ? Al
   Al19       1.0     0.217620     0.870738     0.140923    Uiso  ? Al
   Al20       1.0     0.779314     0.771396     0.881063    Uiso  ? Al
   Al21       1.0     0.441918     0.773503     0.383342    Uiso  ? Al
   Al22       1.0     0.564131     0.871261     0.135815    Uiso  ? Al
   Al23       1.0     0.223899     0.862764     0.619343    Uiso  ? Al
   Al24       1.0     0.772390     0.772599     0.389290    Uiso  ? Al
   Al25       1.0     0.887319     0.872554     0.133043    Uiso  ? Al
   Al26       1.0     0.558519     0.881152     0.627731    Uiso  ? Al
   Hf1        1.0     0.226225     0.201123     0.116643    Uiso  ? Hf
   Hf2        1.0     0.102655     0.092172     0.856974    Uiso  ? Hf
   Hf3        1.0     0.112157     0.430333     0.382378    Uiso  ? Hf
   Hf4        1.0     0.555910     0.530815     0.112414    Uiso  ? Hf
   Hf5        1.0     0.450684     0.756732     0.866166    Uiso  ? Hf
   Mg1        1.0     0.769755     0.092895     0.886088    Uiso  ? Mg
   Mg2        1.0     0.893182     0.190353     0.138834    Uiso  ? Mg
   Mg3        1.0     0.880735     0.553070     0.608007    Uiso  ? Mg
   Mg4        1.0     0.887662     0.877912     0.634374    Uiso  ? Mg
   Mg5        1.0     0.106364     0.754014     0.885370    Uiso  ? Mg
   N1         1.0     0.229206     0.188074     0.326940    Uiso  ? N
   N2         1.0     0.119337     0.073896     0.066022    Uiso  ? N
   N3         1.0     0.874344     0.214820     0.814100    Uiso  ? N
   N4         1.0     0.764129     0.110823     0.568403    Uiso  ? N
   N5         1.0     0.548266     0.205555     0.328393    Uiso  ? N
   N6         1.0     0.462583     0.080682     0.069289    Uiso  ? N
   N7         1.0     0.229804     0.212802     0.836514    Uiso  ? N
   N8         1.0     0.115081     0.095407     0.591104    Uiso  ? N
   N9         1.0     0.894533     0.205828     0.351777    Uiso  ? N
   N10        1.0     0.769413     0.087147     0.093782    Uiso  ? N
   N11        1.0     0.542121     0.212836     0.817602    Uiso  ? N
   N12        1.0     0.441272     0.098295     0.576517    Uiso  ? N
   N13        1.0     0.230505     0.546573     0.321703    Uiso  ? N
   N14        1.0     0.105462     0.443058     0.077226    Uiso  ? N
   N15        1.0     0.882693     0.537391     0.864903    Uiso  ? N
   N16        1.0     0.760946     0.434416     0.619919    Uiso  ? N
   N17        1.0     0.553586     0.541334     0.349085    Uiso  ? N
   N18        1.0     0.432396     0.407844     0.081171    Uiso  ? N
   N19        1.0     0.233081     0.525767     0.824679    Uiso  ? N
   N20        1.0     0.129464     0.420444     0.587634    Uiso  ? N
   N21        1.0     0.877061     0.551975     0.362243    Uiso  ? N
   N22        1.0     0.792454     0.430483     0.133984    Uiso  ? N
   N23        1.0     0.565888     0.515980     0.887236    Uiso  ? N
   N24        1.0     0.444216     0.428356     0.571142    Uiso  ? N
   N25        1.0     0.222744     0.877736     0.332954    Uiso  ? N
   N26        1.0     0.114828     0.760648     0.093747    Uiso  ? N
   N27        1.0     0.885242     0.866981     0.834736    Uiso  ? N
   N28        1.0     0.758426     0.781703     0.571063    Uiso  ? N
   N29        1.0     0.552730     0.876906     0.324714    Uiso  ? N
   N30        1.0     0.436738     0.777530     0.080032    Uiso  ? N
   N31        1.0     0.224953     0.858816     0.806727    Uiso  ? N
   N32        1.0     0.128256     0.748676     0.567021    Uiso  ? N
   N33        1.0     0.889740     0.872149     0.327982    Uiso  ? N
   N34        1.0     0.773622     0.763784     0.077145    Uiso  ? N
   N35        1.0     0.560688     0.883156     0.819724    Uiso  ? N
   N36        1.0     0.446597     0.764236     0.579081    Uiso  ? N
