
#======================================================================
# CRYSTAL DATA
#----------------------------------------------------------------------
data_VESTA_phase_1

_chemical_name_common                  'Al   Hf   Mg   N                      '
_cell_length_a                         9.706083
_cell_length_b                         9.725995
_cell_length_c                         10.189122
_cell_angle_alpha                      90.256500
_cell_angle_beta                       89.996063
_cell_angle_gamma                      60.147243
_cell_volume                           834.222787
_space_group_name_H-M_alt              'P 1'
_space_group_IT_number                 1

loop_
_space_group_symop_operation_xyz
   'x, y, z'

loop_
   _atom_site_label
   _atom_site_occupancy
   _atom_site_fract_x
   _atom_site_fract_y
   _atom_site_fract_z
   _atom_site_adp_type
   _atom_site_U_iso_or_equiv
   _atom_site_type_symbol
   Al1        1.0     0.109647     0.089458     0.315361    Uiso  ? Al
   Al2        1.0     0.876488     0.210472     0.554000    Uiso  ? Al
   Al3        1.0     0.454497     0.088636     0.316105    Uiso  ? Al
   Al4        1.0     0.560941     0.196208     0.060950    Uiso  ? Al
   Al5        1.0     0.229808     0.202001     0.559652    Uiso  ? Al
   Al6        1.0     0.776713     0.090412     0.313252    Uiso  ? Al
   Al7        1.0     0.451967     0.096730     0.806118    Uiso  ? Al
   Al8        1.0     0.559750     0.205706     0.561441    Uiso  ? Al
   Al9        1.0     0.218116     0.543319     0.057468    Uiso  ? Al
   Al10       1.0     0.781181     0.422918     0.803650    Uiso  ? Al
   Al11       1.0     0.444978     0.422361     0.316437    Uiso  ? Al
   Al12       1.0     0.111417     0.434105     0.800626    Uiso  ? Al
   Al13       1.0     0.229718     0.546104     0.567468    Uiso  ? Al
   Al14       1.0     0.779661     0.429109     0.314504    Uiso  ? Al
   Al15       1.0     0.884594     0.548204     0.056979    Uiso  ? Al
   Al16       1.0     0.442206     0.416781     0.809286    Uiso  ? Al
   Al17       1.0     0.557678     0.531843     0.553963    Uiso  ? Al
   Al18       1.0     0.108923     0.766453     0.310665    Uiso  ? Al
   Al19       1.0     0.221564     0.868939     0.072021    Uiso  ? Al
   Al20       1.0     0.780092     0.767834     0.813596    Uiso  ? Al
   Al21       1.0     0.444657     0.766373     0.317874    Uiso  ? Al
   Al22       1.0     0.562689     0.873256     0.066414    Uiso  ? Al
   Al23       1.0     0.220235     0.867678     0.549019    Uiso  ? Al
   Al24       1.0     0.774884     0.766577     0.308862    Uiso  ? Al
   Al25       1.0     0.885004     0.873620     0.064459    Uiso  ? Al
   Al26       1.0     0.560779     0.875139     0.557931    Uiso  ? Al
   Hf1        1.0     0.225008     0.208382     0.066378    Uiso  ? Hf
   Hf2        1.0     0.104677     0.091702     0.804451    Uiso  ? Hf
   Hf3        1.0     0.105103     0.437923     0.334081    Uiso  ? Hf
   Hf4        1.0     0.557165     0.532279     0.077342    Uiso  ? Hf
   Hf5        1.0     0.452144     0.756226     0.805798    Uiso  ? Hf
   Mg1        1.0     0.772203     0.092409     0.809477    Uiso  ? Mg
   Mg2        1.0     0.886544     0.200281     0.069160    Uiso  ? Mg
   Mg3        1.0     0.876306     0.549632     0.573728    Uiso  ? Mg
   Mg4        1.0     0.888855     0.872636     0.563484    Uiso  ? Mg
   Mg5        1.0     0.105943     0.754578     0.814681    Uiso  ? Mg
   N1         1.0     0.231571     0.191153     0.365267    Uiso  ? N
   N2         1.0     0.121293     0.081439     0.126857    Uiso  ? N
   N3         1.0     0.882913     0.219427     0.868410    Uiso  ? N
   N4         1.0     0.770588     0.108042     0.606639    Uiso  ? N
   N5         1.0     0.551908     0.207018     0.372001    Uiso  ? N
   N6         1.0     0.458275     0.085324     0.128034    Uiso  ? N
   N7         1.0     0.225832     0.211003     0.859249    Uiso  ? N
   N8         1.0     0.110840     0.095126     0.598773    Uiso  ? N
   N9         1.0     0.888273     0.208353     0.363214    Uiso  ? N
   N10        1.0     0.767440     0.088581     0.126570    Uiso  ? N
   N11        1.0     0.539943     0.211233     0.876169    Uiso  ? N
   N12        1.0     0.444540     0.094269     0.617512    Uiso  ? N
   N13        1.0     0.232356     0.551292     0.375599    Uiso  ? N
   N14        1.0     0.099652     0.447769     0.124481    Uiso  ? N
   N15        1.0     0.889076     0.537754     0.864589    Uiso  ? N
   N16        1.0     0.766690     0.423358     0.618143    Uiso  ? N
   N17        1.0     0.554632     0.537538     0.358436    Uiso  ? N
   N18        1.0     0.432933     0.414636     0.127744    Uiso  ? N
   N19        1.0     0.230324     0.521024     0.872879    Uiso  ? N
   N20        1.0     0.126921     0.422153     0.607367    Uiso  ? N
   N21        1.0     0.867579     0.553946     0.368572    Uiso  ? N
   N22        1.0     0.789319     0.435174     0.127658    Uiso  ? N
   N23        1.0     0.562098     0.522259     0.870602    Uiso  ? N
   N24        1.0     0.446804     0.427256     0.619210    Uiso  ? N
   N25        1.0     0.223299     0.872249     0.362646    Uiso  ? N
   N26        1.0     0.115527     0.757429     0.120623    Uiso  ? N
   N27        1.0     0.882648     0.866845     0.882735    Uiso  ? N
   N28        1.0     0.756662     0.775236     0.633657    Uiso  ? N
   N29        1.0     0.556918     0.874030     0.369207    Uiso  ? N
   N30        1.0     0.442365     0.773361     0.124470    Uiso  ? N
   N31        1.0     0.229529     0.866791     0.885639    Uiso  ? N
   N32        1.0     0.127854     0.757589     0.614888    Uiso  ? N
   N33        1.0     0.890872     0.868846     0.355020    Uiso  ? N
   N34        1.0     0.775952     0.759910     0.119924    Uiso  ? N
   N35        1.0     0.555310     0.883653     0.878627    Uiso  ? N
   N36        1.0     0.443743     0.762152     0.599720    Uiso  ? N
