
#======================================================================
# CRYSTAL DATA
#----------------------------------------------------------------------
data_VESTA_phase_1

_chemical_name_common                  'Al   Hf   Mg   N                      '
_cell_length_a                         9.991927
_cell_length_b                         10.025681
_cell_length_c                         9.438087
_cell_angle_alpha                      90.039749
_cell_angle_beta                       89.959435
_cell_angle_gamma                      60.060139
_cell_volume                           819.294696
_space_group_name_H-M_alt              'P 1'
_space_group_IT_number                 1

loop_
_space_group_symop_operation_xyz
   'x, y, z'

loop_
   _atom_site_label
   _atom_site_occupancy
   _atom_site_fract_x
   _atom_site_fract_y
   _atom_site_fract_z
   _atom_site_adp_type
   _atom_site_U_iso_or_equiv
   _atom_site_type_symbol
   Al1        1.0     0.109300     0.091255     0.383185    Uiso  ? Al
   Al2        1.0     0.873124     0.212314     0.581859    Uiso  ? Al
   Al3        1.0     0.456959     0.087849     0.335015    Uiso  ? Al
   Al4        1.0     0.561521     0.197149     0.075971    Uiso  ? Al
   Al5        1.0     0.232694     0.201733     0.582140    Uiso  ? Al
   Al6        1.0     0.775445     0.090321     0.339850    Uiso  ? Al
   Al7        1.0     0.449507     0.100327     0.823845    Uiso  ? Al
   Al8        1.0     0.558048     0.206923     0.580285    Uiso  ? Al
   Al9        1.0     0.217550     0.545231     0.074355    Uiso  ? Al
   Al10       1.0     0.776204     0.425088     0.820356    Uiso  ? Al
   Al11       1.0     0.441550     0.418074     0.332419    Uiso  ? Al
   Al12       1.0     0.113306     0.432876     0.818285    Uiso  ? Al
   Al13       1.0     0.233396     0.541580     0.585399    Uiso  ? Al
   Al14       1.0     0.784891     0.428144     0.338962    Uiso  ? Al
   Al15       1.0     0.885185     0.548139     0.072681    Uiso  ? Al
   Al16       1.0     0.443823     0.418509     0.827691    Uiso  ? Al
   Al17       1.0     0.556975     0.528679     0.569839    Uiso  ? Al
   Al18       1.0     0.108399     0.763274     0.354174    Uiso  ? Al
   Al19       1.0     0.221712     0.869150     0.138982    Uiso  ? Al
   Al20       1.0     0.777533     0.772295     0.828606    Uiso  ? Al
   Al21       1.0     0.445470     0.765020     0.368725    Uiso  ? Al
   Al22       1.0     0.563538     0.874697     0.083966    Uiso  ? Al
   Al23       1.0     0.223259     0.864851     0.609412    Uiso  ? Al
   Al24       1.0     0.775199     0.764956     0.328799    Uiso  ? Al
   Al25       1.0     0.887434     0.873022     0.088932    Uiso  ? Al
   Al26       1.0     0.561093     0.876736     0.575769    Uiso  ? Al
   Hf1        1.0     0.226579     0.208019     0.100045    Uiso  ? Hf
   Hf2        1.0     0.105346     0.097699     0.847902    Uiso  ? Hf
   Hf3        1.0     0.101339     0.441014     0.360403    Uiso  ? Hf
   Hf4        1.0     0.557705     0.532697     0.107334    Uiso  ? Hf
   Hf5        1.0     0.455017     0.756343     0.840066    Uiso  ? Hf
   Mg1        1.0     0.772697     0.091626     0.829741    Uiso  ? Mg
   Mg2        1.0     0.884649     0.202125     0.096287    Uiso  ? Mg
   Mg3        1.0     0.873320     0.550957     0.601529    Uiso  ? Mg
   Mg4        1.0     0.884414     0.874985     0.582944    Uiso  ? Mg
   Mg5        1.0     0.102868     0.755132     0.830671    Uiso  ? Mg
   N1         1.0     0.229789     0.192748     0.361664    Uiso  ? N
   N2         1.0     0.124229     0.075375     0.085573    Uiso  ? N
   N3         1.0     0.876249     0.220748     0.862807    Uiso  ? N
   N4         1.0     0.768944     0.107017     0.604384    Uiso  ? N
   N5         1.0     0.548859     0.207369     0.379827    Uiso  ? N
   N6         1.0     0.461838     0.084589     0.133521    Uiso  ? N
   N7         1.0     0.228836     0.217752     0.869555    Uiso  ? N
   N8         1.0     0.114110     0.096238     0.599392    Uiso  ? N
   N9         1.0     0.891491     0.207604     0.371578    Uiso  ? N
   N10        1.0     0.766528     0.090391     0.135604    Uiso  ? N
   N11        1.0     0.541067     0.212118     0.876600    Uiso  ? N
   N12        1.0     0.444808     0.093922     0.620755    Uiso  ? N
   N13        1.0     0.234194     0.544106     0.380235    Uiso  ? N
   N14        1.0     0.098620     0.449868     0.130471    Uiso  ? N
   N15        1.0     0.888444     0.537923     0.864879    Uiso  ? N
   N16        1.0     0.763904     0.425137     0.618241    Uiso  ? N
   N17        1.0     0.552547     0.536606     0.360172    Uiso  ? N
   N18        1.0     0.433281     0.413617     0.130600    Uiso  ? N
   N19        1.0     0.229627     0.524569     0.871878    Uiso  ? N
   N20        1.0     0.128356     0.419532     0.609725    Uiso  ? N
   N21        1.0     0.867607     0.555220     0.380444    Uiso  ? N
   N22        1.0     0.791049     0.435443     0.135142    Uiso  ? N
   N23        1.0     0.561915     0.519538     0.879434    Uiso  ? N
   N24        1.0     0.447889     0.426710     0.623881    Uiso  ? N
   N25        1.0     0.225225     0.876101     0.352352    Uiso  ? N
   N26        1.0     0.117934     0.756214     0.131163    Uiso  ? N
   N27        1.0     0.883292     0.866733     0.888078    Uiso  ? N
   N28        1.0     0.758078     0.776204     0.634189    Uiso  ? N
   N29        1.0     0.555197     0.874213     0.373288    Uiso  ? N
   N30        1.0     0.440678     0.773449     0.102627    Uiso  ? N
   N31        1.0     0.225901     0.864033     0.821488    Uiso  ? N
   N32        1.0     0.122106     0.754817     0.593922    Uiso  ? N
   N33        1.0     0.887942     0.868527     0.358754    Uiso  ? N
   N34        1.0     0.775167     0.758496     0.126208    Uiso  ? N
   N35        1.0     0.556592     0.889932     0.880586    Uiso  ? N
   N36        1.0     0.450920     0.755408     0.598701    Uiso  ? N
