
#======================================================================
# CRYSTAL DATA
#----------------------------------------------------------------------
data_VESTA_phase_1

_chemical_name_common                  'Al   Hf   Mg   N                      '
_cell_length_a                         9.763080
_cell_length_b                         9.799950
_cell_length_c                         10.120535
_cell_angle_alpha                      90.259750
_cell_angle_beta                       89.956963
_cell_angle_gamma                      60.044582
_cell_volume                           838.943301
_space_group_name_H-M_alt              'P 1'
_space_group_IT_number                 1

loop_
_space_group_symop_operation_xyz
   'x, y, z'

loop_
   _atom_site_label
   _atom_site_occupancy
   _atom_site_fract_x
   _atom_site_fract_y
   _atom_site_fract_z
   _atom_site_adp_type
   _atom_site_U_iso_or_equiv
   _atom_site_type_symbol
   Al1        1.0     0.111240     0.090877     0.395690    Uiso  ? Al
   Al2        1.0     0.875476     0.209531     0.613835    Uiso  ? Al
   Al3        1.0     0.450875     0.090015     0.388778    Uiso  ? Al
   Al4        1.0     0.562212     0.193203     0.137279    Uiso  ? Al
   Al5        1.0     0.229800     0.207399     0.638058    Uiso  ? Al
   Al6        1.0     0.777518     0.092832     0.384253    Uiso  ? Al
   Al7        1.0     0.456406     0.095206     0.876319    Uiso  ? Al
   Al8        1.0     0.556377     0.208771     0.631918    Uiso  ? Al
   Al9        1.0     0.219529     0.546035     0.131552    Uiso  ? Al
   Al10       1.0     0.772497     0.431233     0.821894    Uiso  ? Al
   Al11       1.0     0.443222     0.421973     0.382904    Uiso  ? Al
   Al12       1.0     0.103163     0.441823     0.878789    Uiso  ? Al
   Al13       1.0     0.230139     0.540683     0.638481    Uiso  ? Al
   Al14       1.0     0.782599     0.426722     0.365788    Uiso  ? Al
   Al15       1.0     0.883602     0.550942     0.133963    Uiso  ? Al
   Al16       1.0     0.439463     0.413439     0.884827    Uiso  ? Al
   Al17       1.0     0.553499     0.540097     0.566827    Uiso  ? Al
   Al18       1.0     0.110735     0.765475     0.381974    Uiso  ? Al
   Al19       1.0     0.218197     0.870459     0.141424    Uiso  ? Al
   Al20       1.0     0.784378     0.762072     0.885712    Uiso  ? Al
   Al21       1.0     0.441539     0.773737     0.382858    Uiso  ? Al
   Al22       1.0     0.563344     0.873099     0.135808    Uiso  ? Al
   Al23       1.0     0.223438     0.864157     0.620503    Uiso  ? Al
   Al24       1.0     0.772379     0.773484     0.385902    Uiso  ? Al
   Al25       1.0     0.888480     0.874041     0.132199    Uiso  ? Al
   Al26       1.0     0.560840     0.878182     0.627454    Uiso  ? Al
   Hf1        1.0     0.224330     0.202990     0.117133    Uiso  ? Hf
   Hf2        1.0     0.098940     0.094430     0.859927    Uiso  ? Hf
   Hf3        1.0     0.113300     0.430794     0.383341    Uiso  ? Hf
   Hf4        1.0     0.560196     0.528963     0.117001    Uiso  ? Hf
   Hf5        1.0     0.448947     0.759363     0.870963    Uiso  ? Hf
   Mg1        1.0     0.769098     0.092200     0.884137    Uiso  ? Mg
   Mg2        1.0     0.891387     0.192452     0.144242    Uiso  ? Mg
   Mg3        1.0     0.884129     0.554897     0.629623    Uiso  ? Mg
   Mg4        1.0     0.886747     0.875277     0.634694    Uiso  ? Mg
   Mg5        1.0     0.105990     0.754059     0.885287    Uiso  ? Mg
   N1         1.0     0.229519     0.189665     0.326544    Uiso  ? N
   N2         1.0     0.118280     0.074384     0.066870    Uiso  ? N
   N3         1.0     0.871201     0.218454     0.805386    Uiso  ? N
   N4         1.0     0.764420     0.108141     0.568355    Uiso  ? N
   N5         1.0     0.549605     0.205439     0.327287    Uiso  ? N
   N6         1.0     0.461432     0.081851     0.068110    Uiso  ? N
   N7         1.0     0.227121     0.213509     0.836595    Uiso  ? N
   N8         1.0     0.115722     0.094816     0.588497    Uiso  ? N
   N9         1.0     0.895984     0.202635     0.351959    Uiso  ? N
   N10        1.0     0.770442     0.087476     0.090620    Uiso  ? N
   N11        1.0     0.541171     0.212584     0.816581    Uiso  ? N
   N12        1.0     0.441738     0.097231     0.576315    Uiso  ? N
   N13        1.0     0.231452     0.545567     0.320951    Uiso  ? N
   N14        1.0     0.101612     0.446797     0.079060    Uiso  ? N
   N15        1.0     0.883391     0.540265     0.838064    Uiso  ? N
   N16        1.0     0.769289     0.430262     0.584431    Uiso  ? N
   N17        1.0     0.550344     0.543423     0.347249    Uiso  ? N
   N18        1.0     0.434083     0.407472     0.078899    Uiso  ? N
   N19        1.0     0.230397     0.524801     0.824939    Uiso  ? N
   N20        1.0     0.128912     0.420539     0.584012    Uiso  ? N
   N21        1.0     0.878065     0.554509     0.329616    Uiso  ? N
   N22        1.0     0.793337     0.426194     0.122821    Uiso  ? N
   N23        1.0     0.563044     0.517970     0.878683    Uiso  ? N
   N24        1.0     0.443667     0.427746     0.571467    Uiso  ? N
   N25        1.0     0.222927     0.877454     0.331772    Uiso  ? N
   N26        1.0     0.115968     0.760456     0.092582    Uiso  ? N
   N27        1.0     0.883948     0.864696     0.834267    Uiso  ? N
   N28        1.0     0.760919     0.775394     0.564764    Uiso  ? N
   N29        1.0     0.552379     0.877914     0.323588    Uiso  ? N
   N30        1.0     0.438161     0.777443     0.082001    Uiso  ? N
   N31        1.0     0.223512     0.861761     0.806563    Uiso  ? N
   N32        1.0     0.128759     0.748573     0.566986    Uiso  ? N
   N33        1.0     0.891005     0.872150     0.326479    Uiso  ? N
   N34        1.0     0.775520     0.762177     0.079722    Uiso  ? N
   N35        1.0     0.562874     0.880884     0.818864    Uiso  ? N
   N36        1.0     0.445854     0.765354     0.577052    Uiso  ? N
