
#======================================================================
# CRYSTAL DATA
#----------------------------------------------------------------------
data_VESTA_phase_1

_chemical_name_common                  'Al   Hf   Mg   N                      '
_cell_length_a                         10.101416
_cell_length_b                         10.122617
_cell_length_c                         9.127529
_cell_angle_alpha                      90.234314
_cell_angle_beta                       90.159843
_cell_angle_gamma                      60.139698
_cell_volume                           809.402857
_space_group_name_H-M_alt              'P 1'
_space_group_IT_number                 1

loop_
_space_group_symop_operation_xyz
   'x, y, z'

loop_
   _atom_site_label
   _atom_site_occupancy
   _atom_site_fract_x
   _atom_site_fract_y
   _atom_site_fract_z
   _atom_site_adp_type
   _atom_site_U_iso_or_equiv
   _atom_site_type_symbol
   Al1        1.0     0.112811     0.094592     0.385177    Uiso  ? Al
   Al2        1.0     0.870979     0.211033     0.592508    Uiso  ? Al
   Al3        1.0     0.447623     0.091944     0.381503    Uiso  ? Al
   Al4        1.0     0.558367     0.197487     0.132558    Uiso  ? Al
   Al5        1.0     0.232610     0.206318     0.624867    Uiso  ? Al
   Al6        1.0     0.778119     0.087095     0.356494    Uiso  ? Al
   Al7        1.0     0.457924     0.094648     0.865531    Uiso  ? Al
   Al8        1.0     0.558697     0.207198     0.619760    Uiso  ? Al
   Al9        1.0     0.221654     0.544444     0.112352    Uiso  ? Al
   Al10       1.0     0.774757     0.427359     0.815773    Uiso  ? Al
   Al11       1.0     0.439044     0.423474     0.375640    Uiso  ? Al
   Al12       1.0     0.107877     0.435967     0.845766    Uiso  ? Al
   Al13       1.0     0.230032     0.542485     0.632843    Uiso  ? Al
   Al14       1.0     0.784349     0.429072     0.355859    Uiso  ? Al
   Al15       1.0     0.881603     0.546965     0.085073    Uiso  ? Al
   Al16       1.0     0.443941     0.414659     0.872057    Uiso  ? Al
   Al17       1.0     0.553341     0.534260     0.579050    Uiso  ? Al
   Al18       1.0     0.107222     0.761291     0.361614    Uiso  ? Al
   Al19       1.0     0.221529     0.870347     0.137756    Uiso  ? Al
   Al20       1.0     0.777269     0.767090     0.861944    Uiso  ? Al
   Al21       1.0     0.445767     0.768297     0.376953    Uiso  ? Al
   Al22       1.0     0.564231     0.870617     0.129959    Uiso  ? Al
   Al23       1.0     0.222863     0.861592     0.600696    Uiso  ? Al
   Al24       1.0     0.776465     0.769798     0.387061    Uiso  ? Al
   Al25       1.0     0.884280     0.871313     0.104520    Uiso  ? Al
   Al26       1.0     0.559149     0.880099     0.617625    Uiso  ? Al
   Hf1        1.0     0.228503     0.201893     0.101303    Uiso  ? Hf
   Hf2        1.0     0.100931     0.093710     0.843167    Uiso  ? Hf
   Hf3        1.0     0.107210     0.435667     0.364166    Uiso  ? Hf
   Hf4        1.0     0.559022     0.532168     0.112530    Uiso  ? Hf
   Hf5        1.0     0.447665     0.759410     0.847825    Uiso  ? Hf
   Mg1        1.0     0.768237     0.097900     0.877272    Uiso  ? Mg
   Mg2        1.0     0.890158     0.200975     0.124546    Uiso  ? Mg
   Mg3        1.0     0.881120     0.548791     0.609158    Uiso  ? Mg
   Mg4        1.0     0.890529     0.878794     0.627811    Uiso  ? Mg
   Mg5        1.0     0.107894     0.757033     0.874966    Uiso  ? Mg
   N1         1.0     0.230000     0.192094     0.338962    Uiso  ? N
   N2         1.0     0.121429     0.075114     0.079639    Uiso  ? N
   N3         1.0     0.872991     0.219550     0.826889    Uiso  ? N
   N4         1.0     0.765508     0.106007     0.570535    Uiso  ? N
   N5         1.0     0.541935     0.209077     0.341188    Uiso  ? N
   N6         1.0     0.463951     0.081150     0.080081    Uiso  ? N
   N7         1.0     0.229181     0.212411     0.847231    Uiso  ? N
   N8         1.0     0.119830     0.095522     0.596848    Uiso  ? N
   N9         1.0     0.898113     0.206569     0.364897    Uiso  ? N
   N10        1.0     0.768664     0.092256     0.119215    Uiso  ? N
   N11        1.0     0.543662     0.211857     0.827013    Uiso  ? N
   N12        1.0     0.442968     0.096191     0.589100    Uiso  ? N
   N13        1.0     0.231562     0.543657     0.328898    Uiso  ? N
   N14        1.0     0.101696     0.443382     0.100368    Uiso  ? N
   N15        1.0     0.885944     0.535619     0.855472    Uiso  ? N
   N16        1.0     0.764175     0.429225     0.597709    Uiso  ? N
   N17        1.0     0.549126     0.542309     0.354814    Uiso  ? N
   N18        1.0     0.439371     0.411087     0.088484    Uiso  ? N
   N19        1.0     0.230333     0.526874     0.845062    Uiso  ? N
   N20        1.0     0.127957     0.421532     0.602844    Uiso  ? N
   N21        1.0     0.874329     0.554718     0.359297    Uiso  ? N
   N22        1.0     0.788600     0.432056     0.128789    Uiso  ? N
   N23        1.0     0.561470     0.521412     0.862101    Uiso  ? N
   N24        1.0     0.442892     0.428983     0.586322    Uiso  ? N
   N25        1.0     0.225864     0.877480     0.351849    Uiso  ? N
   N26        1.0     0.119444     0.760819     0.109031    Uiso  ? N
   N27        1.0     0.883647     0.869668     0.866899    Uiso  ? N
   N28        1.0     0.764373     0.775549     0.595238    Uiso  ? N
   N29        1.0     0.553926     0.876310     0.341663    Uiso  ? N
   N30        1.0     0.438893     0.774803     0.091495    Uiso  ? N
   N31        1.0     0.221372     0.863089     0.814365    Uiso  ? N
   N32        1.0     0.125532     0.747898     0.574689    Uiso  ? N
   N33        1.0     0.889895     0.865055     0.329847    Uiso  ? N
   N34        1.0     0.770086     0.759708     0.082178    Uiso  ? N
   N35        1.0     0.557299     0.884268     0.829405    Uiso  ? N
   N36        1.0     0.450464     0.757980     0.592620    Uiso  ? N
