
#======================================================================
# CRYSTAL DATA
#----------------------------------------------------------------------
data_VESTA_phase_1

_chemical_name_common                  'Al   Hf   Mg   N                      '
_cell_length_a                         9.748569
_cell_length_b                         9.765294
_cell_length_c                         10.147990
_cell_angle_alpha                      90.263840
_cell_angle_beta                       89.995377
_cell_angle_gamma                      60.068386
_cell_volume                           837.200562
_space_group_name_H-M_alt              'P 1'
_space_group_IT_number                 1

loop_
_space_group_symop_operation_xyz
   'x, y, z'

loop_
   _atom_site_label
   _atom_site_occupancy
   _atom_site_fract_x
   _atom_site_fract_y
   _atom_site_fract_z
   _atom_site_adp_type
   _atom_site_U_iso_or_equiv
   _atom_site_type_symbol
   Al1        1.0     0.109178     0.091911     0.395114    Uiso  ? Al
   Al2        1.0     0.872150     0.215313     0.621191    Uiso  ? Al
   Al3        1.0     0.450983     0.090113     0.388646    Uiso  ? Al
   Al4        1.0     0.562583     0.194063     0.137342    Uiso  ? Al
   Al5        1.0     0.229595     0.207274     0.637204    Uiso  ? Al
   Al6        1.0     0.778274     0.094033     0.383986    Uiso  ? Al
   Al7        1.0     0.456791     0.095163     0.875893    Uiso  ? Al
   Al8        1.0     0.557062     0.207778     0.631676    Uiso  ? Al
   Al9        1.0     0.219660     0.546050     0.132080    Uiso  ? Al
   Al10       1.0     0.782609     0.427030     0.880493    Uiso  ? Al
   Al11       1.0     0.445516     0.423923     0.384843    Uiso  ? Al
   Al12       1.0     0.104613     0.441727     0.878750    Uiso  ? Al
   Al13       1.0     0.228196     0.540889     0.637740    Uiso  ? Al
   Al14       1.0     0.779562     0.426262     0.384711    Uiso  ? Al
   Al15       1.0     0.882670     0.549464     0.128936    Uiso  ? Al
   Al16       1.0     0.439317     0.414666     0.881734    Uiso  ? Al
   Al17       1.0     0.555409     0.537482     0.597942    Uiso  ? Al
   Al18       1.0     0.110778     0.765087     0.382048    Uiso  ? Al
   Al19       1.0     0.217734     0.870639     0.142264    Uiso  ? Al
   Al20       1.0     0.785180     0.763375     0.885467    Uiso  ? Al
   Al21       1.0     0.444212     0.768428     0.384419    Uiso  ? Al
   Al22       1.0     0.563569     0.873031     0.136242    Uiso  ? Al
   Al23       1.0     0.222647     0.864542     0.619896    Uiso  ? Al
   Al24       1.0     0.772040     0.770648     0.384399    Uiso  ? Al
   Al25       1.0     0.888189     0.874618     0.132748    Uiso  ? Al
   Al26       1.0     0.562363     0.876741     0.626867    Uiso  ? Al
   Hf1        1.0     0.225653     0.202051     0.118036    Uiso  ? Hf
   Hf2        1.0     0.099913     0.093957     0.859892    Uiso  ? Hf
   Hf3        1.0     0.109396     0.432290     0.382384    Uiso  ? Hf
   Hf4        1.0     0.557755     0.530648     0.121484    Uiso  ? Hf
   Hf5        1.0     0.448370     0.760707     0.870596    Uiso  ? Hf
   Mg1        1.0     0.769246     0.093330     0.883663    Uiso  ? Mg
   Mg2        1.0     0.890066     0.196157     0.141183    Uiso  ? Mg
   Mg3        1.0     0.880225     0.549970     0.635963    Uiso  ? Mg
   Mg4        1.0     0.887048     0.874273     0.633519    Uiso  ? Mg
   Mg5        1.0     0.105934     0.754267     0.885265    Uiso  ? Mg
   N1         1.0     0.229293     0.190507     0.326920    Uiso  ? N
   N2         1.0     0.118808     0.074302     0.066430    Uiso  ? N
   N3         1.0     0.870260     0.225390     0.809548    Uiso  ? N
   N4         1.0     0.765949     0.109547     0.568537    Uiso  ? N
   N5         1.0     0.549840     0.206259     0.327224    Uiso  ? N
   N6         1.0     0.462075     0.082109     0.067784    Uiso  ? N
   N7         1.0     0.228057     0.213101     0.835664    Uiso  ? N
   N8         1.0     0.113607     0.095989     0.588203    Uiso  ? N
   N9         1.0     0.894916     0.205216     0.344239    Uiso  ? N
   N10        1.0     0.770399     0.088450     0.089835    Uiso  ? N
   N11        1.0     0.541592     0.212367     0.815796    Uiso  ? N
   N12        1.0     0.442376     0.096508     0.575686    Uiso  ? N
   N13        1.0     0.232015     0.544278     0.321223    Uiso  ? N
   N14        1.0     0.102774     0.445655     0.079346    Uiso  ? N
   N15        1.0     0.885487     0.541632     0.840390    Uiso  ? N
   N16        1.0     0.769586     0.428888     0.569737    Uiso  ? N
   N17        1.0     0.553142     0.540987     0.334179    Uiso  ? N
   N18        1.0     0.434696     0.410047     0.075824    Uiso  ? N
   N19        1.0     0.230017     0.525255     0.823668    Uiso  ? N
   N20        1.0     0.126986     0.420732     0.582640    Uiso  ? N
   N21        1.0     0.873100     0.549599     0.321233    Uiso  ? N
   N22        1.0     0.792511     0.426970     0.076340    Uiso  ? N
   N23        1.0     0.559777     0.520311     0.859878    Uiso  ? N
   N24        1.0     0.443922     0.428570     0.572691    Uiso  ? N
   N25        1.0     0.223703     0.876716     0.332293    Uiso  ? N
   N26        1.0     0.115474     0.760660     0.092475    Uiso  ? N
   N27        1.0     0.884273     0.866345     0.832855    Uiso  ? N
   N28        1.0     0.762960     0.770807     0.563406    Uiso  ? N
   N29        1.0     0.551797     0.877128     0.323555    Uiso  ? N
   N30        1.0     0.437941     0.776488     0.081295    Uiso  ? N
   N31        1.0     0.223351     0.861497     0.805302    Uiso  ? N
   N32        1.0     0.128247     0.748573     0.566244    Uiso  ? N
   N33        1.0     0.890713     0.871260     0.326503    Uiso  ? N
   N34        1.0     0.775163     0.763067     0.079235    Uiso  ? N
   N35        1.0     0.564082     0.880871     0.817797    Uiso  ? N
   N36        1.0     0.446730     0.762944     0.577884    Uiso  ? N
