
#======================================================================
# CRYSTAL DATA
#----------------------------------------------------------------------
data_VESTA_phase_1

_chemical_name_common                  'Al   Hf   Mg   N                      '
_cell_length_a                         9.717676
_cell_length_b                         9.726122
_cell_length_c                         10.203211
_cell_angle_alpha                      90.201607
_cell_angle_beta                       90.048820
_cell_angle_gamma                      60.171883
_cell_volume                           836.596992
_space_group_name_H-M_alt              'P 1'
_space_group_IT_number                 1

loop_
_space_group_symop_operation_xyz
   'x, y, z'

loop_
   _atom_site_label
   _atom_site_occupancy
   _atom_site_fract_x
   _atom_site_fract_y
   _atom_site_fract_z
   _atom_site_adp_type
   _atom_site_U_iso_or_equiv
   _atom_site_type_symbol
   Al1        1.0     0.107905     0.092127     0.412064    Uiso  ? Al
   Al2        1.0     0.873417     0.214074     0.640779    Uiso  ? Al
   Al3        1.0     0.451499     0.090075     0.405677    Uiso  ? Al
   Al4        1.0     0.562967     0.196374     0.153329    Uiso  ? Al
   Al5        1.0     0.229507     0.206310     0.652699    Uiso  ? Al
   Al6        1.0     0.778286     0.094883     0.401016    Uiso  ? Al
   Al7        1.0     0.456499     0.096205     0.892770    Uiso  ? Al
   Al8        1.0     0.557527     0.206253     0.648525    Uiso  ? Al
   Al9        1.0     0.220186     0.546485     0.148440    Uiso  ? Al
   Al10       1.0     0.781484     0.428796     0.895491    Uiso  ? Al
   Al11       1.0     0.446607     0.424988     0.407575    Uiso  ? Al
   Al12       1.0     0.105975     0.441105     0.895265    Uiso  ? Al
   Al13       1.0     0.227447     0.540350     0.653908    Uiso  ? Al
   Al14       1.0     0.776661     0.426783     0.408060    Uiso  ? Al
   Al15       1.0     0.881019     0.549409     0.143088    Uiso  ? Al
   Al16       1.0     0.440465     0.416746     0.892724    Uiso  ? Al
   Al17       1.0     0.558192     0.531792     0.644756    Uiso  ? Al
   Al18       1.0     0.111053     0.764772     0.399354    Uiso  ? Al
   Al19       1.0     0.217331     0.870955     0.160535    Uiso  ? Al
   Al20       1.0     0.785638     0.764328     0.902266    Uiso  ? Al
   Al21       1.0     0.445657     0.765021     0.408158    Uiso  ? Al
   Al22       1.0     0.563486     0.873132     0.153621    Uiso  ? Al
   Al23       1.0     0.223096     0.864121     0.637602    Uiso  ? Al
   Al24       1.0     0.771252     0.769254     0.400497    Uiso  ? Al
   Al25       1.0     0.887804     0.875423     0.150887    Uiso  ? Al
   Al26       1.0     0.562643     0.874870     0.643519    Uiso  ? Al
   Hf1        1.0     0.226848     0.202234     0.138276    Uiso  ? Hf
   Hf2        1.0     0.101055     0.094439     0.879501    Uiso  ? Hf
   Hf3        1.0     0.106938     0.433995     0.399205    Uiso  ? Hf
   Hf4        1.0     0.555701     0.533340     0.148164    Uiso  ? Hf
   Hf5        1.0     0.448799     0.761010     0.886814    Uiso  ? Hf
   Mg1        1.0     0.770061     0.093130     0.900974    Uiso  ? Mg
   Mg2        1.0     0.887819     0.200315     0.156677    Uiso  ? Mg
   Mg3        1.0     0.880480     0.548415     0.654453    Uiso  ? Mg
   Mg4        1.0     0.887102     0.873297     0.649157    Uiso  ? Mg
   Mg5        1.0     0.105386     0.755038     0.902336    Uiso  ? Mg
   N1         1.0     0.228873     0.191593     0.345233    Uiso  ? N
   N2         1.0     0.118810     0.075831     0.085065    Uiso  ? N
   N3         1.0     0.871689     0.225008     0.828332    Uiso  ? N
   N4         1.0     0.766592     0.109097     0.584852    Uiso  ? N
   N5         1.0     0.549574     0.208136     0.343071    Uiso  ? N
   N6         1.0     0.462188     0.083181     0.084360    Uiso  ? N
   N7         1.0     0.228935     0.213261     0.850120    Uiso  ? N
   N8         1.0     0.112909     0.095476     0.604003    Uiso  ? N
   N9         1.0     0.893508     0.207203     0.359014    Uiso  ? N
   N10        1.0     0.770760     0.089076     0.105865    Uiso  ? N
   N11        1.0     0.542975     0.212100     0.832111    Uiso  ? N
   N12        1.0     0.443033     0.095222     0.591712    Uiso  ? N
   N13        1.0     0.233561     0.543227     0.337270    Uiso  ? N
   N14        1.0     0.102975     0.444988     0.095388    Uiso  ? N
   N15        1.0     0.886649     0.542409     0.857680    Uiso  ? N
   N16        1.0     0.768813     0.427739     0.589923    Uiso  ? N
   N17        1.0     0.553640     0.540167     0.352376    Uiso  ? N
   N18        1.0     0.436445     0.414771     0.086674    Uiso  ? N
   N19        1.0     0.229584     0.526517     0.839146    Uiso  ? N
   N20        1.0     0.125823     0.420526     0.598242    Uiso  ? N
   N21        1.0     0.870378     0.548050     0.334888    Uiso  ? N
   N22        1.0     0.784409     0.432296     0.084670    Uiso  ? N
   N23        1.0     0.560729     0.522183     0.842406    Uiso  ? N
   N24        1.0     0.444038     0.427569     0.592492    Uiso  ? N
   N25        1.0     0.224826     0.875791     0.349685    Uiso  ? N
   N26        1.0     0.114412     0.761599     0.108947    Uiso  ? N
   N27        1.0     0.884378     0.867208     0.847493    Uiso  ? N
   N28        1.0     0.763345     0.768509     0.578784    Uiso  ? N
   N29        1.0     0.550640     0.876317     0.340259    Uiso  ? N
   N30        1.0     0.437960     0.774555     0.096119    Uiso  ? N
   N31        1.0     0.223467     0.862635     0.822601    Uiso  ? N
   N32        1.0     0.127967     0.748321     0.582504    Uiso  ? N
   N33        1.0     0.890381     0.870939     0.343201    Uiso  ? N
   N34        1.0     0.774712     0.764113     0.095218    Uiso  ? N
   N35        1.0     0.563929     0.881598     0.834260    Uiso  ? N
   N36        1.0     0.447794     0.760120     0.598691    Uiso  ? N
