
#======================================================================
# CRYSTAL DATA
#----------------------------------------------------------------------
data_VESTA_phase_1

_chemical_name_common                  'Al   Hf   Mg   N                      '
_cell_length_a                         9.753796
_cell_length_b                         9.792730
_cell_length_c                         10.170158
_cell_angle_alpha                      90.278633
_cell_angle_beta                       89.869102
_cell_angle_gamma                      60.009991
_cell_volume                           841.333023
_space_group_name_H-M_alt              'P 1'
_space_group_IT_number                 1

loop_
_space_group_symop_operation_xyz
   'x, y, z'

loop_
   _atom_site_label
   _atom_site_occupancy
   _atom_site_fract_x
   _atom_site_fract_y
   _atom_site_fract_z
   _atom_site_adp_type
   _atom_site_U_iso_or_equiv
   _atom_site_type_symbol
   Al1        1.0     0.110759     0.091494     0.396346    Uiso  ? Al
   Al2        1.0     0.875448     0.209275     0.616806    Uiso  ? Al
   Al3        1.0     0.450898     0.090103     0.389383    Uiso  ? Al
   Al4        1.0     0.561903     0.192661     0.137942    Uiso  ? Al
   Al5        1.0     0.229415     0.207586     0.638613    Uiso  ? Al
   Al6        1.0     0.777368     0.093646     0.385475    Uiso  ? Al
   Al7        1.0     0.456015     0.095344     0.876202    Uiso  ? Al
   Al8        1.0     0.556023     0.209500     0.632060    Uiso  ? Al
   Al9        1.0     0.218387     0.546340     0.132459    Uiso  ? Al
   Al10       1.0     0.770339     0.431280     0.807501    Uiso  ? Al
   Al11       1.0     0.443562     0.421940     0.383000    Uiso  ? Al
   Al12       1.0     0.102273     0.442138     0.878684    Uiso  ? Al
   Al13       1.0     0.230691     0.540855     0.638766    Uiso  ? Al
   Al14       1.0     0.783330     0.426481     0.334788    Uiso  ? Al
   Al15       1.0     0.884794     0.552583     0.134774    Uiso  ? Al
   Al16       1.0     0.439160     0.412973     0.885154    Uiso  ? Al
   Al17       1.0     0.556816     0.538655     0.562455    Uiso  ? Al
   Al18       1.0     0.110733     0.765871     0.382689    Uiso  ? Al
   Al19       1.0     0.218362     0.870379     0.141909    Uiso  ? Al
   Al20       1.0     0.785025     0.760416     0.886089    Uiso  ? Al
   Al21       1.0     0.441739     0.773854     0.383174    Uiso  ? Al
   Al22       1.0     0.562857     0.873141     0.135986    Uiso  ? Al
   Al23       1.0     0.223545     0.864312     0.620746    Uiso  ? Al
   Al24       1.0     0.772177     0.774584     0.386307    Uiso  ? Al
   Al25       1.0     0.888217     0.874211     0.132750    Uiso  ? Al
   Al26       1.0     0.560589     0.878186     0.627390    Uiso  ? Al
   Hf1        1.0     0.224589     0.203435     0.118562    Uiso  ? Hf
   Hf2        1.0     0.099869     0.094005     0.861519    Uiso  ? Hf
   Hf3        1.0     0.113650     0.431060     0.385238    Uiso  ? Hf
   Hf4        1.0     0.558530     0.528462     0.109940    Uiso  ? Hf
   Hf5        1.0     0.449646     0.758601     0.870018    Uiso  ? Hf
   Mg1        1.0     0.769263     0.091235     0.884377    Uiso  ? Mg
   Mg2        1.0     0.892993     0.188773     0.142770    Uiso  ? Mg
   Mg3        1.0     0.884041     0.556185     0.630868    Uiso  ? Mg
   Mg4        1.0     0.886582     0.875444     0.635551    Uiso  ? Mg
   Mg5        1.0     0.105874     0.754057     0.885508    Uiso  ? Mg
   N1         1.0     0.229344     0.190252     0.326918    Uiso  ? N
   N2         1.0     0.119074     0.074561     0.067839    Uiso  ? N
   N3         1.0     0.873033     0.214887     0.809210    Uiso  ? N
   N4         1.0     0.764587     0.108495     0.568547    Uiso  ? N
   N5         1.0     0.549879     0.205228     0.327136    Uiso  ? N
   N6         1.0     0.461309     0.081663     0.067713    Uiso  ? N
   N7         1.0     0.227175     0.213879     0.835968    Uiso  ? N
   N8         1.0     0.115243     0.095261     0.587994    Uiso  ? N
   N9         1.0     0.895258     0.203780     0.352212    Uiso  ? N
   N10        1.0     0.769781     0.087275     0.089931    Uiso  ? N
   N11        1.0     0.541247     0.212495     0.816210    Uiso  ? N
   N12        1.0     0.441641     0.097458     0.576147    Uiso  ? N
   N13        1.0     0.231484     0.545777     0.320893    Uiso  ? N
   N14        1.0     0.101157     0.446824     0.078846    Uiso  ? N
   N15        1.0     0.883163     0.539664     0.839549    Uiso  ? N
   N16        1.0     0.764323     0.432863     0.610019    Uiso  ? N
   N17        1.0     0.552143     0.542603     0.349283    Uiso  ? N
   N18        1.0     0.432545     0.406896     0.079385    Uiso  ? N
   N19        1.0     0.230653     0.524779     0.824693    Uiso  ? N
   N20        1.0     0.128746     0.420961     0.584680    Uiso  ? N
   N21        1.0     0.879407     0.556362     0.329759    Uiso  ? N
   N22        1.0     0.792726     0.426486     0.136722    Uiso  ? N
   N23        1.0     0.565671     0.516168     0.885642    Uiso  ? N
   N24        1.0     0.443796     0.427921     0.570520    Uiso  ? N
   N25        1.0     0.222968     0.877621     0.331410    Uiso  ? N
   N26        1.0     0.115876     0.760613     0.092363    Uiso  ? N
   N27        1.0     0.883825     0.863660     0.834157    Uiso  ? N
   N28        1.0     0.760834     0.776033     0.564196    Uiso  ? N
   N29        1.0     0.552294     0.878113     0.323092    Uiso  ? N
   N30        1.0     0.437934     0.777253     0.080925    Uiso  ? N
   N31        1.0     0.224098     0.861168     0.806147    Uiso  ? N
   N32        1.0     0.128583     0.748910     0.566857    Uiso  ? N
   N33        1.0     0.890961     0.873114     0.326273    Uiso  ? N
   N34        1.0     0.775114     0.762445     0.079828    Uiso  ? N
   N35        1.0     0.562737     0.880791     0.818483    Uiso  ? N
   N36        1.0     0.445861     0.765484     0.576229    Uiso  ? N
