
#======================================================================
# CRYSTAL DATA
#----------------------------------------------------------------------
data_VESTA_phase_1

_chemical_name_common                  'Al   Hf   Mg   N                      '
_cell_length_a                         9.858900
_cell_length_b                         9.888322
_cell_length_c                         9.869042
_cell_angle_alpha                      90.361336
_cell_angle_beta                       90.231781
_cell_angle_gamma                      60.113201
_cell_volume                           834.146054
_space_group_name_H-M_alt              'P 1'
_space_group_IT_number                 1

loop_
_space_group_symop_operation_xyz
   'x, y, z'

loop_
   _atom_site_label
   _atom_site_occupancy
   _atom_site_fract_x
   _atom_site_fract_y
   _atom_site_fract_z
   _atom_site_adp_type
   _atom_site_U_iso_or_equiv
   _atom_site_type_symbol
   Al1        1.0     0.112029     0.092039     0.395521    Uiso  ? Al
   Al2        1.0     0.872735     0.211747     0.609068    Uiso  ? Al
   Al3        1.0     0.448787     0.090293     0.386703    Uiso  ? Al
   Al4        1.0     0.560693     0.194349     0.137937    Uiso  ? Al
   Al5        1.0     0.232275     0.208363     0.637061    Uiso  ? Al
   Al6        1.0     0.776501     0.092505     0.378013    Uiso  ? Al
   Al7        1.0     0.458379     0.095302     0.876327    Uiso  ? Al
   Al8        1.0     0.557185     0.209184     0.629974    Uiso  ? Al
   Al9        1.0     0.218709     0.546958     0.130381    Uiso  ? Al
   Al10       1.0     0.770703     0.429243     0.809513    Uiso  ? Al
   Al11       1.0     0.441176     0.422148     0.381360    Uiso  ? Al
   Al12       1.0     0.110022     0.438368     0.873307    Uiso  ? Al
   Al13       1.0     0.230748     0.540399     0.635765    Uiso  ? Al
   Al14       1.0     0.786005     0.429163     0.335259    Uiso  ? Al
   Al15       1.0     0.881656     0.544869     0.075010    Uiso  ? Al
   Al16       1.0     0.440761     0.413613     0.883389    Uiso  ? Al
   Al17       1.0     0.556603     0.536646     0.564261    Uiso  ? Al
   Al18       1.0     0.109083     0.764999     0.378381    Uiso  ? Al
   Al19       1.0     0.218780     0.870794     0.139269    Uiso  ? Al
   Al20       1.0     0.778910     0.770189     0.880085    Uiso  ? Al
   Al21       1.0     0.442306     0.773002     0.383898    Uiso  ? Al
   Al22       1.0     0.563552     0.870813     0.134936    Uiso  ? Al
   Al23       1.0     0.223570     0.861759     0.617573    Uiso  ? Al
   Al24       1.0     0.773144     0.772301     0.388761    Uiso  ? Al
   Al25       1.0     0.887272     0.872577     0.128260    Uiso  ? Al
   Al26       1.0     0.559818     0.881313     0.627110    Uiso  ? Al
   Hf1        1.0     0.226950     0.200125     0.110576    Uiso  ? Hf
   Hf2        1.0     0.101274     0.092907     0.851440    Uiso  ? Hf
   Hf3        1.0     0.110995     0.430526     0.376350    Uiso  ? Hf
   Hf4        1.0     0.556441     0.531586     0.111732    Uiso  ? Hf
   Hf5        1.0     0.450770     0.756004     0.859271    Uiso  ? Hf
   Mg1        1.0     0.769331     0.095142     0.886259    Uiso  ? Mg
   Mg2        1.0     0.893867     0.192323     0.138593    Uiso  ? Mg
   Mg3        1.0     0.882749     0.552025     0.609450    Uiso  ? Mg
   Mg4        1.0     0.887675     0.878408     0.635517    Uiso  ? Mg
   Mg5        1.0     0.106778     0.754146     0.884237    Uiso  ? Mg
   N1         1.0     0.229472     0.187459     0.325883    Uiso  ? N
   N2         1.0     0.118800     0.073743     0.065806    Uiso  ? N
   N3         1.0     0.873017     0.215867     0.812767    Uiso  ? N
   N4         1.0     0.763680     0.109081     0.567929    Uiso  ? N
   N5         1.0     0.546210     0.206450     0.330184    Uiso  ? N
   N6         1.0     0.464083     0.080234     0.071210    Uiso  ? N
   N7         1.0     0.229643     0.213584     0.841263    Uiso  ? N
   N8         1.0     0.117865     0.094573     0.593984    Uiso  ? N
   N9         1.0     0.895431     0.206331     0.358141    Uiso  ? N
   N10        1.0     0.769387     0.089308     0.099262    Uiso  ? N
   N11        1.0     0.542316     0.212734     0.819368    Uiso  ? N
   N12        1.0     0.441722     0.097757     0.578312    Uiso  ? N
   N13        1.0     0.230494     0.546570     0.323199    Uiso  ? N
   N14        1.0     0.104262     0.444072     0.082417    Uiso  ? N
   N15        1.0     0.882945     0.537254     0.862459    Uiso  ? N
   N16        1.0     0.762526     0.433571     0.612911    Uiso  ? N
   N17        1.0     0.551946     0.542228     0.350270    Uiso  ? N
   N18        1.0     0.433298     0.409044     0.082153    Uiso  ? N
   N19        1.0     0.231918     0.525700     0.827044    Uiso  ? N
   N20        1.0     0.130260     0.419489     0.586572    Uiso  ? N
   N21        1.0     0.876414     0.553397     0.359099    Uiso  ? N
   N22        1.0     0.791458     0.430123     0.134624    Uiso  ? N
   N23        1.0     0.565226     0.516255     0.881986    Uiso  ? N
   N24        1.0     0.444172     0.428303     0.573905    Uiso  ? N
   N25        1.0     0.223492     0.877646     0.335680    Uiso  ? N
   N26        1.0     0.115852     0.760807     0.095732    Uiso  ? N
   N27        1.0     0.884286     0.868276     0.841589    Uiso  ? N
   N28        1.0     0.760290     0.779945     0.574528    Uiso  ? N
   N29        1.0     0.552380     0.876658     0.327459    Uiso  ? N
   N30        1.0     0.437273     0.777074     0.079209    Uiso  ? N
   N31        1.0     0.223474     0.859072     0.808442    Uiso  ? N
   N32        1.0     0.127375     0.748486     0.568408    Uiso  ? N
   N33        1.0     0.889870     0.870774     0.327426    Uiso  ? N
   N34        1.0     0.772799     0.763093     0.078834    Uiso  ? N
   N35        1.0     0.560664     0.883608     0.821610    Uiso  ? N
   N36        1.0     0.447722     0.762374     0.584449    Uiso  ? N
