
#======================================================================
# CRYSTAL DATA
#----------------------------------------------------------------------
data_VESTA_phase_1

_chemical_name_common                  'Al   Hf   Mg   N                      '
_cell_length_a                         9.778793
_cell_length_b                         9.812623
_cell_length_c                         10.109391
_cell_angle_alpha                      90.375595
_cell_angle_beta                       90.069641
_cell_angle_gamma                      60.076466
_cell_volume                           840.716521
_space_group_name_H-M_alt              'P 1'
_space_group_IT_number                 1

loop_
_space_group_symop_operation_xyz
   'x, y, z'

loop_
   _atom_site_label
   _atom_site_occupancy
   _atom_site_fract_x
   _atom_site_fract_y
   _atom_site_fract_z
   _atom_site_adp_type
   _atom_site_U_iso_or_equiv
   _atom_site_type_symbol
   Al1        1.0     0.109286     0.092423     0.396155    Uiso  ? Al
   Al2        1.0     0.874025     0.211291     0.619976    Uiso  ? Al
   Al3        1.0     0.450584     0.090071     0.388721    Uiso  ? Al
   Al4        1.0     0.561749     0.192559     0.138259    Uiso  ? Al
   Al5        1.0     0.230009     0.208034     0.637514    Uiso  ? Al
   Al6        1.0     0.777273     0.095008     0.383972    Uiso  ? Al
   Al7        1.0     0.456628     0.095779     0.876201    Uiso  ? Al
   Al8        1.0     0.556279     0.210239     0.631533    Uiso  ? Al
   Al9        1.0     0.217836     0.546288     0.132630    Uiso  ? Al
   Al10       1.0     0.770076     0.430345     0.812994    Uiso  ? Al
   Al11       1.0     0.443009     0.421946     0.382321    Uiso  ? Al
   Al12       1.0     0.108187     0.439040     0.876283    Uiso  ? Al
   Al13       1.0     0.231082     0.541067     0.637450    Uiso  ? Al
   Al14       1.0     0.786080     0.427693     0.326620    Uiso  ? Al
   Al15       1.0     0.883949     0.547777     0.098818    Uiso  ? Al
   Al16       1.0     0.439813     0.412852     0.885330    Uiso  ? Al
   Al17       1.0     0.558493     0.537678     0.562393    Uiso  ? Al
   Al18       1.0     0.110263     0.765623     0.381658    Uiso  ? Al
   Al19       1.0     0.217794     0.870561     0.141325    Uiso  ? Al
   Al20       1.0     0.781981     0.766881     0.883759    Uiso  ? Al
   Al21       1.0     0.441877     0.773698     0.383170    Uiso  ? Al
   Al22       1.0     0.563032     0.872419     0.135928    Uiso  ? Al
   Al23       1.0     0.223867     0.863376     0.619794    Uiso  ? Al
   Al24       1.0     0.772890     0.771851     0.386616    Uiso  ? Al
   Al25       1.0     0.887589     0.873523     0.134056    Uiso  ? Al
   Al26       1.0     0.559834     0.879585     0.627025    Uiso  ? Al
   Hf1        1.0     0.226119     0.201468     0.118181    Uiso  ? Hf
   Hf2        1.0     0.102694     0.092395     0.858880    Uiso  ? Hf
   Hf3        1.0     0.111313     0.431667     0.383445    Uiso  ? Hf
   Hf4        1.0     0.555179     0.530246     0.110831    Uiso  ? Hf
   Hf5        1.0     0.450720     0.757313     0.867532    Uiso  ? Hf
   Mg1        1.0     0.769848     0.091193     0.885265    Uiso  ? Mg
   Mg2        1.0     0.893185     0.188634     0.138461    Uiso  ? Mg
   Mg3        1.0     0.882393     0.555118     0.627311    Uiso  ? Mg
   Mg4        1.0     0.887060     0.876802     0.633501    Uiso  ? Mg
   Mg5        1.0     0.106027     0.753971     0.885135    Uiso  ? Mg
   N1         1.0     0.228968     0.189487     0.327418    Uiso  ? N
   N2         1.0     0.119875     0.073804     0.066553    Uiso  ? N
   N3         1.0     0.874331     0.214286     0.814257    Uiso  ? N
   N4         1.0     0.764532     0.110728     0.568542    Uiso  ? N
   N5         1.0     0.549180     0.205398     0.327749    Uiso  ? N
   N6         1.0     0.461958     0.081009     0.068292    Uiso  ? N
   N7         1.0     0.229108     0.213269     0.835427    Uiso  ? N
   N8         1.0     0.114422     0.095723     0.589949    Uiso  ? N
   N9         1.0     0.894681     0.205667     0.349902    Uiso  ? N
   N10        1.0     0.769311     0.086413     0.091660    Uiso  ? N
   N11        1.0     0.542063     0.212601     0.816858    Uiso  ? N
   N12        1.0     0.441568     0.098107     0.576198    Uiso  ? N
   N13        1.0     0.230868     0.546073     0.321372    Uiso  ? N
   N14        1.0     0.105462     0.443379     0.076764    Uiso  ? N
   N15        1.0     0.882876     0.538815     0.855902    Uiso  ? N
   N16        1.0     0.761950     0.434443     0.619784    Uiso  ? N
   N17        1.0     0.553899     0.541545     0.348862    Uiso  ? N
   N18        1.0     0.431911     0.406965     0.080384    Uiso  ? N
   N19        1.0     0.232136     0.525230     0.824249    Uiso  ? N
   N20        1.0     0.127364     0.421694     0.586209    Uiso  ? N
   N21        1.0     0.878566     0.554821     0.336212    Uiso  ? N
   N22        1.0     0.791000     0.427260     0.131538    Uiso  ? N
   N23        1.0     0.564859     0.516171     0.887528    Uiso  ? N
   N24        1.0     0.444121     0.428453     0.570577    Uiso  ? N
   N25        1.0     0.222680     0.877875     0.332169    Uiso  ? N
   N26        1.0     0.114978     0.760488     0.093124    Uiso  ? N
   N27        1.0     0.884861     0.865065     0.832816    Uiso  ? N
   N28        1.0     0.760124     0.777207     0.566714    Uiso  ? N
   N29        1.0     0.552214     0.877717     0.323795    Uiso  ? N
   N30        1.0     0.436867     0.777826     0.080059    Uiso  ? N
   N31        1.0     0.225130     0.859211     0.806252    Uiso  ? N
   N32        1.0     0.128491     0.748824     0.566666    Uiso  ? N
   N33        1.0     0.890139     0.873076     0.327773    Uiso  ? N
   N34        1.0     0.773433     0.765090     0.077902    Uiso  ? N
   N35        1.0     0.561998     0.882085     0.818644    Uiso  ? N
   N36        1.0     0.446307     0.764841     0.577432    Uiso  ? N
