# generated using pymatgen
data_ScAl17N18
_symmetry_space_group_name_H-M   'P 1'
_cell_length_a   9.69859802
_cell_length_b   9.69523573
_cell_length_c   9.42341115
_cell_angle_alpha   90.01715360
_cell_angle_beta   90.00000044
_cell_angle_gamma   59.98853300
_symmetry_Int_Tables_number   1
_chemical_formula_structural   ScAl17N18
_chemical_formula_sum   'Sc2 Al34 N36'
_cell_volume   767.28354450
_cell_formula_units_Z   2
loop_
 _symmetry_equiv_pos_site_id
 _symmetry_equiv_pos_as_xyz
  1  'x, y, z'
loop_
 _atom_site_type_symbol
 _atom_site_label
 _atom_site_symmetry_multiplicity
 _atom_site_fract_x
 _atom_site_fract_y
 _atom_site_fract_z
 _atom_site_occupancy
  Al  Al0  1  0.10775695  0.10115275  0.33461035  1
  Al  Al1  1  0.22493602  0.21215163  0.08348663  1
  Al  Al2  1  0.77294156  0.09618400  0.82922499  1
  Al  Al3  1  0.88629827  0.20675978  0.57799391  1
  Al  Al4  1  0.44639053  0.09336219  0.33148084  1
  Al  Al5  1  0.55606249  0.20454170  0.08139263  1
  Al  Al6  1  0.22360864  0.20675978  0.57799388  1
  Al  Al7  1  0.77691395  0.09336218  0.33148083  1
  Al  Al8  1  0.87957904  0.21215165  0.08348660  1
  Al  Al9  1  0.44754112  0.09618404  0.82922497  1
  Al  Al10  1  0.55491018  0.20684634  0.57903718  1
  Al  Al11  1  0.11097284  0.42918124  0.33137977  1
  Al  Al12  1  0.21990355  0.53645279  0.07886834  1
  Al  Al13  1  0.77415434  0.43120706  0.82873785  1
  Al  Al14  1  0.88846826  0.53973016  0.57954399  1
  Al  Al15  1  0.44438439  0.42789790  0.32875339  1
  Al  Al16  1  0.56031030  0.53645282  0.07886834  1
  Al  Al17  1  0.11130528  0.43120705  0.82873784  1
  Al  Al18  1  0.22442131  0.53627031  0.58149191  1
  Al  Al19  1  0.77651256  0.42918127  0.33137976  1
  Al  Al20  1  0.88918748  0.53829170  0.08184609  1
  Al  Al21  1  0.44470158  0.42726350  0.83285744  1
  Al  Al22  1  0.55597505  0.53627032  0.58149192  1
  Al  Al23  1  0.10620071  0.75619820  0.33664589  1
  Al  Al24  1  0.77835596  0.75995472  0.83173469  1
  Al  Al25  1  0.88641274  0.87275784  0.58212792  1
  Al  Al26  1  0.45426777  0.75619822  0.33664586  1
  Al  Al27  1  0.55913366  0.87122724  0.07887389  1
  Al  Al28  1  0.11174730  0.75753296  0.82600320  1
  Al  Al29  1  0.22267698  0.87131275  0.57667928  1
  Al  Al30  1  0.77740541  0.76185585  0.32868854  1
  Al  Al31  1  0.88630579  0.87122719  0.07887388  1
  Al  Al32  1  0.44738643  0.75753295  0.82600323  1
  Al  Al33  1  0.55749609  0.87275785  0.58212791  1
  Sc  Sc34  1  0.10986985  0.09692706  0.84329366  1
  Sc  Sc35  1  0.22589903  0.86486863  0.10216482  1
  N  N36  1  0.22398936  0.20691257  0.37557392  1
  N  N37  1  0.10093356  0.11479955  0.12246917  1
  N  N38  1  0.86578077  0.21725681  0.88097603  1
  N  N39  1  0.77639862  0.09523912  0.62619996  1
  N  N40  1  0.55497003  0.20672662  0.37638906  1
  N  N41  1  0.44656815  0.09240362  0.12922119  1
  N  N42  1  0.23362913  0.21725680  0.88097606  1
  N  N43  1  0.11086173  0.09494321  0.61314786  1
  N  N44  1  0.88576472  0.20691259  0.37557393  1
  N  N45  1  0.77769491  0.09240362  0.12922116  1
  N  N46  1  0.55572056  0.20522560  0.87889115  1
  N  N47  1  0.44502893  0.09523913  0.62619995  1
  N  N48  1  0.22496604  0.53538808  0.38030627  1
  N  N49  1  0.11006491  0.42956998  0.12985225  1
  N  N50  1  0.88959666  0.53747336  0.87795350  1
  N  N51  1  0.77824835  0.42822693  0.62589232  1
  N  N52  1  0.55631256  0.53538811  0.38030628  1
  N  N53  1  0.44379242  0.42908182  0.12485498  1
  N  N54  1  0.22144821  0.53961225  0.87553943  1
  N  N55  1  0.11019138  0.42822692  0.62589230  1
  N  N56  1  0.88827170  0.54012328  0.37683872  1
  N  N57  1  0.77703173  0.42957000  0.12985224  1
  N  N58  1  0.55560623  0.53961224  0.87553944  1
  N  N59  1  0.44499673  0.42667322  0.63006572  1
  N  N60  1  0.22285538  0.87095594  0.36617655  1
  N  N61  1  0.09829327  0.74862059  0.13528957  1
  N  N62  1  0.88935378  0.87285843  0.87472024  1
  N  N63  1  0.77834489  0.75997688  0.62977359  1
  N  N64  1  0.55817296  0.87304339  0.38075897  1
  N  N65  1  0.46975278  0.74862061  0.13528954  1
  N  N66  1  0.23220939  0.85224792  0.87339012  1
  N  N67  1  0.11067339  0.76056430  0.62158191  1
  N  N68  1  0.88545035  0.87304339  0.38075899  1
  N  N69  1  0.77764718  0.76137228  0.12534783  1
  N  N70  1  0.55445446  0.87285846  0.87472025  1
  N  N71  1  0.44542899  0.76056430  0.62158193  1
