# generated using pymatgen
data_ScAl17N18
_symmetry_space_group_name_H-M   'P 1'
_cell_length_a   9.50040377
_cell_length_b   9.49703013
_cell_length_c   9.99182805
_cell_angle_alpha   89.98575501
_cell_angle_beta   90.00000512
_cell_angle_gamma   59.98825306
_symmetry_Int_Tables_number   1
_chemical_formula_structural   ScAl17N18
_chemical_formula_sum   'Sc2 Al34 N36'
_cell_volume   780.64579592
_cell_formula_units_Z   2
loop_
 _symmetry_equiv_pos_site_id
 _symmetry_equiv_pos_as_xyz
  1  'x, y, z'
loop_
 _atom_site_type_symbol
 _atom_site_label
 _atom_site_symmetry_multiplicity
 _atom_site_fract_x
 _atom_site_fract_y
 _atom_site_fract_z
 _atom_site_occupancy
  Al  Al0  1  0.11017188  0.09632292  0.40941764  1
  Al  Al1  1  0.22171372  0.20906330  0.15589038  1
  Al  Al2  1  0.77357126  0.09560207  0.90294497  1
  Al  Al3  1  0.88062235  0.20971898  0.64943666  1
  Al  Al4  1  0.44587220  0.09399514  0.40179787  1
  Al  Al5  1  0.55528871  0.20608930  0.15239142  1
  Al  Al6  1  0.22632537  0.20971897  0.64943666  1
  Al  Al7  1  0.77679934  0.09399514  0.40179784  1
  Al  Al8  1  0.88588966  0.20906333  0.15589037  1
  Al  Al9  1  0.44749338  0.09560208  0.90294496  1
  Al  Al10  1  0.55571748  0.20523176  0.65281830  1
  Al  Al11  1  0.11008352  0.42947377  0.40200030  1
  Al  Al12  1  0.22146961  0.53587094  0.15262313  1
  Al  Al13  1  0.77341090  0.43055199  0.90326417  1
  Al  Al14  1  0.88887018  0.53892634  0.65244065  1
  Al  Al15  1  0.44443874  0.42778919  0.40243484  1
  Al  Al16  1  0.55932615  0.53587096  0.15262314  1
  Al  Al17  1  0.11270381  0.43055200  0.90326417  1
  Al  Al18  1  0.22252154  0.53744757  0.65267361  1
  Al  Al19  1  0.77710939  0.42947378  0.40200028  1
  Al  Al20  1  0.88895264  0.53876140  0.15148896  1
  Al  Al21  1  0.44440986  0.42784695  0.90147880  1
  Al  Al22  1  0.55669759  0.53744756  0.65267362  1
  Al  Al23  1  0.10957205  0.75992600  0.40669907  1
  Al  Al24  1  0.77769265  0.76128137  0.90247201  1
  Al  Al25  1  0.88725137  0.87270830  0.65232245  1
  Al  Al26  1  0.44716863  0.75992600  0.40669908  1
  Al  Al27  1  0.55970585  0.87078796  0.15239940  1
  Al  Al28  1  0.10943422  0.75500695  0.89951834  1
  Al  Al29  1  0.22552893  0.86560882  0.65038935  1
  Al  Al30  1  0.77800618  0.76065429  0.40252669  1
  Al  Al31  1  0.88617288  0.87078792  0.15239939  1
  Al  Al32  1  0.45222550  0.75500695  0.89951835  1
  Al  Al33  1  0.55670702  0.87270830  0.65232245  1
  Sc  Sc34  1  0.10863865  0.09938925  0.88746982  1
  Sc  Sc35  1  0.22345501  0.86975664  0.15004332  1
  N  N36  1  0.22244538  0.20596181  0.34895736  1
  N  N37  1  0.10190870  0.11284928  0.09952406  1
  N  N38  1  0.86433222  0.21767125  0.83805410  1
  N  N39  1  0.77632899  0.09348289  0.59271423  1
  N  N40  1  0.55523597  0.20619475  0.34403770  1
  N  N41  1  0.44418199  0.09417386  0.09633092  1
  N  N42  1  0.23466325  0.21767124  0.83805414  1
  N  N43  1  0.11030804  0.09605060  0.60672036  1
  N  N44  1  0.88825948  0.20596183  0.34895735  1
  N  N45  1  0.77831082  0.09417386  0.09633093  1
  N  N46  1  0.55547587  0.20571491  0.84517857  1
  N  N47  1  0.44685480  0.09348288  0.59271426  1
  N  N48  1  0.22243421  0.53928515  0.34506545  1
  N  N49  1  0.11127856  0.42721313  0.09571652  1
  N  N50  1  0.88938112  0.53790441  0.84580058  1
  N  N51  1  0.77700327  0.43011915  0.59277862  1
  N  N52  1  0.55494732  0.53928516  0.34506545  1
  N  N53  1  0.44407664  0.42851344  0.09486107  1
  N  N54  1  0.22338529  0.53705637  0.84339455  1
  N  N55  1  0.10954424  0.43011915  0.59277862  1
  N  N56  1  0.88866316  0.53934038  0.34378123  1
  N  N57  1  0.77817500  0.42721315  0.09571652  1
  N  N58  1  0.55622504  0.53705637  0.84339450  1
  N  N59  1  0.44463759  0.42739148  0.59476492  1
  N  N60  1  0.22214755  0.87237160  0.36352933  1
  N  N61  1  0.10067167  0.75058388  0.08953516  1
  N  N62  1  0.88702946  0.87370334  0.84397478  1
  N  N63  1  0.77803398  0.76059875  0.59471192  1
  N  N64  1  0.55592963  0.87180269  0.34497659  1
  N  N65  1  0.46541111  0.75058391  0.08953519  1
  N  N66  1  0.23296278  0.85074121  0.84426167  1
  N  N67  1  0.10917258  0.75928564  0.59724725  1
  N  N68  1  0.88893437  0.87180267  0.34497657  1
  N  N69  1  0.77798702  0.76069261  0.09435052  1
  N  N70  1  0.55593388  0.87370334  0.84397476  1
  N  N71  1  0.44820846  0.75928564  0.59724728  1
