# generated using pymatgen
data_ScAl17N18
_symmetry_space_group_name_H-M   'P 1'
_cell_length_a   9.58824078
_cell_length_b   9.58472530
_cell_length_c   9.74833457
_cell_angle_alpha   90.00838502
_cell_angle_beta   90.00000396
_cell_angle_gamma   59.98787702
_symmetry_Int_Tables_number   1
_chemical_formula_structural   ScAl17N18
_chemical_formula_sum   'Sc2 Al34 N36'
_cell_volume   775.75857975
_cell_formula_units_Z   2
loop_
 _symmetry_equiv_pos_site_id
 _symmetry_equiv_pos_as_xyz
  1  'x, y, z'
loop_
 _atom_site_type_symbol
 _atom_site_label
 _atom_site_symmetry_multiplicity
 _atom_site_fract_x
 _atom_site_fract_y
 _atom_site_fract_z
 _atom_site_occupancy
  Al  Al0  1  0.11070703  0.09525257  0.38738224  1
  Al  Al1  1  0.22136985  0.20898668  0.13466866  1
  Al  Al2  1  0.77374105  0.09553863  0.88230553  1
  Al  Al3  1  0.87921253  0.21035390  0.62689956  1
  Al  Al4  1  0.44631288  0.09388581  0.37996866  1
  Al  Al5  1  0.55516148  0.20634376  0.13069168  1
  Al  Al6  1  0.22710025  0.21035389  0.62689956  1
  Al  Al7  1  0.77646798  0.09388581  0.37996862  1
  Al  Al8  1  0.88631014  0.20898671  0.13466861  1
  Al  Al9  1  0.44738697  0.09553867  0.88230553  1
  Al  Al10  1  0.55584046  0.20498579  0.63224331  1
  Al  Al11  1  0.10957065  0.42974865  0.38037687  1
  Al  Al12  1  0.22176398  0.53556442  0.13228777  1
  Al  Al13  1  0.77304279  0.43049390  0.88253755  1
  Al  Al14  1  0.88891866  0.53882939  0.63196017  1
  Al  Al15  1  0.44468005  0.42730657  0.38166462  1
  Al  Al16  1  0.55933829  0.53556442  0.13228776  1
  Al  Al17  1  0.11313000  0.43049389  0.88253757  1
  Al  Al18  1  0.22243440  0.53753793  0.63081312  1
  Al  Al19  1  0.77734736  0.42974866  0.38037685  1
  Al  Al20  1  0.88881571  0.53903529  0.12969472  1
  Al  Al21  1  0.44428598  0.42809472  0.88009039  1
  Al  Al22  1  0.55669439  0.53753791  0.63081311  1
  Al  Al23  1  0.10999002  0.76015742  0.38408342  1
  Al  Al24  1  0.77751156  0.76164355  0.88087098  1
  Al  Al25  1  0.88720758  0.87293168  0.63054947  1
  Al  Al26  1  0.44651922  0.76015742  0.38408341  1
  Al  Al27  1  0.56017303  0.87057764  0.13193151  1
  Al  Al28  1  0.10861688  0.75445979  0.87864964  1
  Al  Al29  1  0.22590956  0.86484757  0.62997744  1
  Al  Al30  1  0.77824054  0.76018557  0.38194266  1
  Al  Al31  1  0.88591602  0.87057760  0.13193150  1
  Al  Al32  1  0.45358999  0.75445980  0.87864966  1
  Al  Al33  1  0.55652745  0.87293168  0.63054948  1
  Sc  Sc34  1  0.10766654  0.10133354  0.86101616  1
  Sc  Sc35  1  0.22310039  0.87046589  0.12161486  1
  N  N36  1  0.22237840  0.20572030  0.33223990  1
  N  N37  1  0.10103425  0.11459816  0.07946848  1
  N  N38  1  0.86294985  0.21835009  0.82014361  1
  N  N39  1  0.77574042  0.09349262  0.57477640  1
  N  N40  1  0.55515964  0.20634741  0.32613067  1
  N  N41  1  0.44411061  0.09391274  0.07965360  1
  N  N42  1  0.23536672  0.21835007  0.82014361  1
  N  N43  1  0.11056116  0.09554429  0.59063119  1
  N  N44  1  0.88856798  0.20572032  0.33223985  1
  N  N45  1  0.77864332  0.09391271  0.07965358  1
  N  N46  1  0.55559809  0.20547052  0.82867212  1
  N  N47  1  0.44743364  0.09349262  0.57477644  1
  N  N48  1  0.22283738  0.53876391  0.32848329  1
  N  N49  1  0.11159275  0.42716023  0.07899855  1
  N  N50  1  0.88950923  0.53764828  0.82922563  1
  N  N51  1  0.77696633  0.43070181  0.57502542  1
  N  N52  1  0.55506540  0.53876390  0.32848329  1
  N  N53  1  0.44393012  0.42880643  0.07737759  1
  N  N54  1  0.22329675  0.53714951  0.82559543  1
  N  N55  1  0.10899853  0.43070181  0.57502543  1
  N  N56  1  0.88853910  0.53958851  0.32586447  1
  N  N57  1  0.77791369  0.42716026  0.07899852  1
  N  N58  1  0.55622044  0.53714951  0.82559543  1
  N  N59  1  0.44486767  0.42693133  0.57781879  1
  N  N60  1  0.22217233  0.87232201  0.34193428  1
  N  N61  1  0.09986479  0.74962312  0.07312214  1
  N  N62  1  0.88689495  0.87394156  0.82619101  1
  N  N63  1  0.77821386  0.76023896  0.57796667  1
  N  N64  1  0.55646674  0.87153103  0.32828756  1
  N  N65  1  0.46717870  0.74962316  0.07312218  1
  N  N66  1  0.23289793  0.85087082  0.83088531  1
  N  N67  1  0.10951153  0.75965865  0.57945565  1
  N  N68  1  0.88866894  0.87153101  0.32828754  1
  N  N69  1  0.77782066  0.76102532  0.07670444  1
  N  N70  1  0.55583018  0.87394156  0.82619103  1
  N  N71  1  0.44749649  0.75965864  0.57945565  1
