# generated using pymatgen
data_ScAl17N18
_symmetry_space_group_name_H-M   'P 1'
_cell_length_a   9.93480156
_cell_length_b   9.93252492
_cell_length_c   8.68681652
_cell_angle_alpha   90.02457602
_cell_angle_beta   90.00000236
_cell_angle_gamma   59.99233125
_symmetry_Int_Tables_number   1
_chemical_formula_structural   ScAl17N18
_chemical_formula_sum   'Sc2 Al34 N36'
_cell_volume   742.29497764
_cell_formula_units_Z   2
loop_
 _symmetry_equiv_pos_site_id
 _symmetry_equiv_pos_as_xyz
  1  'x, y, z'
loop_
 _atom_site_type_symbol
 _atom_site_label
 _atom_site_symmetry_multiplicity
 _atom_site_fract_x
 _atom_site_fract_y
 _atom_site_fract_z
 _atom_site_occupancy
  Al  Al0  1  0.10963807  0.09739058  0.36261063  1
  Al  Al1  1  0.22305451  0.20978979  0.12027650  1
  Al  Al2  1  0.77466272  0.09487374  0.86627350  1
  Al  Al3  1  0.88163522  0.20915532  0.60695711  1
  Al  Al4  1  0.44714678  0.09398250  0.36380636  1
  Al  Al5  1  0.55497943  0.20670774  0.11385973  1
  Al  Al6  1  0.22587600  0.20915535  0.60695707  1
  Al  Al7  1  0.77553745  0.09398251  0.36380635  1
  Al  Al8  1  0.88382236  0.20978973  0.12027643  1
  Al  Al9  1  0.44713026  0.09487379  0.86627349  1
  Al  Al10  1  0.55588066  0.20490519  0.61661631  1
  Al  Al11  1  0.10887219  0.43037650  0.36466235  1
  Al  Al12  1  0.22251330  0.53523668  0.11730778  1
  Al  Al13  1  0.77349853  0.43040381  0.86586105  1
  Al  Al14  1  0.88903956  0.53858743  0.61708957  1
  Al  Al15  1  0.44501435  0.42663809  0.36671046  1
  Al  Al16  1  0.55891665  0.53523667  0.11730781  1
  Al  Al17  1  0.11276441  0.43040384  0.86586104  1
  Al  Al18  1  0.22254693  0.53736188  0.61336478  1
  Al  Al19  1  0.77741812  0.43037646  0.36466235  1
  Al  Al20  1  0.88848473  0.53969712  0.11285862  1
  Al  Al21  1  0.44416453  0.42833777  0.86325057  1
  Al  Al22  1  0.55675777  0.53736187  0.61336477  1
  Al  Al23  1  0.10874535  0.75871020  0.36742022  1
  Al  Al24  1  0.77731239  0.76204200  0.86309994  1
  Al  Al25  1  0.88696118  0.87342369  0.61358273  1
  Al  Al26  1  0.44921120  0.75871023  0.36742022  1
  Al  Al27  1  0.56023816  0.87076928  0.11659913  1
  Al  Al28  1  0.10913351  0.75575439  0.85978191  1
  Al  Al29  1  0.22437965  0.86790730  0.60532055  1
  Al  Al30  1  0.77849263  0.75968152  0.36754573  1
  Al  Al31  1  0.88565917  0.87076925  0.11659918  1
  Al  Al32  1  0.45177884  0.75575438  0.85978190  1
  Al  Al33  1  0.55628173  0.87342370  0.61358276  1
  Sc  Sc34  1  0.10809369  0.10047945  0.85086297  1
  Sc  Sc35  1  0.22469433  0.86727789  0.10814270  1
  N  N36  1  0.22372202  0.20698979  0.34981806  1
  N  N37  1  0.10230763  0.11205167  0.10620664  1
  N  N38  1  0.86759228  0.21608906  0.83828134  1
  N  N39  1  0.77513117  0.09398795  0.59055720  1
  N  N40  1  0.55493662  0.20679324  0.34096526  1
  N  N41  1  0.44460230  0.09343748  0.09702079  1
  N  N42  1  0.23298515  0.21608912  0.83828123  1
  N  N43  1  0.11022489  0.09621696  0.59350862  1
  N  N44  1  0.88595468  0.20698979  0.34981801  1
  N  N45  1  0.77862710  0.09343743  0.09702080  1
  N  N46  1  0.55569686  0.20527280  0.84666074  1
  N  N47  1  0.44754768  0.09398793  0.59055722  1
  N  N48  1  0.22365854  0.53752880  0.34641220  1
  N  N49  1  0.11150896  0.42765659  0.09609283  1
  N  N50  1  0.88947300  0.53772054  0.84669598  1
  N  N51  1  0.77738040  0.43088152  0.59112262  1
  N  N52  1  0.55547922  0.53752881  0.34641224  1
  N  N53  1  0.44376305  0.42914075  0.09305608  1
  N  N54  1  0.22320550  0.53733119  0.84113350  1
  N  N55  1  0.10840486  0.43088160  0.59112256  1
  N  N56  1  0.88825372  0.54015906  0.34089882  1
  N  N57  1  0.77750133  0.42765655  0.09609282  1
  N  N58  1  0.55612984  0.53733121  0.84113350  1
  N  N59  1  0.44522777  0.42621130  0.59486018  1
  N  N60  1  0.22320958  0.87024740  0.35936561  1
  N  N61  1  0.10087617  0.75033746  0.09375470  1
  N  N62  1  0.88714294  0.87405100  0.84167448  1
  N  N63  1  0.77849361  0.75967963  0.59578430  1
  N  N64  1  0.55754566  0.87162231  0.34603642  1
  N  N65  1  0.46545321  0.75033745  0.09375470  1
  N  N66  1  0.23104115  0.85458419  0.84405040  1
  N  N67  1  0.10924345  0.75975080  0.59531891  1
  N  N68  1  0.88749855  0.87162231  0.34603642  1
  N  N69  1  0.77760047  0.76146592  0.09167686  1
  N  N70  1  0.55547255  0.87405102  0.84167454  1
  N  N71  1  0.44767260  0.75975079  0.59531896  1
