# generated using pymatgen
data_ScAl17N18
_symmetry_space_group_name_H-M   'P 1'
_cell_length_a   9.97506163
_cell_length_b   9.97292551
_cell_length_c   8.56311438
_cell_angle_alpha   90.02533412
_cell_angle_beta   90.00000173
_cell_angle_gamma   59.99280813
_symmetry_Int_Tables_number   1
_chemical_formula_structural   ScAl17N18
_chemical_formula_sum   'Sc2 Al34 N36'
_cell_volume   737.68169169
_cell_formula_units_Z   2
loop_
 _symmetry_equiv_pos_site_id
 _symmetry_equiv_pos_as_xyz
  1  'x, y, z'
loop_
 _atom_site_type_symbol
 _atom_site_label
 _atom_site_symmetry_multiplicity
 _atom_site_fract_x
 _atom_site_fract_y
 _atom_site_fract_z
 _atom_site_occupancy
  Al  Al0  1  0.10940083  0.09786513  0.35993321  1
  Al  Al1  1  0.22331661  0.20993385  0.11599903  1
  Al  Al2  1  0.77441479  0.09488595  0.86200234  1
  Al  Al3  1  0.88216499  0.20888832  0.60439499  1
  Al  Al4  1  0.44683449  0.09395393  0.36063111  1
  Al  Al5  1  0.55510655  0.20645346  0.11093196  1
  Al  Al6  1  0.22561319  0.20888835  0.60439499  1
  Al  Al7  1  0.77587833  0.09395392  0.36063110  1
  Al  Al8  1  0.88341620  0.20993378  0.11599900  1
  Al  Al9  1  0.44736597  0.09488601  0.86200235  1
  Al  Al10  1  0.55574486  0.20517676  0.61205866  1
  Al  Al11  1  0.10927548  0.43001470  0.36136812  1
  Al  Al12  1  0.22241655  0.53525113  0.11329232  1
  Al  Al13  1  0.77368208  0.43068849  0.86160043  1
  Al  Al14  1  0.88896372  0.53873908  0.61259331  1
  Al  Al15  1  0.44489254  0.42688172  0.36282757  1
  Al  Al16  1  0.55899891  0.53525115  0.11329232  1
  Al  Al17  1  0.11229619  0.43068852  0.86160040  1
  Al  Al18  1  0.22270994  0.53739229  0.60981836  1
  Al  Al19  1  0.77737664  0.43001468  0.36136809  1
  Al  Al20  1  0.88856494  0.53953671  0.11010770  1
  Al  Al21  1  0.44428717  0.42809246  0.85981874  1
  Al  Al22  1  0.55656432  0.53739228  0.60981837  1
  Al  Al23  1  0.10857836  0.75853626  0.36386945  1
  Al  Al24  1  0.77748854  0.76168971  0.85964537  1
  Al  Al25  1  0.88704565  0.87324732  0.61005481  1
  Al  Al26  1  0.44955216  0.75853628  0.36386944  1
  Al  Al27  1  0.56002690  0.87101080  0.11263607  1
  Al  Al28  1  0.10929617  0.75599038  0.85621406  1
  Al  Al29  1  0.22432439  0.86801779  0.60357014  1
  Al  Al30  1  0.77834107  0.75998467  0.36356750  1
  Al  Al31  1  0.88562892  0.87101074  0.11263608  1
  Al  Al32  1  0.45138019  0.75599042  0.85621406  1
  Al  Al33  1  0.55637360  0.87324734  0.61005482  1
  Sc  Sc34  1  0.10824395  0.10017906  0.85062296  1
  Sc  Sc35  1  0.22478856  0.86708968  0.10771287  1
  N  N36  1  0.22385915  0.20705577  0.35210872  1
  N  N37  1  0.10248213  0.11170272  0.10908670  1
  N  N38  1  0.86831707  0.21577741  0.84318194  1
  N  N39  1  0.77543275  0.09406443  0.59461985  1
  N  N40  1  0.55501276  0.20664092  0.34525496  1
  N  N41  1  0.44494873  0.09340959  0.10026268  1
  N  N42  1  0.23257193  0.21577748  0.84318190  1
  N  N43  1  0.11016627  0.09633424  0.59382486  1
  N  N44  1  0.88575156  0.20705574  0.35210868  1
  N  N45  1  0.77830862  0.09340952  0.10026265  1
  N  N46  1  0.55561128  0.20544389  0.84965819  1
  N  N47  1  0.44716960  0.09406444  0.59461990  1
  N  N48  1  0.22366558  0.53734758  0.34989570  1
  N  N49  1  0.11111902  0.42802115  0.09952365  1
  N  N50  1  0.88938745  0.53789158  0.84947411  1
  N  N51  1  0.77738012  0.43049029  0.59505253  1
  N  N52  1  0.55565333  0.53734760  0.34989570  1
  N  N53  1  0.44388445  0.42889800  0.09688935  1
  N  N54  1  0.22318948  0.53749411  0.84502930  1
  N  N55  1  0.10879642  0.43049034  0.59505251  1
  N  N56  1  0.88833045  0.54000559  0.34532435  1
  N  N57  1  0.77752677  0.42802110  0.09952366  1
  N  N58  1  0.55598287  0.53749413  0.84502930  1
  N  N59  1  0.44512062  0.42642563  0.59826184  1
  N  N60  1  0.22327312  0.87012031  0.36123636  1
  N  N61  1  0.10112275  0.75064419  0.09819611  1
  N  N62  1  0.88731897  0.87379854  0.84541473  1
  N  N63  1  0.77839967  0.75986755  0.59908606  1
  N  N64  1  0.55748161  0.87185451  0.34961922  1
  N  N65  1  0.46489991  0.75064422  0.09819611  1
  N  N66  1  0.23085677  0.85495287  0.84485840  1
  N  N67  1  0.10926671  0.75973138  0.59819597  1
  N  N68  1  0.88733040  0.87185449  0.34961918  1
  N  N69  1  0.77771112  0.76124467  0.09563763  1
  N  N70  1  0.55554892  0.87379860  0.84541478  1
  N  N71  1  0.44766878  0.75973138  0.59819605  1
