# generated using pymatgen
data_ScAl17N18
_symmetry_space_group_name_H-M   'P 1'
_cell_length_a   9.50047375
_cell_length_b   9.49709915
_cell_length_c   9.99164158
_cell_angle_alpha   89.98603887
_cell_angle_beta   90.00002083
_cell_angle_gamma   59.98824221
_symmetry_Int_Tables_number   1
_chemical_formula_structural   ScAl17N18
_chemical_formula_sum   'Sc2 Al34 N36'
_cell_volume   780.64256580
_cell_formula_units_Z   2
loop_
 _symmetry_equiv_pos_site_id
 _symmetry_equiv_pos_as_xyz
  1  'x, y, z'
loop_
 _atom_site_type_symbol
 _atom_site_label
 _atom_site_symmetry_multiplicity
 _atom_site_fract_x
 _atom_site_fract_y
 _atom_site_fract_z
 _atom_site_occupancy
  Al  Al0  1  0.10783253  0.10100164  0.31966295  1
  Al  Al1  1  0.22393025  0.21159996  0.07053549  1
  Al  Al2  1  0.77365703  0.09581801  0.81765480  1
  Al  Al3  1  0.88619612  0.20668050  0.56336421  1
  Al  Al4  1  0.44611021  0.09389998  0.31773272  1
  Al  Al5  1  0.55567041  0.20532578  0.06758181  1
  Al  Al6  1  0.22379009  0.20668049  0.56336421  1
  Al  Al7  1  0.77665643  0.09390000  0.31773270  1
  Al  Al8  1  0.88113648  0.21159996  0.07053546  1
  Al  Al9  1  0.44719166  0.09581803  0.81765479  1
  Al  Al10  1  0.55535686  0.20595292  0.56752701  1
  Al  Al11  1  0.11084144  0.42915788  0.31738171  1
  Al  Al12  1  0.22065985  0.53605313  0.06679395  1
  Al  Al13  1  0.77403689  0.43073608  0.81743128  1
  Al  Al14  1  0.88892411  0.53881848  0.56761956  1
  Al  Al15  1  0.44449322  0.42768017  0.31761488  1
  Al  Al16  1  0.55995362  0.53605316  0.06679400  1
  Al  Al17  1  0.11189371  0.43073603  0.81743127  1
  Al  Al18  1  0.22327901  0.53713439  0.56805392  1
  Al  Al19  1  0.77666731  0.42915793  0.31738174  1
  Al  Al20  1  0.88895349  0.53875966  0.06857402  1
  Al  Al21  1  0.44441053  0.42784557  0.81856397  1
  Al  Al22  1  0.55625324  0.53713442  0.56805392  1
  Al  Al23  1  0.10703606  0.75688694  0.32062242  1
  Al  Al24  1  0.77807432  0.76051799  0.81766234  1
  Al  Al25  1  0.88749126  0.87261243  0.56825653  1
  Al  Al26  1  0.45274364  0.75688697  0.32062246  1
  Al  Al27  1  0.55979284  0.87100450  0.06711262  1
  Al  Al28  1  0.11165066  0.75754224  0.81417382  1
  Al  Al29  1  0.22319076  0.87028518  0.56063851  1
  Al  Al30  1  0.77764587  0.76137486  0.31723714  1
  Al  Al31  1  0.88586930  0.87100443  0.06711265  1
  Al  Al32  1  0.44747377  0.75754222  0.81417381  1
  Al  Al33  1  0.55656296  0.87261245  0.56825655  1
  Sc  Sc34  1  0.10991139  0.09684383  0.82002408  1
  Sc  Sc35  1  0.22472689  0.86721288  0.08260118  1
  N  N36  1  0.22418961  0.20732083  0.37281009  1
  N  N37  1  0.10040009  0.11586659  0.12578662  1
  N  N38  1  0.86795085  0.21602314  0.88051608  1
  N  N39  1  0.77743251  0.09480440  0.62507649  1
  N  N40  1  0.55532913  0.20600834  0.37534065  1
  N  N41  1  0.44633333  0.09290425  0.12607863  1
  N  N42  1  0.23269279  0.21602318  0.88051620  1
  N  N43  1  0.11121637  0.09423400  0.60653370  1
  N  N44  1  0.88515622  0.20732093  0.37281011  1
  N  N45  1  0.77742908  0.09290425  0.12607867  1
  N  N46  1  0.55537608  0.20591452  0.87570179  1
  N  N47  1  0.44442979  0.09480443  0.62507655  1
  N  N48  1  0.22381868  0.53648718  0.37727446  1
  N  N49  1  0.10997781  0.42954892  0.12665900  1
  N  N50  1  0.88928647  0.53809376  0.87519104  1
  N  N51  1  0.77841472  0.42732385  0.62498802  1
  N  N52  1  0.55636074  0.53648723  0.37727447  1
  N  N53  1  0.44398229  0.42870204  0.12425457  1
  N  N54  1  0.22208570  0.53939137  0.87433923  1
  N  N55  1  0.11092817  0.42732380  0.62498803  1
  N  N56  1  0.88872539  0.53921594  0.37528815  1
  N  N57  1  0.77713991  0.42954897  0.12665902  1
  N  N58  1  0.55518955  0.53939142  0.87433927  1
  N  N59  1  0.44469967  0.42726737  0.62627015  1
  N  N60  1  0.22305451  0.87055772  0.36333015  1
  N  N61  1  0.09869786  0.74893311  0.13200252  1
  N  N62  1  0.88918049  0.87243317  0.87372470  1
  N  N63  1  0.77812660  0.76041345  0.62601442  1
  N  N64  1  0.55703420  0.87312528  0.37733886  1
  N  N65  1  0.46903578  0.74893313  0.13200258  1
  N  N66  1  0.23145762  0.85375150  0.87054392  1
  N  N67  1  0.11091796  0.76064636  0.62109945  1
  N  N68  1  0.88650719  0.87312523  0.37733881  1
  N  N69  1  0.77788759  0.76089139  0.12487601  1
  N  N70  1  0.55505297  0.87243325  0.87372476  1
  N  N71  1  0.44510241  0.76064638  0.62109952  1
