# generated using pymatgen
data_ScAl17N18
_symmetry_space_group_name_H-M   'P 1'
_cell_length_a   9.89168555
_cell_length_b   9.88918648
_cell_length_c   8.82205886
_cell_angle_alpha   90.02388133
_cell_angle_beta   89.99999955
_cell_angle_gamma   59.99164430
_symmetry_Int_Tables_number   1
_chemical_formula_structural   ScAl17N18
_chemical_formula_sum   'Sc2 Al34 N36'
_cell_volume   747.29973473
_cell_formula_units_Z   2
loop_
 _symmetry_equiv_pos_site_id
 _symmetry_equiv_pos_as_xyz
  1  'x, y, z'
loop_
 _atom_site_type_symbol
 _atom_site_label
 _atom_site_symmetry_multiplicity
 _atom_site_fract_x
 _atom_site_fract_y
 _atom_site_fract_z
 _atom_site_occupancy
  Al  Al0  1  0.10883880  0.09898904  0.35059855  1
  Al  Al1  1  0.22439625  0.21113811  0.09508939  1
  Al  Al2  1  0.77297445  0.09603120  0.83842505  1
  Al  Al3  1  0.88447874  0.20773106  0.58770504  1
  Al  Al4  1  0.44646673  0.09310039  0.34157528  1
  Al  Al5  1  0.55615497  0.20435675  0.09207276  1
  Al  Al6  1  0.22445688  0.20773107  0.58770504  1
  Al  Al7  1  0.77709958  0.09310036  0.34157529  1
  Al  Al8  1  0.88113233  0.21113810  0.09508938  1
  Al  Al9  1  0.44766100  0.09603123  0.83842506  1
  Al  Al10  1  0.55477924  0.20710819  0.58757197  1
  Al  Al11  1  0.11091612  0.42927672  0.34176061  1
  Al  Al12  1  0.22023073  0.53642924  0.08888521  1
  Al  Al13  1  0.77446372  0.43136292  0.83772001  1
  Al  Al14  1  0.88828130  0.54010406  0.58841802  1
  Al  Al15  1  0.44428451  0.42809773  0.33762779  1
  Al  Al16  1  0.56000671  0.53642924  0.08888517  1
  Al  Al17  1  0.11084003  0.43136290  0.83772002  1
  Al  Al18  1  0.22473642  0.53599675  0.59078321  1
  Al  Al19  1  0.77647385  0.42927673  0.34176060  1
  Al  Al20  1  0.88926586  0.53813494  0.09197944  1
  Al  Al21  1  0.44490276  0.42686115  0.84289908  1
  Al  Al22  1  0.55593348  0.53599679  0.59078324  1
  Al  Al23  1  0.10719326  0.75716534  0.34864053  1
  Al  Al24  1  0.77845161  0.75976344  0.84178002  1
  Al  Al25  1  0.88601216  0.87264508  0.59168543  1
  Al  Al26  1  0.45230810  0.75716534  0.34864051  1
  Al  Al27  1  0.55857887  0.87168831  0.08849827  1
  Al  Al28  1  0.11058095  0.75695704  0.83455356  1
  Al  Al29  1  0.22349049  0.86968572  0.59244488  1
  Al  Al30  1  0.77738906  0.76188863  0.33801292  1
  Al  Al31  1  0.88639954  0.87168827  0.08849824  1
  Al  Al32  1  0.44912862  0.75695711  0.83455357  1
  Al  Al33  1  0.55800946  0.87264509  0.59168539  1
  Sc  Sc34  1  0.10882764  0.09901133  0.84957562  1
  Sc  Sc35  1  0.22541236  0.86584187  0.10705831  1
  N  N36  1  0.22415279  0.20688847  0.36599092  1
  N  N37  1  0.10208435  0.11249797  0.11548564  1
  N  N38  1  0.86733754  0.21656925  0.86880409  1
  N  N39  1  0.77581822  0.09515244  0.61575473  1
  N  N40  1  0.55481748  0.20703173  0.36582428  1
  N  N41  1  0.44636290  0.09239180  0.12005078  1
  N  N42  1  0.23275988  0.21656923  0.86880409  1
  N  N43  1  0.11023440  0.09619785  0.60134882  1
  N  N44  1  0.88562539  0.20688850  0.36599090  1
  N  N45  1  0.77791199  0.09239177  0.12005079  1
  N  N46  1  0.55582645  0.20501378  0.87012349  1
  N  N47  1  0.44569601  0.09515244  0.61575473  1
  N  N48  1  0.22520823  0.53543911  0.37076297  1
  N  N49  1  0.11013296  0.42942025  0.12067611  1
  N  N50  1  0.88967138  0.53732394  0.86873749  1
  N  N51  1  0.77801275  0.42891475  0.61533153  1
  N  N52  1  0.55601938  0.53543912  0.37076300  1
  N  N53  1  0.44382649  0.42901369  0.11451255  1
  N  N54  1  0.22157217  0.53924094  0.86551987  1
  N  N55  1  0.10973915  0.42891475  0.61533153  1
  N  N56  1  0.88807855  0.54050959  0.36675356  1
  N  N57  1  0.77711345  0.42942024  0.12067609  1
  N  N58  1  0.55585353  0.53924098  0.86551984  1
  N  N59  1  0.44514265  0.42638138  0.62122885  1
  N  N60  1  0.22309567  0.87047539  0.36518997  1
  N  N61  1  0.09992449  0.75015896  0.12442737  1
  N  N62  1  0.88901882  0.87313413  0.86450168  1
  N  N63  1  0.77846344  0.75973980  0.62106246  1
  N  N64  1  0.55841988  0.87272244  0.37139521  1
  N  N65  1  0.46658323  0.75015897  0.12442733  1
  N  N66  1  0.23125759  0.85415144  0.85592514  1
  N  N67  1  0.10979537  0.75973235  0.61112284  1
  N  N68  1  0.88552441  0.87272244  0.37139526  1
  N  N69  1  0.77760738  0.76145193  0.11471868  1
  N  N70  1  0.55451371  0.87313417  0.86450170  1
  N  N71  1  0.44713895  0.75973238  0.61112285  1
