# generated using pymatgen
data_ScAl17N18
_symmetry_space_group_name_H-M   'P 1'
_cell_length_a   9.53124461
_cell_length_b   9.52773126
_cell_length_c   9.90839927
_cell_angle_alpha   89.99910446
_cell_angle_beta   89.99999870
_cell_angle_gamma   59.98780961
_symmetry_Int_Tables_number   1
_chemical_formula_structural   ScAl17N18
_chemical_formula_sum   'Sc2 Al34 N36'
_cell_volume   779.14786257
_cell_formula_units_Z   2
loop_
 _symmetry_equiv_pos_site_id
 _symmetry_equiv_pos_as_xyz
  1  'x, y, z'
loop_
 _atom_site_type_symbol
 _atom_site_label
 _atom_site_symmetry_multiplicity
 _atom_site_fract_x
 _atom_site_fract_y
 _atom_site_fract_z
 _atom_site_occupancy
  Al  Al0  1  0.11044542  0.09577581  0.38934203  1
  Al  Al1  1  0.22150026  0.20904809  0.13581514  1
  Al  Al2  1  0.77358795  0.09558519  0.88328843  1
  Al  Al3  1  0.87990914  0.21003609  0.62908214  1
  Al  Al4  1  0.44601488  0.09393278  0.38163961  1
  Al  Al5  1  0.55524218  0.20618235  0.13235543  1
  Al  Al6  1  0.22672145  0.21003608  0.62908215  1
  Al  Al7  1  0.77671899  0.09393278  0.38163960  1
  Al  Al8  1  0.88611833  0.20904811  0.13581513  1
  Al  Al9  1  0.44749351  0.09558521  0.88328843  1
  Al  Al10  1  0.55577127  0.20512415  0.63317160  1
  Al  Al11  1  0.10991248  0.42951302  0.38192292  1
  Al  Al12  1  0.22160223  0.53574390  0.13313003  1
  Al  Al13  1  0.77318267  0.43060726  0.88359289  1
  Al  Al14  1  0.88889707  0.53887256  0.63281125  1
  Al  Al15  1  0.44454792  0.42757082  0.38274508  1
  Al  Al16  1  0.55932056  0.53574391  0.13313002  1
  Al  Al17  1  0.11287674  0.43060725  0.88359290  1
  Al  Al18  1  0.22247663  0.53752531  0.63251199  1
  Al  Al19  1  0.77724115  0.42951303  0.38192291  1
  Al  Al20  1  0.88889485  0.53887699  0.13142001  1
  Al  Al21  1  0.44434950  0.42796766  0.88152365  1
  Al  Al22  1  0.55666475  0.53752530  0.63251199  1
  Al  Al23  1  0.10982999  0.76007250  0.38610972  1
  Al  Al24  1  0.77762643  0.76141381  0.88245049  1
  Al  Al25  1  0.88728245  0.87277415  0.63218159  1
  Al  Al26  1  0.44676417  0.76007251  0.38610973  1
  Al  Al27  1  0.55992028  0.87070095  0.13284754  1
  Al  Al28  1  0.10904003  0.75476540  0.87987471  1
  Al  Al29  1  0.22575759  0.86515149  0.63120909  1
  Al  Al30  1  0.77810904  0.76044856  0.38290427  1
  Al  Al31  1  0.88604546  0.87070092  0.13284754  1
  Al  Al32  1  0.45286123  0.75476541  0.87987471  1
  Al  Al33  1  0.55661010  0.87277415  0.63218160  1
  Sc  Sc34  1  0.10813340  0.10040007  0.86500934  1
  Sc  Sc35  1  0.22316222  0.87034242  0.12688079  1
  N  N36  1  0.22237646  0.20577625  0.33043250  1
  N  N37  1  0.10139737  0.11387191  0.07910526  1
  N  N38  1  0.86346817  0.21810954  0.81913567  1
  N  N39  1  0.77610297  0.09347184  0.57379929  1
  N  N40  1  0.55522359  0.20621951  0.32519839  1
  N  N41  1  0.44416737  0.09405215  0.07793481  1
  N  N42  1  0.23508894  0.21810950  0.81913568  1
  N  N43  1  0.11044659  0.09577345  0.58889477  1
  N  N44  1  0.88851397  0.20577625  0.33043248  1
  N  N45  1  0.77844716  0.09405213  0.07793480  1
  N  N46  1  0.55552169  0.20562330  0.82683293  1
  N  N47  1  0.44709186  0.09347184  0.57379931  1
  N  N48  1  0.22261996  0.53903437  0.32673063  1
  N  N49  1  0.11139006  0.42725413  0.07731866  1
  N  N50  1  0.88944372  0.53777927  0.82742646  1
  N  N51  1  0.77697272  0.43034415  0.57393534  1
  N  N52  1  0.55501235  0.53903436  0.32673062  1
  N  N53  1  0.44402405  0.42861856  0.07616817  1
  N  N54  1  0.22332399  0.53716207  0.82455000  1
  N  N55  1  0.10934979  0.43034415  0.57393535  1
  N  N56  1  0.88862929  0.53940809  0.32494168  1
  N  N57  1  0.77802249  0.42725413  0.07731864  1
  N  N58  1  0.55618063  0.53716208  0.82455000  1
  N  N59  1  0.44473354  0.42719958  0.57628316  1
  N  N60  1  0.22211440  0.87243788  0.34267277  1
  N  N61  1  0.10028590  0.75014298  0.07126659  1
  N  N62  1  0.88698271  0.87378925  0.82513536  1
  N  N63  1  0.77811009  0.76044649  0.57629678  1
  N  N64  1  0.55616227  0.87166472  0.32659430  1
  N  N65  1  0.46623778  0.75014299  0.07126659  1
  N  N66  1  0.23298269  0.85070130  0.82738859  1
  N  N67  1  0.10938268  0.75948044  0.57832956  1
  N  N68  1  0.88883970  0.87166471  0.32659430  1
  N  N69  1  0.77792282  0.76082103  0.07560351  1
  N  N70  1  0.55589474  0.87378925  0.82513536  1
  N  N71  1  0.44780354  0.75948043  0.57832956  1
