# generated using pymatgen
data_ScAl17N18
_symmetry_space_group_name_H-M   'P 1'
_cell_length_a   9.69857630
_cell_length_b   9.69521062
_cell_length_c   9.42345641
_cell_angle_alpha   90.01721445
_cell_angle_beta   89.99999709
_cell_angle_gamma   59.98854495
_symmetry_Int_Tables_number   1
_chemical_formula_structural   ScAl17N18
_chemical_formula_sum   'Sc2 Al34 N36'
_cell_volume   767.28361619
_cell_formula_units_Z   2
loop_
 _symmetry_equiv_pos_site_id
 _symmetry_equiv_pos_as_xyz
  1  'x, y, z'
loop_
 _atom_site_type_symbol
 _atom_site_label
 _atom_site_symmetry_multiplicity
 _atom_site_fract_x
 _atom_site_fract_y
 _atom_site_fract_z
 _atom_site_occupancy
  Al  Al0  1  0.11068085  0.09530492  0.38176021  1
  Al  Al1  1  0.22161190  0.20908431  0.13244191  1
  Al  Al2  1  0.77422464  0.09539031  0.87956760  1
  Al  Al3  1  0.87909211  0.21041801  0.62179398  1
  Al  Al4  1  0.44694668  0.09385814  0.37631550  1
  Al  Al5  1  0.55500240  0.20666192  0.12670810  1
  Al  Al6  1  0.22715655  0.21041801  0.62179395  1
  Al  Al7  1  0.77586182  0.09385815  0.37631549  1
  Al  Al8  1  0.88597047  0.20908433  0.13244189  1
  Al  Al9  1  0.44705166  0.09539035  0.87956758  1
  Al  Al10  1  0.55595273  0.20476124  0.62975314  1
  Al  Al11  1  0.10893731  0.43034726  0.37695062  1
  Al  Al12  1  0.22205330  0.53540891  0.12970351  1
  Al  Al13  1  0.77304918  0.43016349  0.87957321  1
  Al  Al14  1  0.88897382  0.53871908  0.62968776  1
  Al  Al15  1  0.44488983  0.42688699  0.37889750  1
  Al  Al16  1  0.55920451  0.53540888  0.12970352  1
  Al  Al17  1  0.11345401  0.43016348  0.87957321  1
  Al  Al18  1  0.22238528  0.53743602  0.62706273  1
  Al  Al19  1  0.77738210  0.43034726  0.37695062  1
  Al  Al20  1  0.88865669  0.53935333  0.12558697  1
  Al  Al21  1  0.44417100  0.42832467  0.87659561  1
  Al  Al22  1  0.55684543  0.53743600  0.62706272  1
  Al  Al23  1  0.10974841  0.75985594  0.38044763  1
  Al  Al24  1  0.77729628  0.76207412  0.87704851  1
  Al  Al25  1  0.88696823  0.87325433  0.62696244  1
  Al  Al26  1  0.44706232  0.75985594  0.38044760  1
  Al  Al27  1  0.56041695  0.87043334  0.12921568  1
  Al  Al28  1  0.10842314  0.75446554  0.87495705  1
  Al  Al29  1  0.22560087  0.86546501  0.62382724  1
  Al  Al30  1  0.77844748  0.75977168  0.37940544  1
  Al  Al31  1  0.88581642  0.87043330  0.12921570  1
  Al  Al32  1  0.45377800  0.75446551  0.87495707  1
  Al  Al33  1  0.55644417  0.87325432  0.62696246  1
  Sc  Sc34  1  0.10745975  0.10174699  0.85628135  1
  Sc  Sc35  1  0.22348930  0.86968814  0.11515320  1
  N  N36  1  0.22268609  0.20605311  0.33686938  1
  N  N37  1  0.10114948  0.11436766  0.08506612  1
  N  N38  1  0.86360794  0.21799516  0.82315858  1
  N  N39  1  0.77518555  0.09357275  0.57769074  1
  N  N40  1  0.55501351  0.20663970  0.32867618  1
  N  N41  1  0.44400408  0.09375917  0.08372847  1
  N  N42  1  0.23506357  0.21799513  0.82315857  1
  N  N43  1  0.11050271  0.09566116  0.59226742  1
  N  N44  1  0.88792752  0.20605311  0.33686937  1
  N  N45  1  0.77890337  0.09375915  0.08372849  1
  N  N46  1  0.55571103  0.20524465  0.83310055  1
  N  N47  1  0.44790830  0.09357274  0.57769076  1
  N  N48  1  0.22316730  0.53838929  0.33255582  1
  N  N49  1  0.11190946  0.42700420  0.08290997  1
  N  N50  1  0.88956602  0.53753473  0.83359266  1
  N  N51  1  0.77704505  0.43122927  0.57814257  1
  N  N52  1  0.55511015  0.53838928  0.33255583  1
  N  N53  1  0.44376194  0.42914274  0.08049518  1
  N  N54  1  0.22329320  0.53704675  0.82859761  1
  N  N55  1  0.10839231  0.43122927  0.57814257  1
  N  N56  1  0.88836135  0.53994403  0.32838493  1
  N  N57  1  0.77775297  0.42700422  0.08290997  1
  N  N58  1  0.55632679  0.53704675  0.82859760  1
  N  N59  1  0.44508622  0.42649420  0.58160995  1
  N  N60  1  0.22249727  0.87167221  0.34530421  1
  N  N61  1  0.09972979  0.74936026  0.07747529  1
  N  N62  1  0.88679080  0.87421292  0.82922897  1
  N  N63  1  0.77838783  0.75989099  0.58206051  1
  N  N64  1  0.55696011  0.87137805  0.33224788  1
  N  N65  1  0.46757662  0.74936023  0.07747531  1
  N  N66  1  0.23242442  0.85181793  0.83597827  1
  N  N67  1  0.10936828  0.75970398  0.58287424  1
  N  N68  1  0.88832859  0.87137804  0.33224790  1
  N  N69  1  0.77763816  0.76139030  0.07955716  1
  N  N70  1  0.55566302  0.87421292  0.82922899  1
  N  N71  1  0.44759442  0.75970396  0.58287422  1
