# generated using pymatgen
data_ScAl17N18
_symmetry_space_group_name_H-M   'P 1'
_cell_length_a   9.50040305
_cell_length_b   9.49704217
_cell_length_c   9.99179969
_cell_angle_alpha   89.98585267
_cell_angle_beta   90.00001954
_cell_angle_gamma   59.98829681
_symmetry_Int_Tables_number   1
_chemical_formula_structural   ScAl17N18
_chemical_formula_sum   'Sc2 Al34 N36'
_cell_volume   780.64485553
_cell_formula_units_Z   2
loop_
 _symmetry_equiv_pos_site_id
 _symmetry_equiv_pos_as_xyz
  1  'x, y, z'
loop_
 _atom_site_type_symbol
 _atom_site_label
 _atom_site_symmetry_multiplicity
 _atom_site_fract_x
 _atom_site_fract_y
 _atom_site_fract_z
 _atom_site_occupancy
  Al  Al0  1  0.10783254  0.10100125  0.31566231  1
  Al  Al1  1  0.22392794  0.21160296  0.06653339  1
  Al  Al2  1  0.77365566  0.09582188  0.81364967  1
  Al  Al3  1  0.88619329  0.20668376  0.55935287  1
  Al  Al4  1  0.44611051  0.09390171  0.31372773  1
  Al  Al5  1  0.55566936  0.20532840  0.06357716  1
  Al  Al6  1  0.22378940  0.20668391  0.55935298  1
  Al  Al7  1  0.77665469  0.09390154  0.31372761  1
  Al  Al8  1  0.88113569  0.21160273  0.06653327  1
  Al  Al9  1  0.44718917  0.09582219  0.81364974  1
  Al  Al10  1  0.55535545  0.20595617  0.56352213  1
  Al  Al11  1  0.11084020  0.42916283  0.31337665  1
  Al  Al12  1  0.22065757  0.53605862  0.06278514  1
  Al  Al13  1  0.77403588  0.43073873  0.81342608  1
  Al  Al14  1  0.88892234  0.53882203  0.56361401  1
  Al  Al15  1  0.44449131  0.42768397  0.31360834  1
  Al  Al16  1  0.55995058  0.53605835  0.06278516  1
  Al  Al17  1  0.11189199  0.43073899  0.81342605  1
  Al  Al18  1  0.22327820  0.53713692  0.56404980  1
  Al  Al19  1  0.77666380  0.42916257  0.31337669  1
  Al  Al20  1  0.88895156  0.53876364  0.06457102  1
  Al  Al21  1  0.44440916  0.42784819  0.81456082  1
  Al  Al22  1  0.55625166  0.53713667  0.56404982  1
  Al  Al23  1  0.10703551  0.75689133  0.31661536  1
  Al  Al24  1  0.77807289  0.76052135  0.81365757  1
  Al  Al25  1  0.88748918  0.87261551  0.56425231  1
  Al  Al26  1  0.45273967  0.75689122  0.31661548  1
  Al  Al27  1  0.55979026  0.87100819  0.06310430  1
  Al  Al28  1  0.11164771  0.75754672  0.81016052  1
  Al  Al29  1  0.22318942  0.87028750  0.55663361  1
  Al  Al30  1  0.77764378  0.76137950  0.31323056  1
  Al  Al31  1  0.88586828  0.87100836  0.06310417  1
  Al  Al32  1  0.44747190  0.75754669  0.81016065  1
  Al  Al33  1  0.55656225  0.87261541  0.56425241  1
  Sc  Sc34  1  0.10990746  0.09685161  0.81601054  1
  Sc  Sc35  1  0.22472329  0.86721950  0.07858295  1
  N  N36  1  0.22418870  0.20732479  0.36880500  1
  N  N37  1  0.10039900  0.11586882  0.12179043  1
  N  N38  1  0.86795000  0.21602671  0.87651707  1
  N  N39  1  0.77743159  0.09480785  0.62107381  1
  N  N40  1  0.55532728  0.20601214  0.37133799  1
  N  N41  1  0.44633228  0.09290670  0.12207610  1
  N  N42  1  0.23269006  0.21602660  0.87651705  1
  N  N43  1  0.11121407  0.09423864  0.60252518  1
  N  N44  1  0.88515317  0.20732487  0.36880508  1
  N  N45  1  0.77742772  0.09290669  0.12207611  1
  N  N46  1  0.55537453  0.20591758  0.87170012  1
  N  N47  1  0.44442725  0.09480789  0.62107377  1
  N  N48  1  0.22381749  0.53649093  0.37327253  1
  N  N49  1  0.10997625  0.42955358  0.12265664  1
  N  N50  1  0.88928485  0.53809692  0.87118931  1
  N  N51  1  0.77841430  0.42732546  0.62098489  1
  N  N52  1  0.55635831  0.53649095  0.37327258  1
  N  N53  1  0.44398045  0.42870570  0.12024950  1
  N  N54  1  0.22208297  0.53939659  0.87033392  1
  N  N55  1  0.11092699  0.42732544  0.62098489  1
  N  N56  1  0.88872361  0.53921941  0.37128505  1
  N  N57  1  0.77713676  0.42955372  0.12265661  1
  N  N58  1  0.55518709  0.53939666  0.87033406  1
  N  N59  1  0.44469842  0.42726978  0.62226978  1
  N  N60  1  0.22305337  0.87055990  0.35933188  1
  N  N61  1  0.09869799  0.74893818  0.12799839  1
  N  N62  1  0.88917952  0.87243658  0.86971943  1
  N  N63  1  0.77812552  0.76041565  0.62201312  1
  N  N64  1  0.55703260  0.87312773  0.37333699  1
  N  N65  1  0.46903043  0.74893825  0.12799833  1
  N  N66  1  0.23145361  0.85375957  0.86652982  1
  N  N67  1  0.11091613  0.76064841  0.61709444  1
  N  N68  1  0.88650630  0.87312778  0.37333702  1
  N  N69  1  0.77788546  0.76089545  0.12087164  1
  N  N70  1  0.55505055  0.87243659  0.86971938  1
  N  N71  1  0.44510210  0.76064846  0.61709444  1
