# generated using pymatgen
data_ScAl17N18
_symmetry_space_group_name_H-M   'P 1'
_cell_length_a   9.50037066
_cell_length_b   9.49699701
_cell_length_c   9.99190317
_cell_angle_alpha   89.98573053
_cell_angle_beta   90.00001449
_cell_angle_gamma   59.98824352
_symmetry_Int_Tables_number   1
_chemical_formula_structural   ScAl17N18
_chemical_formula_sum   'Sc2 Al34 N36'
_cell_volume   780.64614639
_cell_formula_units_Z   2
loop_
 _symmetry_equiv_pos_site_id
 _symmetry_equiv_pos_as_xyz
  1  'x, y, z'
loop_
 _atom_site_type_symbol
 _atom_site_label
 _atom_site_symmetry_multiplicity
 _atom_site_fract_x
 _atom_site_fract_y
 _atom_site_fract_z
 _atom_site_occupancy
  Al  Al0  1  0.10782701  0.10101272  0.30450627  1
  Al  Al1  1  0.22392258  0.21161274  0.05537731  1
  Al  Al2  1  0.77365088  0.09583165  0.80249154  1
  Al  Al3  1  0.88618838  0.20669367  0.54820024  1
  Al  Al4  1  0.44610444  0.09391247  0.30256786  1
  Al  Al5  1  0.55566387  0.20533896  0.05241626  1
  Al  Al6  1  0.22378461  0.20669370  0.54820027  1
  Al  Al7  1  0.77664983  0.09391227  0.30256807  1
  Al  Al8  1  0.88113109  0.21161296  0.05537757  1
  Al  Al9  1  0.44718389  0.09583177  0.80249166  1
  Al  Al10  1  0.55535060  0.20596554  0.55236236  1
  Al  Al11  1  0.11083527  0.42917158  0.30221669  1
  Al  Al12  1  0.22065351  0.53606755  0.05162923  1
  Al  Al13  1  0.77403029  0.43074914  0.80226822  1
  Al  Al14  1  0.88891824  0.53883050  0.55245457  1
  Al  Al15  1  0.44448688  0.42769289  0.30244970  1
  Al  Al16  1  0.55994548  0.53606771  0.05162936  1
  Al  Al17  1  0.11188734  0.43074912  0.80226823  1
  Al  Al18  1  0.22327303  0.53714644  0.55289037  1
  Al  Al19  1  0.77665995  0.42917170  0.30221689  1
  Al  Al20  1  0.88894682  0.53877316  0.05340987  1
  Al  Al21  1  0.44440389  0.42785895  0.80340054  1
  Al  Al22  1  0.55624722  0.53714647  0.55289055  1
  Al  Al23  1  0.10703131  0.75690073  0.30546131  1
  Al  Al24  1  0.77806805  0.76053061  0.80249733  1
  Al  Al25  1  0.88748515  0.87262443  0.55309282  1
  Al  Al26  1  0.45273443  0.75690090  0.30546122  1
  Al  Al27  1  0.55978560  0.87101724  0.05194799  1
  Al  Al28  1  0.11164308  0.75755624  0.79900941  1
  Al  Al29  1  0.22318492  0.87029687  0.54547752  1
  Al  Al30  1  0.77763962  0.76138755  0.30207177  1
  Al  Al31  1  0.88586352  0.87101731  0.05194798  1
  Al  Al32  1  0.44746719  0.75755633  0.79900959  1
  Al  Al33  1  0.55655711  0.87262456  0.55309273  1
  Sc  Sc34  1  0.10990232  0.09686142  0.80485543  1
  Sc  Sc35  1  0.22471774  0.86723047  0.06742967  1
  N  N36  1  0.22418449  0.20733447  0.35765172  1
  N  N37  1  0.10039373  0.11587948  0.11063832  1
  N  N38  1  0.86794511  0.21603585  0.86536266  1
  N  N39  1  0.77742670  0.09481647  0.60991769  1
  N  N40  1  0.55532306  0.20602047  0.36018097  1
  N  N41  1  0.44632730  0.09291656  0.11091916  1
  N  N42  1  0.23268575  0.21603557  0.86536260  1
  N  N43  1  0.11120968  0.09424747  0.59137186  1
  N  N44  1  0.88514788  0.20733444  0.35765177  1
  N  N45  1  0.77742269  0.09291665  0.11091925  1
  N  N46  1  0.55536923  0.20592750  0.86054178  1
  N  N47  1  0.44442339  0.09481658  0.60991791  1
  N  N48  1  0.22381259  0.53649994  0.36211503  1
  N  N49  1  0.10997155  0.42956293  0.11149976  1
  N  N50  1  0.88928028  0.53810667  0.86003208  1
  N  N51  1  0.77840893  0.42733564  0.60982929  1
  N  N52  1  0.55635405  0.53650036  0.36211486  1
  N  N53  1  0.44397599  0.42871478  0.10909499  1
  N  N54  1  0.22207916  0.53940596  0.85918003  1
  N  N55  1  0.11092247  0.42733546  0.60982952  1
  N  N56  1  0.88871962  0.53922814  0.36012811  1
  N  N57  1  0.77713204  0.42956367  0.11149965  1
  N  N58  1  0.55518159  0.53940629  0.85918020  1
  N  N59  1  0.44469355  0.42727979  0.61111081  1
  N  N60  1  0.22304877  0.87056937  0.34817875  1
  N  N61  1  0.09869339  0.74894834  0.11684549  1
  N  N62  1  0.88917422  0.87244569  0.85856493  1
  N  N63  1  0.77812045  0.76042545  0.61085403  1
  N  N64  1  0.55702751  0.87313772  0.36217911  1
  N  N65  1  0.46902445  0.74894881  0.11684532  1
  N  N66  1  0.23144850  0.85376977  0.85537884  1
  N  N67  1  0.11091157  0.76065785  0.60594095  1
  N  N68  1  0.88650141  0.87313735  0.36217921  1
  N  N69  1  0.77788051  0.76090487  0.10971622  1
  N  N70  1  0.55504642  0.87244611  0.85856510  1
  N  N71  1  0.44509751  0.76065799  0.60594126  1
