# generated using pymatgen
data_ScAl17N18
_symmetry_space_group_name_H-M   'P 1'
_cell_length_a   9.84717876
_cell_length_b   9.84443535
_cell_length_c   8.96245353
_cell_angle_alpha   90.02303915
_cell_angle_beta   90.00000098
_cell_angle_gamma   59.99074084
_symmetry_Int_Tables_number   1
_chemical_formula_structural   ScAl17N18
_chemical_formula_sum   'Sc2 Al34 N36'
_cell_volume   752.34944925
_cell_formula_units_Z   2
loop_
 _symmetry_equiv_pos_site_id
 _symmetry_equiv_pos_as_xyz
  1  'x, y, z'
loop_
 _atom_site_type_symbol
 _atom_site_label
 _atom_site_symmetry_multiplicity
 _atom_site_fract_x
 _atom_site_fract_y
 _atom_site_fract_z
 _atom_site_occupancy
  Al  Al0  1  0.11009113  0.09648444  0.36986233  1
  Al  Al1  1  0.22248393  0.20952088  0.12679259  1
  Al  Al2  1  0.77476854  0.09503344  0.87297725  1
  Al  Al3  1  0.88046275  0.20974799  0.61277088  1
  Al  Al4  1  0.44741966  0.09393476  0.36944535  1
  Al  Al5  1  0.55488421  0.20689814  0.11933958  1
  Al  Al6  1  0.22645584  0.20974801  0.61277084  1
  Al  Al7  1  0.77531224  0.09393477  0.36944530  1
  Al  Al8  1  0.88466188  0.20952082  0.12679253  1
  Al  Al9  1  0.44686468  0.09503348  0.87297723  1
  Al  Al10  1  0.55601004  0.20464642  0.62348570  1
  Al  Al11  1  0.10852679  0.43073347  0.37032754  1
  Al  Al12  1  0.22245273  0.53528436  0.12353226  1
  Al  Al13  1  0.77324957  0.43005594  0.87265509  1
  Al  Al14  1  0.88907067  0.53852528  0.62376717  1
  Al  Al15  1  0.44508158  0.42650354  0.37276948  1
  Al  Al16  1  0.55892956  0.53528433  0.12353231  1
  Al  Al17  1  0.11336122  0.43005596  0.87265509  1
  Al  Al18  1  0.22238823  0.53733656  0.61967780  1
  Al  Al19  1  0.77740653  0.43073344  0.37032752  1
  Al  Al20  1  0.88847082  0.53972503  0.11816470  1
  Al  Al21  1  0.44407049  0.42852575  0.86937840  1
  Al  Al22  1  0.55694181  0.53733655  0.61967774  1
  Al  Al23  1  0.10907097  0.75908267  0.37363158  1
  Al  Al24  1  0.77716095  0.76234488  0.86938445  1
  Al  Al25  1  0.88685241  0.87352727  0.61981003  1
  Al  Al26  1  0.44851310  0.75908272  0.37363156  1
  Al  Al27  1  0.56046020  0.87047401  0.12286246  1
  Al  Al28  1  0.10879569  0.75519475  0.86669033  1
  Al  Al29  1  0.22473184  0.86720302  0.61112323  1
  Al  Al30  1  0.77860225  0.75946225  0.37357227  1
  Al  Al31  1  0.88573246  0.87047396  0.12286250  1
  Al  Al32  1  0.45267633  0.75519472  0.86669036  1
  Al  Al33  1  0.55628696  0.87352728  0.61981009  1
  Sc  Sc34  1  0.10780068  0.10106555  0.85218153  1
  Sc  Sc35  1  0.22430993  0.86804670  0.10988476  1
  N  N36  1  0.22337640  0.20673297  0.34475073  1
  N  N37  1  0.10187103  0.11292474  0.09829590  1
  N  N38  1  0.86594040  0.21684835  0.83049472  1
  N  N39  1  0.77486463  0.09379314  0.58414355  1
  N  N40  1  0.55488831  0.20688988  0.33454035  1
  N  N41  1  0.44415779  0.09354819  0.09112014  1
  N  N42  1  0.23387785  0.21684842  0.83049463  1
  N  N43  1  0.11030051  0.09606566  0.59304130  1
  N  N44  1  0.88655724  0.20673294  0.34475070  1
  N  N45  1  0.77896073  0.09354815  0.09112019  1
  N  N46  1  0.55577312  0.20512034  0.84091536  1
  N  N47  1  0.44800891  0.09379311  0.58414357  1
  N  N48  1  0.22354554  0.53786968  0.34012015  1
  N  N49  1  0.11194629  0.42717720  0.09009224  1
  N  N50  1  0.88956397  0.53753870  0.84124061  1
  N  N51  1  0.77726798  0.43135755  0.58478100  1
  N  N52  1  0.55525140  0.53786969  0.34012019  1
  N  N53  1  0.44365942  0.42934791  0.08690384  1
  N  N54  1  0.22324802  0.53710061  0.83497299  1
  N  N55  1  0.10804118  0.43135759  0.58478099  1
  N  N56  1  0.88821359  0.54023947  0.33430781  1
  N  N57  1  0.77754328  0.42717718  0.09009225  1
  N  N58  1  0.55631799  0.53710060  0.83497297  1
  N  N59  1  0.44527931  0.42610805  0.58883374  1
  N  N60  1  0.22301184  0.87064297  0.35444636  1
  N  N61  1  0.10032592  0.74979718  0.08604870  1
  N  N62  1  0.88688769  0.87431517  0.83563238  1
  N  N63  1  0.77854302  0.75958071  0.58969739  1
  N  N64  1  0.55746798  0.87137606  0.33969262  1
  N  N65  1  0.46654370  0.74979714  0.08604875  1
  N  N66  1  0.23153730  0.85359206  0.84159198  1
  N  N67  1  0.10918136  0.75969364  0.58977680  1
  N  N68  1  0.88782263  0.87137603  0.33969265  1
  N  N69  1  0.77751032  0.76164611  0.08558501  1
  N  N70  1  0.55546376  0.87431518  0.83563243  1
  N  N71  1  0.44779179  0.75969363  0.58977681  1
