# generated using pymatgen
data_ScAl17N18
_symmetry_space_group_name_H-M   'P 1'
_cell_length_a   9.89212808
_cell_length_b   9.88965073
_cell_length_c   8.82056794
_cell_angle_alpha   90.02375810
_cell_angle_beta   90.00000253
_cell_angle_gamma   59.99162203
_symmetry_Int_Tables_number   1
_chemical_formula_structural   ScAl17N18
_chemical_formula_sum   'Sc2 Al34 N36'
_cell_volume   747.24177939
_cell_formula_units_Z   2
loop_
 _symmetry_equiv_pos_site_id
 _symmetry_equiv_pos_as_xyz
  1  'x, y, z'
loop_
 _atom_site_type_symbol
 _atom_site_label
 _atom_site_symmetry_multiplicity
 _atom_site_fract_x
 _atom_site_fract_y
 _atom_site_fract_z
 _atom_site_occupancy
  Al  Al0  1  0.10986592  0.09693489  0.36596404  1
  Al  Al1  1  0.22278070  0.20966201  0.12386306  1
  Al  Al2  1  0.77477578  0.09493139  0.86990477  1
  Al  Al3  1  0.88105806  0.20944753  0.60977282  1
  Al  Al4  1  0.44734556  0.09396811  0.36673923  1
  Al  Al5  1  0.55490882  0.20684893  0.11664786  1
  Al  Al6  1  0.22616095  0.20944755  0.60977279  1
  Al  Al7  1  0.77535304  0.09396812  0.36673920  1
  Al  Al8  1  0.88422396  0.20966194  0.12386300  1
  Al  Al9  1  0.44695953  0.09493144  0.86990477  1
  Al  Al10  1  0.55596683  0.20473284  0.62038771  1
  Al  Al11  1  0.10862703  0.43061884  0.36763791  1
  Al  Al12  1  0.22251684  0.53525206  0.12068596  1
  Al  Al13  1  0.77335721  0.43018919  0.86951866  1
  Al  Al14  1  0.88907148  0.53852359  0.62077302  1
  Al  Al15  1  0.44507447  0.42651781  0.36998809  1
  Al  Al16  1  0.55889772  0.53525204  0.12068601  1
  Al  Al17  1  0.11312036  0.43018921  0.86951864  1
  Al  Al18  1  0.22244484  0.53734151  0.61665977  1
  Al  Al19  1  0.77742095  0.43061880  0.36763788  1
  Al  Al20  1  0.88845737  0.53975185  0.11553186  1
  Al  Al21  1  0.44409540  0.42847601  0.86644219  1
  Al  Al22  1  0.55688023  0.53734150  0.61665973  1
  Al  Al23  1  0.10889852  0.75888222  0.37070278  1
  Al  Al24  1  0.77720674  0.76225330  0.86634893  1
  Al  Al25  1  0.88689321  0.87351250  0.61684499  1
  Al  Al26  1  0.44888603  0.75888225  0.37070278  1
  Al  Al27  1  0.56038018  0.87059092  0.11998039  1
  Al  Al28  1  0.10896505  0.75548200  0.86332717  1
  Al  Al29  1  0.22451844  0.86762976  0.60781253  1
  Al  Al30  1  0.77857593  0.75951490  0.37083506  1
  Al  Al31  1  0.88569554  0.87059088  0.11998044  1
  Al  Al32  1  0.45221971  0.75548198  0.86332716  1
  Al  Al33  1  0.55626090  0.87351250  0.61684504  1
  Sc  Sc34  1  0.10794779  0.10077134  0.85138068  1
  Sc  Sc35  1  0.22453167  0.86760329  0.10886356  1
  N  N36  1  0.22356562  0.20688607  0.34735611  1
  N  N37  1  0.10210251  0.11246189  0.10256812  1
  N  N38  1  0.86678577  0.21645365  0.83405794  1
  N  N39  1  0.77494292  0.09389171  0.58709138  1
  N  N40  1  0.55489621  0.20687401  0.33742910  1
  N  N41  1  0.44434100  0.09348589  0.09397268  1
  N  N42  1  0.23342706  0.21645369  0.83405784  1
  N  N43  1  0.11026305  0.09614063  0.59325846  1
  N  N44  1  0.88621482  0.20688605  0.34735607  1
  N  N45  1  0.77883996  0.09348584  0.09397270  1
  N  N46  1  0.55574919  0.20516814  0.84374954  1
  N  N47  1  0.44783216  0.09389169  0.58709138  1
  N  N48  1  0.22361838  0.53770039  0.34314193  1
  N  N49  1  0.11178073  0.42737764  0.09295659  1
  N  N50  1  0.88952998  0.53760656  0.84395435  1
  N  N51  1  0.77733595  0.43117613  0.58772084  1
  N  N52  1  0.55534776  0.53770040  0.34314200  1
  N  N53  1  0.44369011  0.42928664  0.08974779  1
  N  N54  1  0.22322647  0.53719711  0.83781132  1
  N  N55  1  0.10815470  0.43117618  0.58772080  1
  N  N56  1  0.88821652  0.54023347  0.33726379  1
  N  N57  1  0.77750849  0.42737760  0.09295663  1
  N  N58  1  0.55624295  0.53719712  0.83781130  1
  N  N59  1  0.44527731  0.42611218  0.59172028  1
  N  N60  1  0.22312534  0.87041589  0.35712543  1
  N  N61  1  0.10060217  0.75005145  0.08968597  1
  N  N62  1  0.88699647  0.87422177  0.83843538  1
  N  N63  1  0.77853859  0.75958965  0.59264977  1
  N  N64  1  0.55753836  0.87146772  0.34271962  1
  N  N65  1  0.46601327  0.75005141  0.08968599  1
  N  N66  1  0.23127152  0.85412348  0.84297458  1
  N  N67  1  0.10920531  0.75972736  0.59248460  1
  N  N68  1  0.88766047  0.87146771  0.34271966  1
  N  N69  1  0.77753450  0.76159785  0.08836239  1
  N  N70  1  0.55544826  0.87422178  0.83843543  1
  N  N71  1  0.44773420  0.75972735  0.59248465  1
