# generated using pymatgen
data_ScAl17N18
_symmetry_space_group_name_H-M   'P 1'
_cell_length_a   9.50039924
_cell_length_b   9.49703628
_cell_length_c   9.99181646
_cell_angle_alpha   89.98576773
_cell_angle_beta   89.99999494
_cell_angle_gamma   59.98828937
_symmetry_Int_Tables_number   1
_chemical_formula_structural   ScAl17N18
_chemical_formula_sum   'Sc2 Al34 N36'
_cell_volume   780.64530968
_cell_formula_units_Z   2
loop_
 _symmetry_equiv_pos_site_id
 _symmetry_equiv_pos_as_xyz
  1  'x, y, z'
loop_
 _atom_site_type_symbol
 _atom_site_label
 _atom_site_symmetry_multiplicity
 _atom_site_fract_x
 _atom_site_fract_y
 _atom_site_fract_z
 _atom_site_occupancy
  Al  Al0  1  0.11016894  0.09632880  0.40189883  1
  Al  Al1  1  0.22171017  0.20906998  0.14837183  1
  Al  Al2  1  0.77356832  0.09560865  0.89542868  1
  Al  Al3  1  0.88061880  0.20972563  0.64191711  1
  Al  Al4  1  0.44586894  0.09400160  0.39428043  1
  Al  Al5  1  0.55528532  0.20609607  0.14487529  1
  Al  Al6  1  0.22632227  0.20972563  0.64191711  1
  Al  Al7  1  0.77679614  0.09400159  0.39428038  1
  Al  Al8  1  0.88588655  0.20906999  0.14837180  1
  Al  Al9  1  0.44748971  0.09560865  0.89542867  1
  Al  Al10  1  0.55571440  0.20523792  0.64530264  1
  Al  Al11  1  0.11008006  0.42948023  0.39448298  1
  Al  Al12  1  0.22146661  0.53587761  0.14510699  1
  Al  Al13  1  0.77340750  0.43055840  0.89574797  1
  Al  Al14  1  0.88886711  0.53893248  0.64492488  1
  Al  Al15  1  0.44443563  0.42779541  0.39491925  1
  Al  Al16  1  0.55932247  0.53587763  0.14510701  1
  Al  Al17  1  0.11270078  0.43055840  0.89574796  1
  Al  Al18  1  0.22251818  0.53745406  0.64515660  1
  Al  Al19  1  0.77710638  0.42948023  0.39448298  1
  Al  Al20  1  0.88894926  0.53876816  0.14397212  1
  Al  Al21  1  0.44440652  0.42785366  0.89396217  1
  Al  Al22  1  0.55669443  0.53745408  0.64515661  1
  Al  Al23  1  0.10956928  0.75993254  0.39917963  1
  Al  Al24  1  0.77768932  0.76128800  0.89495599  1
  Al  Al25  1  0.88724846  0.87271471  0.64480530  1
  Al  Al26  1  0.44716486  0.75993256  0.39917963  1
  Al  Al27  1  0.55970256  0.87079420  0.14488308  1
  Al  Al28  1  0.10943090  0.75501323  0.89199907  1
  Al  Al29  1  0.22552589  0.86561493  0.64287027  1
  Al  Al30  1  0.77800317  0.76066032  0.39501096  1
  Al  Al31  1  0.88616993  0.87079416  0.14488306  1
  Al  Al32  1  0.45222255  0.75501326  0.89199909  1
  Al  Al33  1  0.55670353  0.87271471  0.64480528  1
  Sc  Sc34  1  0.10863511  0.09939628  0.87994996  1
  Sc  Sc35  1  0.22345141  0.86976378  0.14252180  1
  N  N36  1  0.22244207  0.20596833  0.34143816  1
  N  N37  1  0.10190499  0.11285673  0.09200312  1
  N  N38  1  0.86432814  0.21767830  0.83053450  1
  N  N39  1  0.77632557  0.09348909  0.58519595  1
  N  N40  1  0.55523272  0.20620124  0.33651993  1
  N  N41  1  0.44417888  0.09418009  0.08881354  1
  N  N42  1  0.23466023  0.21767826  0.83053452  1
  N  N43  1  0.11030504  0.09605661  0.59920049  1
  N  N44  1  0.88825631  0.20596830  0.34143816  1
  N  N45  1  0.77830772  0.09418007  0.08881354  1
  N  N46  1  0.55547279  0.20572112  0.83766147  1
  N  N47  1  0.44685204  0.09348910  0.58519588  1
  N  N48  1  0.22243129  0.53929129  0.33754793  1
  N  N49  1  0.11127537  0.42721989  0.08819920  1
  N  N50  1  0.88937784  0.53791103  0.83828354  1
  N  N51  1  0.77700001  0.43012582  0.58526031  1
  N  N52  1  0.55494409  0.53929131  0.33754790  1
  N  N53  1  0.44407344  0.42851978  0.08734358  1
  N  N54  1  0.22338206  0.53706270  0.83587623  1
  N  N55  1  0.10954084  0.43012582  0.58526027  1
  N  N56  1  0.88865978  0.53934714  0.33626314  1
  N  N57  1  0.77817144  0.42721989  0.08819917  1
  N  N58  1  0.55622194  0.53706270  0.83587626  1
  N  N59  1  0.44463466  0.42739736  0.58724807  1
  N  N60  1  0.22214427  0.87237814  0.35600734  1
  N  N61  1  0.10066807  0.75058998  0.08201569  1
  N  N62  1  0.88702595  0.87371009  0.83645679  1
  N  N63  1  0.77803096  0.76060477  0.58719508  1
  N  N64  1  0.55592667  0.87180910  0.33745906  1
  N  N65  1  0.46540864  0.75059000  0.08201572  1
  N  N66  1  0.23295951  0.85074766  0.83674205  1
  N  N67  1  0.10916952  0.75929191  0.58972750  1
  N  N68  1  0.88893094  0.87180907  0.33745914  1
  N  N69  1  0.77798368  0.76069929  0.08683316  1
  N  N70  1  0.55593064  0.87371013  0.83645677  1
  N  N71  1  0.44820528  0.75929191  0.58972750  1
