# generated using pymatgen
data_ScAl17N18
_symmetry_space_group_name_H-M   'P 1'
_cell_length_a   9.50039741
_cell_length_b   9.49703616
_cell_length_c   9.99181320
_cell_angle_alpha   89.98582480
_cell_angle_beta   90.00000368
_cell_angle_gamma   59.98829328
_symmetry_Int_Tables_number   1
_chemical_formula_structural   ScAl17N18
_chemical_formula_sum   'Sc2 Al34 N36'
_cell_volume   780.64492465
_cell_formula_units_Z   2
loop_
 _symmetry_equiv_pos_site_id
 _symmetry_equiv_pos_as_xyz
  1  'x, y, z'
loop_
 _atom_site_type_symbol
 _atom_site_label
 _atom_site_symmetry_multiplicity
 _atom_site_fract_x
 _atom_site_fract_y
 _atom_site_fract_z
 _atom_site_occupancy
  Al  Al0  1  0.11017045  0.09632576  0.40574732  1
  Al  Al1  1  0.22171185  0.20906717  0.15221381  1
  Al  Al2  1  0.77356919  0.09560537  0.89927413  1
  Al  Al3  1  0.88062025  0.20972216  0.64576460  1
  Al  Al4  1  0.44587013  0.09399801  0.39813129  1
  Al  Al5  1  0.55528753  0.20609163  0.14872538  1
  Al  Al6  1  0.22632427  0.20972216  0.64576459  1
  Al  Al7  1  0.77679854  0.09399800  0.39813128  1
  Al  Al8  1  0.88588766  0.20906717  0.15221379  1
  Al  Al9  1  0.44749212  0.09560538  0.89927412  1
  Al  Al10  1  0.55571558  0.20523554  0.64915015  1
  Al  Al11  1  0.11008272  0.42947582  0.39833371  1
  Al  Al12  1  0.22146790  0.53587359  0.14895495  1
  Al  Al13  1  0.77340926  0.43055591  0.89959284  1
  Al  Al14  1  0.88886825  0.53893019  0.64877232  1
  Al  Al15  1  0.44443728  0.42779212  0.39876748  1
  Al  Al16  1  0.55932522  0.53587358  0.14895495  1
  Al  Al17  1  0.11270150  0.43055592  0.89959284  1
  Al  Al18  1  0.22252027  0.53745167  0.64900612  1
  Al  Al19  1  0.77710814  0.42947583  0.39833371  1
  Al  Al20  1  0.88895130  0.53876410  0.14782350  1
  Al  Al21  1  0.44440846  0.42784977  0.89781350  1
  Al  Al22  1  0.55669475  0.53745167  0.64900611  1
  Al  Al23  1  0.10957090  0.75992911  0.40302380  1
  Al  Al24  1  0.77769134  0.76128399  0.89880607  1
  Al  Al25  1  0.88725116  0.87271018  0.64865504  1
  Al  Al26  1  0.44716667  0.75992911  0.40302382  1
  Al  Al27  1  0.55970422  0.87079201  0.14873160  1
  Al  Al28  1  0.10943242  0.75500994  0.89584982  1
  Al  Al29  1  0.22552848  0.86560970  0.64672080  1
  Al  Al30  1  0.77800450  0.76065767  0.39885989  1
  Al  Al31  1  0.88617050  0.87079197  0.14873159  1
  Al  Al32  1  0.45222432  0.75500993  0.89584980  1
  Al  Al33  1  0.55670535  0.87271019  0.64865504  1
  Sc  Sc34  1  0.10863659  0.09939348  0.88379237  1
  Sc  Sc35  1  0.22345176  0.86976322  0.14636927  1
  N  N36  1  0.22244393  0.20596470  0.34528347  1
  N  N37  1  0.10190621  0.11285427  0.09584472  1
  N  N38  1  0.86432883  0.21767554  0.83438040  1
  N  N39  1  0.77632771  0.09348507  0.58904533  1
  N  N40  1  0.55523489  0.20619691  0.34036937  1
  N  N41  1  0.44418128  0.09417682  0.09265836  1
  N  N42  1  0.23466231  0.21767554  0.83438036  1
  N  N43  1  0.11030700  0.09605266  0.60304927  1
  N  N44  1  0.88825804  0.20596470  0.34528347  1
  N  N45  1  0.77830858  0.09417679  0.09265836  1
  N  N46  1  0.55547394  0.20571880  0.84150724  1
  N  N47  1  0.44685390  0.09348507  0.58904534  1
  N  N48  1  0.22243301  0.53928688  0.34139470  1
  N  N49  1  0.11127594  0.42721768  0.09204357  1
  N  N50  1  0.88937907  0.53790855  0.84212897  1
  N  N51  1  0.77700116  0.43012244  0.58910942  1
  N  N52  1  0.55494678  0.53928690  0.34139470  1
  N  N53  1  0.44407552  0.42851566  0.09119287  1
  N  N54  1  0.22338417  0.53706012  0.83972460  1
  N  N55  1  0.10954308  0.43012243  0.58910941  1
  N  N56  1  0.88866181  0.53934306  0.34011377  1
  N  N57  1  0.77817307  0.42721768  0.09204358  1
  N  N58  1  0.55622239  0.53706010  0.83972459  1
  N  N59  1  0.44463609  0.42739450  0.59109517  1
  N  N60  1  0.22214559  0.87237551  0.35985373  1
  N  N61  1  0.10066973  0.75058697  0.08586521  1
  N  N62  1  0.88702823  0.87370576  0.84030516  1
  N  N63  1  0.77803231  0.76060207  0.59104262  1
  N  N64  1  0.55592854  0.87180642  0.34130637  1
  N  N65  1  0.46541007  0.75058695  0.08586518  1
  N  N66  1  0.23296169  0.85074329  0.84059134  1
  N  N67  1  0.10917144  0.75928844  0.59357317  1
  N  N68  1  0.88893172  0.87180640  0.34130638  1
  N  N69  1  0.77798581  0.76069507  0.09068182  1
  N  N70  1  0.55593268  0.87370577  0.84030517  1
  N  N71  1  0.44820679  0.75928844  0.59357318  1
