# generated using pymatgen
data_ScAl17N18
_symmetry_space_group_name_H-M   'P 1'
_cell_length_a   9.50036092
_cell_length_b   9.49698912
_cell_length_c   9.99192282
_cell_angle_alpha   89.98568142
_cell_angle_beta   89.99998655
_cell_angle_gamma   59.98826078
_symmetry_Int_Tables_number   1
_chemical_formula_structural   ScAl17N18
_chemical_formula_sum   'Sc2 Al34 N36'
_cell_volume   780.64636754
_cell_formula_units_Z   2
loop_
 _symmetry_equiv_pos_site_id
 _symmetry_equiv_pos_as_xyz
  1  'x, y, z'
loop_
 _atom_site_type_symbol
 _atom_site_label
 _atom_site_symmetry_multiplicity
 _atom_site_fract_x
 _atom_site_fract_y
 _atom_site_fract_z
 _atom_site_occupancy
  Al  Al0  1  0.11017325  0.09632015  0.41299371  1
  Al  Al1  1  0.22171552  0.20906041  0.15946250  1
  Al  Al2  1  0.77357271  0.09559931  0.90652386  1
  Al  Al3  1  0.88062466  0.20971542  0.65301133  1
  Al  Al4  1  0.44587307  0.09399225  0.40537977  1
  Al  Al5  1  0.55529047  0.20608576  0.15597511  1
  Al  Al6  1  0.22632661  0.20971539  0.65301127  1
  Al  Al7  1  0.77680131  0.09399225  0.40537982  1
  Al  Al8  1  0.88589073  0.20906045  0.15946252  1
  Al  Al9  1  0.44749468  0.09559933  0.90652382  1
  Al  Al10  1  0.55571862  0.20522942  0.65640043  1
  Al  Al11  1  0.11008549  0.42947008  0.40558225  1
  Al  Al12  1  0.22147085  0.53586752  0.15620365  1
  Al  Al13  1  0.77341317  0.43054870  0.90684262  1
  Al  Al14  1  0.88887134  0.53892402  0.65602242  1
  Al  Al15  1  0.44444009  0.42778652  0.40601736  1
  Al  Al16  1  0.55932833  0.53586755  0.15620369  1
  Al  Al17  1  0.11270483  0.43054869  0.90684260  1
  Al  Al18  1  0.22252318  0.53744523  0.65625568  1
  Al  Al19  1  0.77711109  0.42947009  0.40558227  1
  Al  Al20  1  0.88895447  0.53875775  0.15507230  1
  Al  Al21  1  0.44441161  0.42784351  0.90506273  1
  Al  Al22  1  0.55669829  0.53744524  0.65625568  1
  Al  Al23  1  0.10957344  0.75992283  0.41027212  1
  Al  Al24  1  0.77769442  0.76127778  0.90605629  1
  Al  Al25  1  0.88725380  0.87270448  0.65590434  1
  Al  Al26  1  0.44717038  0.75992284  0.41027211  1
  Al  Al27  1  0.55970699  0.87078549  0.15598042  1
  Al  Al28  1  0.10943589  0.75500404  0.90309514  1
  Al  Al29  1  0.22553095  0.86560477  0.65396522  1
  Al  Al30  1  0.77800743  0.76065176  0.40610959  1
  Al  Al31  1  0.88617417  0.87078545  0.15598043  1
  Al  Al32  1  0.45222674  0.75500404  0.90309514  1
  Al  Al33  1  0.55670838  0.87270449  0.65590431  1
  Sc  Sc34  1  0.10864055  0.09938563  0.89104468  1
  Sc  Sc35  1  0.22345634  0.86975398  0.15361931  1
  N  N36  1  0.22244720  0.20595903  0.35252967  1
  N  N37  1  0.10191034  0.11284598  0.10309454  1
  N  N38  1  0.86433377  0.21766819  0.84162646  1
  N  N39  1  0.77633039  0.09347944  0.59629233  1
  N  N40  1  0.55523767  0.20619133  0.34761713  1
  N  N41  1  0.44418438  0.09417095  0.09990587  1
  N  N42  1  0.23466480  0.21766817  0.84162639  1
  N  N43  1  0.11030975  0.09604715  0.61029230  1
  N  N44  1  0.88826044  0.20595904  0.35252972  1
  N  N45  1  0.77831136  0.09417094  0.09990592  1
  N  N46  1  0.55547717  0.20571242  0.84875559  1
  N  N47  1  0.44685685  0.09347943  0.59629226  1
  N  N48  1  0.22243598  0.53928102  0.34864152  1
  N  N49  1  0.11127908  0.42721107  0.09929107  1
  N  N50  1  0.88938224  0.53790226  0.84937726  1
  N  N51  1  0.77700424  0.43011670  0.59635650  1
  N  N52  1  0.55494973  0.53928103  0.34864153  1
  N  N53  1  0.44407850  0.42850975  0.09844037  1
  N  N54  1  0.22338754  0.53705292  0.84697231  1
  N  N55  1  0.10954577  0.43011668  0.59635649  1
  N  N56  1  0.88866472  0.53933727  0.34736091  1
  N  N57  1  0.77817653  0.42721109  0.09929108  1
  N  N58  1  0.55622632  0.53705293  0.84697230  1
  N  N59  1  0.44463892  0.42738887  0.59834324  1
  N  N60  1  0.22214905  0.87236860  0.36710147  1
  N  N61  1  0.10067285  0.75058097  0.09310985  1
  N  N62  1  0.88703083  0.87369972  0.84755272  1
  N  N63  1  0.77803516  0.76059634  0.59829050  1
  N  N64  1  0.55593149  0.87180044  0.34855324  1
  N  N65  1  0.46541283  0.75058099  0.09310983  1
  N  N66  1  0.23296471  0.85073730  0.84783377  1
  N  N67  1  0.10917380  0.75928221  0.60081971  1
  N  N68  1  0.88893476  0.87180043  0.34855327  1
  N  N69  1  0.77798878  0.76068905  0.09793004  1
  N  N70  1  0.55593612  0.87369975  0.84755270  1
  N  N71  1  0.44821068  0.75928220  0.60081970  1
