# generated using pymatgen
data_ScAl17N18
_symmetry_space_group_name_H-M   'P 1'
_cell_length_a   9.50039429
_cell_length_b   9.49703480
_cell_length_c   9.99181447
_cell_angle_alpha   89.98584460
_cell_angle_beta   90.00000838
_cell_angle_gamma   59.98829517
_symmetry_Int_Tables_number   1
_chemical_formula_structural   ScAl17N18
_chemical_formula_sum   'Sc2 Al34 N36'
_cell_volume   780.64467151
_cell_formula_units_Z   2
loop_
 _symmetry_equiv_pos_site_id
 _symmetry_equiv_pos_as_xyz
  1  'x, y, z'
loop_
 _atom_site_type_symbol
 _atom_site_label
 _atom_site_symmetry_multiplicity
 _atom_site_fract_x
 _atom_site_fract_y
 _atom_site_fract_z
 _atom_site_occupancy
  Al  Al0  1  0.10782982  0.10100701  0.31179753  1
  Al  Al1  1  0.22392589  0.21160659  0.06266840  1
  Al  Al2  1  0.77365425  0.09582467  0.80978582  1
  Al  Al3  1  0.88619169  0.20668751  0.55549423  1
  Al  Al4  1  0.44610721  0.09390648  0.30986223  1
  Al  Al5  1  0.55566706  0.20533258  0.05971101  1
  Al  Al6  1  0.22378746  0.20668751  0.55549426  1
  Al  Al7  1  0.77665303  0.09390648  0.30986225  1
  Al  Al8  1  0.88113419  0.21160655  0.06266845  1
  Al  Al9  1  0.44718776  0.09582468  0.80978583  1
  Al  Al10  1  0.55535385  0.20595900  0.55965738  1
  Al  Al11  1  0.11083809  0.42916491  0.30951120  1
  Al  Al12  1  0.22065681  0.53606083  0.05892445  1
  Al  Al13  1  0.77403328  0.43074292  0.80956269  1
  Al  Al14  1  0.88892111  0.53882450  0.55974999  1
  Al  Al15  1  0.44449011  0.42768642  0.30974497  1
  Al  Al16  1  0.55994900  0.53606080  0.05892453  1
  Al  Al17  1  0.11189046  0.43074295  0.80956265  1
  Al  Al18  1  0.22327565  0.53714083  0.56018393  1
  Al  Al19  1  0.77666373  0.42916490  0.30951123  1
  Al  Al20  1  0.88894987  0.53876700  0.06070396  1
  Al  Al21  1  0.44440701  0.42785258  0.81069404  1
  Al  Al22  1  0.55625022  0.53714080  0.56018389  1
  Al  Al23  1  0.10703400  0.75689455  0.31275347  1
  Al  Al24  1  0.77807087  0.76052495  0.80979207  1
  Al  Al25  1  0.88748820  0.87261872  0.56038635  1
  Al  Al26  1  0.45273810  0.75689455  0.31275349  1
  Al  Al27  1  0.55978921  0.87101118  0.05924315  1
  Al  Al28  1  0.11164648  0.75754948  0.80630427  1
  Al  Al29  1  0.22318787  0.87029093  0.55277069  1
  Al  Al30  1  0.77764277  0.76138122  0.30936714  1
  Al  Al31  1  0.88586633  0.87101119  0.05924314  1
  Al  Al32  1  0.44747066  0.75754946  0.80630428  1
  Al  Al33  1  0.55655979  0.87261871  0.56038634  1
  Sc  Sc34  1  0.10990630  0.09685391  0.81214909  1
  Sc  Sc35  1  0.22472156  0.86722343  0.07472551  1
  N  N36  1  0.22418690  0.20732827  0.36494444  1
  N  N37  1  0.10039663  0.11587339  0.11792612  1
  N  N38  1  0.86794840  0.21602965  0.87265217  1
  N  N39  1  0.77742973  0.09481033  0.61721101  1
  N  N40  1  0.55532601  0.20601467  0.36747441  1
  N  N41  1  0.44633018  0.09291091  0.11821198  1
  N  N42  1  0.23268860  0.21602974  0.87265229  1
  N  N43  1  0.11121272  0.09424120  0.59866411  1
  N  N44  1  0.88515145  0.20732829  0.36494439  1
  N  N45  1  0.77742563  0.09291090  0.11821197  1
  N  N46  1  0.55537254  0.20592171  0.86783512  1
  N  N47  1  0.44442662  0.09481035  0.61721097  1
  N  N48  1  0.22381532  0.53649421  0.36940771  1
  N  N49  1  0.10997400  0.42955666  0.11879240  1
  N  N50  1  0.88928279  0.53810104  0.86732442  1
  N  N51  1  0.77841160  0.42732982  0.61712261  1
  N  N52  1  0.55635711  0.53649420  0.36940782  1
  N  N53  1  0.44397928  0.42870807  0.11638804  1
  N  N54  1  0.22208246  0.53939880  0.86647368  1
  N  N55  1  0.11092524  0.42732984  0.61712263  1
  N  N56  1  0.88872217  0.53922234  0.36742188  1
  N  N57  1  0.77713601  0.42955668  0.11879238  1
  N  N58  1  0.55518541  0.53939873  0.86647367  1
  N  N59  1  0.44469660  0.42727348  0.61840334  1
  N  N60  1  0.22305132  0.87056408  0.35546830  1
  N  N61  1  0.09869595  0.74894112  0.12413693  1
  N  N62  1  0.88917697  0.87243989  0.86585900  1
  N  N63  1  0.77812351  0.76041967  0.61814767  1
  N  N64  1  0.55703065  0.87313173  0.36947198  1
  N  N65  1  0.46902961  0.74894113  0.12413700  1
  N  N66  1  0.23145226  0.85376208  0.86267309  1
  N  N67  1  0.11091433  0.76065200  0.61323406  1
  N  N68  1  0.88650429  0.87313172  0.36947192  1
  N  N69  1  0.77788445  0.76089782  0.11700963  1
  N  N70  1  0.55504980  0.87243993  0.86585900  1
  N  N71  1  0.44510033  0.76065202  0.61323410  1
