# generated using pymatgen
data_ScAl17N18
_symmetry_space_group_name_H-M   'P 1'
_cell_length_a   9.50237820
_cell_length_b   9.49896180
_cell_length_c   9.98662550
_cell_angle_alpha   89.98819848
_cell_angle_beta   90.00003137
_cell_angle_gamma   59.98809616
_symmetry_Int_Tables_number   1
_chemical_formula_structural   ScAl17N18
_chemical_formula_sum   'Sc2 Al34 N36'
_cell_volume   780.55898947
_cell_formula_units_Z   2
loop_
 _symmetry_equiv_pos_site_id
 _symmetry_equiv_pos_as_xyz
  1  'x, y, z'
loop_
 _atom_site_type_symbol
 _atom_site_label
 _atom_site_symmetry_multiplicity
 _atom_site_fract_x
 _atom_site_fract_y
 _atom_site_fract_z
 _atom_site_occupancy
  Al  Al0  1  0.11018809  0.09629052  0.39370961  1
  Al  Al1  1  0.22168592  0.20908148  0.14015236  1
  Al  Al2  1  0.77356149  0.09561371  0.88725783  1
  Al  Al3  1  0.88055294  0.20975716  0.63370005  1
  Al  Al4  1  0.44587540  0.09399626  0.38606951  1
  Al  Al5  1  0.55527965  0.20610741  0.13668123  1
  Al  Al6  1  0.22635659  0.20975718  0.63370008  1
  Al  Al7  1  0.77679502  0.09399623  0.38606948  1
  Al  Al8  1  0.88589931  0.20908148  0.14015236  1
  Al  Al9  1  0.44749153  0.09561375  0.88725783  1
  Al  Al10  1  0.55571790  0.20523093  0.63712982  1
  Al  Al11  1  0.11007105  0.42947922  0.38627819  1
  Al  Al12  1  0.22147544  0.53587910  0.13695095  1
  Al  Al13  1  0.77337801  0.43057860  0.88757721  1
  Al  Al14  1  0.88886893  0.53892884  0.63675204  1
  Al  Al15  1  0.44444379  0.42777909  0.38674849  1
  Al  Al16  1  0.55931219  0.53587909  0.13695092  1
  Al  Al17  1  0.11271009  0.43057865  0.88757722  1
  Al  Al18  1  0.22251305  0.53746697  0.63694890  1
  Al  Al19  1  0.77711642  0.42947921  0.38627820  1
  Al  Al20  1  0.88894171  0.53878328  0.13577607  1
  Al  Al21  1  0.44439857  0.42786957  0.88577014  1
  Al  Al22  1  0.55668670  0.53746692  0.63694892  1
  Al  Al23  1  0.10959235  0.75994827  0.39093215  1
  Al  Al24  1  0.77768293  0.76130083  0.88675997  1
  Al  Al25  1  0.88725345  0.87271942  0.63659810  1
  Al  Al26  1  0.44712608  0.75994826  0.39093218  1
  Al  Al27  1  0.55971610  0.87079356  0.13672147  1
  Al  Al28  1  0.10939712  0.75500668  0.88383667  1
  Al  Al29  1  0.22554440  0.86557787  0.63475120  1
  Al  Al30  1  0.77801048  0.76064571  0.38684375  1
  Al  Al31  1  0.88615708  0.87079352  0.13672146  1
  Al  Al32  1  0.45226295  0.75500665  0.88383668  1
  Al  Al33  1  0.55669382  0.87271944  0.63659812  1
  Sc  Sc34  1  0.10858446  0.09949785  0.87153736  1
  Sc  Sc35  1  0.22340826  0.86985004  0.13407872  1
  N  N36  1  0.22243410  0.20594920  0.33332694  1
  N  N37  1  0.10184900  0.11296868  0.08371569  1
  N  N38  1  0.86423829  0.21772847  0.82240585  1
  N  N39  1  0.77631048  0.09348793  0.57706617  1
  N  N40  1  0.55523348  0.20619966  0.32840220  1
  N  N41  1  0.44417680  0.09417606  0.08072263  1
  N  N42  1  0.23469984  0.21772850  0.82240588  1
  N  N43  1  0.11031345  0.09603979  0.59117316  1
  N  N44  1  0.88828335  0.20594917  0.33332695  1
  N  N45  1  0.77831385  0.09417603  0.08072263  1
  N  N46  1  0.55547368  0.20571931  0.82957212  1
  N  N47  1  0.44686824  0.09348794  0.57706619  1
  N  N48  1  0.22244743  0.53927078  0.32946373  1
  N  N49  1  0.11127802  0.42724038  0.08010921  1
  N  N50  1  0.88938163  0.53790338  0.83019217  1
  N  N51  1  0.77699390  0.43014380  0.57713578  1
  N  N52  1  0.55494840  0.53927079  0.32946373  1
  N  N53  1  0.44406790  0.42853086  0.07923362  1
  N  N54  1  0.22337365  0.53708411  0.82775498  1
  N  N55  1  0.10952894  0.43014381  0.57713576  1
  N  N56  1  0.88865894  0.53934871  0.32814555  1
  N  N57  1  0.77814832  0.42724032  0.08010920  1
  N  N58  1  0.55620893  0.53708407  0.82775498  1
  N  N59  1  0.44464079  0.42738507  0.57915426  1
  N  N60  1  0.22213647  0.87239369  0.34771628  1
  N  N61  1  0.10063797  0.75056802  0.07394000  1
  N  N62  1  0.88702188  0.87371880  0.82833596  1
  N  N63  1  0.77803602  0.76059461  0.57910450  1
  N  N64  1  0.55594519  0.87179625  0.32937026  1
  N  N65  1  0.46546070  0.75056803  0.07393998  1
  N  N66  1  0.23295791  0.85075085  0.82876886  1
  N  N67  1  0.10918815  0.75931163  0.58159426  1
  N  N68  1  0.88892519  0.87179623  0.32937024  1
  N  N69  1  0.77797691  0.76071292  0.07872025  1
  N  N70  1  0.55592598  0.87371882  0.82833594  1
  N  N71  1  0.44816690  0.75931161  0.58159432  1
