# generated using pymatgen
data_ScAl17N18
_symmetry_space_group_name_H-M   'P 1'
_cell_length_a   9.97472670
_cell_length_b   9.97250997
_cell_length_c   8.56430645
_cell_angle_alpha   90.02536674
_cell_angle_beta   89.99999987
_cell_angle_gamma   59.99265297
_symmetry_Int_Tables_number   1
_chemical_formula_structural   ScAl17N18
_chemical_formula_sum   'Sc2 Al34 N36'
_cell_volume   737.72771793
_cell_formula_units_Z   2
loop_
 _symmetry_equiv_pos_site_id
 _symmetry_equiv_pos_as_xyz
  1  'x, y, z'
loop_
 _atom_site_type_symbol
 _atom_site_label
 _atom_site_symmetry_multiplicity
 _atom_site_fract_x
 _atom_site_fract_y
 _atom_site_fract_z
 _atom_site_occupancy
  Al  Al0  1  0.10903332  0.09860003  0.35485128  1
  Al  Al1  1  0.22406481  0.21062908  0.10218714  1
  Al  Al2  1  0.77332712  0.09561015  0.84576683  1
  Al  Al3  1  0.88381203  0.20807699  0.59453375  1
  Al  Al4  1  0.44631257  0.09336643  0.34835890  1
  Al  Al5  1  0.55587313  0.20492045  0.09877246  1
  Al  Al6  1  0.22477768  0.20807698  0.59453377  1
  Al  Al7  1  0.77698769  0.09336640  0.34835891  1
  Al  Al8  1  0.88197283  0.21062906  0.10218714  1
  Al  Al9  1  0.44772934  0.09561019  0.84576686  1
  Al  Al10  1  0.55501470  0.20663729  0.59483191  1
  Al  Al11  1  0.11065162  0.42922423  0.34859522  1
  Al  Al12  1  0.22105498  0.53593194  0.09680198  1
  Al  Al13  1  0.77436094  0.43136660  0.84510686  1
  Al  Al14  1  0.88846380  0.53973907  0.59557700  1
  Al  Al15  1  0.44439252  0.42788170  0.34580350  1
  Al  Al16  1  0.55967978  0.53593195  0.09680194  1
  Al  Al17  1  0.11093910  0.43136658  0.84510686  1
  Al  Al18  1  0.22408980  0.53659685  0.59704805  1
  Al  Al19  1  0.77679084  0.42922423  0.34859520  1
  Al  Al20  1  0.88907395  0.53851880  0.09859967  1
  Al  Al21  1  0.44479497  0.42707672  0.84831970  1
  Al  Al22  1  0.55598003  0.53659688  0.59704806  1
  Al  Al23  1  0.10774184  0.75772583  0.35402201  1
  Al  Al24  1  0.77825397  0.76015867  0.84749434  1
  Al  Al25  1  0.88651984  0.87266111  0.59778801  1
  Al  Al26  1  0.45119904  0.75772583  0.35402198  1
  Al  Al27  1  0.55893918  0.87173190  0.09639890  1
  Al  Al28  1  0.11004467  0.75668543  0.84239146  1
  Al  Al29  1  0.22395450  0.86875769  0.59848683  1
  Al  Al30  1  0.77761095  0.76144483  0.34634137  1
  Al  Al31  1  0.88599565  0.87173186  0.09639888  1
  Al  Al32  1  0.44993646  0.75668550  0.84239149  1
  Al  Al33  1  0.55748573  0.87266114  0.59778801  1
  Sc  Sc34  1  0.10857023  0.09952615  0.85072779  1
  Sc  Sc35  1  0.22511664  0.86643341  0.10782030  1
  N  N36  1  0.22409182  0.20688354  0.36027969  1
  N  N37  1  0.10249930  0.11166811  0.11359157  1
  N  N38  1  0.86845259  0.21597561  0.86029830  1
  N  N39  1  0.77587446  0.09476665  0.60886480  1
  N  N40  1  0.55495737  0.20675194  0.35939387  1
  N  N41  1  0.44604058  0.09281512  0.11307533  1
  N  N42  1  0.23223843  0.21597559  0.86029826  1
  N  N43  1  0.11008545  0.09649571  0.59722546  1
  N  N44  1  0.88569132  0.20688356  0.36027965  1
  N  N45  1  0.77781102  0.09281507  0.11307533  1
  N  N46  1  0.55564942  0.20536783  0.86285797  1
  N  N47  1  0.44602556  0.09476666  0.60886481  1
  N  N48  1  0.22456787  0.53612113  0.36343937  1
  N  N49  1  0.11016882  0.42912465  0.11346352  1
  N  N50  1  0.88947677  0.53771312  0.86160194  1
  N  N51  1  0.77770715  0.42926721  0.60858624  1
  N  N52  1  0.55597772  0.53612115  0.36343937  1
  N  N53  1  0.44396883  0.42872904  0.10900010  1
  N  N54  1  0.22223361  0.53860002  0.85895964  1
  N  N55  1  0.10969231  0.42926721  0.60858623  1
  N  N56  1  0.88823627  0.54019416  0.36022116  1
  N  N57  1  0.77737322  0.42912465  0.11346350  1
  N  N58  1  0.55583298  0.53860006  0.85895964  1
  N  N59  1  0.44502896  0.42660878  0.61317642  1
  N  N60  1  0.22319143  0.87028390  0.36462308  1
  N  N61  1  0.10078153  0.75083735  0.11532078  1
  N  N62  1  0.88841471  0.87320696  0.85821749  1
  N  N63  1  0.77834654  0.75997360  0.61324437  1
  N  N64  1  0.55793050  0.87255174  0.36387464  1
  N  N65  1  0.46504781  0.75083736  0.11532076  1
  N  N66  1  0.23087786  0.85491086  0.84938371  1
  N  N67  1  0.10950060  0.75956228  0.60635966  1
  N  N68  1  0.88618450  0.87255172  0.36387465  1
  N  N69  1  0.77774533  0.76117603  0.10881824  1
  N  N70  1  0.55504494  0.87320702  0.85821752  1
  N  N71  1  0.44760379  0.75956230  0.60635968  1
