# generated using pymatgen
data_ScAl17N18
_symmetry_space_group_name_H-M   'P 1'
_cell_length_a   9.50165218
_cell_length_b   9.49828501
_cell_length_c   9.98853436
_cell_angle_alpha   89.98704495
_cell_angle_beta   90.00000118
_cell_angle_gamma   59.98828157
_symmetry_Int_Tables_number   1
_chemical_formula_structural   ScAl17N18
_chemical_formula_sum   'Sc2 Al34 N36'
_cell_volume   780.59437196
_cell_formula_units_Z   2
loop_
 _symmetry_equiv_pos_site_id
 _symmetry_equiv_pos_as_xyz
  1  'x, y, z'
loop_
 _atom_site_type_symbol
 _atom_site_label
 _atom_site_symmetry_multiplicity
 _atom_site_fract_x
 _atom_site_fract_y
 _atom_site_fract_z
 _atom_site_occupancy
  Al  Al0  1  0.11018541  0.09629581  0.41643668  1
  Al  Al1  1  0.22170272  0.20905466  0.16287599  1
  Al  Al2  1  0.77357098  0.09559623  0.90996124  1
  Al  Al3  1  0.88058376  0.20973014  0.65642867  1
  Al  Al4  1  0.44587971  0.09398425  0.40879005  1
  Al  Al5  1  0.55528935  0.20608800  0.15939574  1
  Al  Al6  1  0.22635277  0.20973014  0.65642864  1
  Al  Al7  1  0.77680270  0.09398424  0.40879008  1
  Al  Al8  1  0.88590926  0.20905469  0.16287602  1
  Al  Al9  1  0.44749949  0.09559625  0.90996122  1
  Al  Al10  1  0.55572392  0.20521890  0.65982933  1
  Al  Al11  1  0.11008358  0.42946408  0.40899515  1
  Al  Al12  1  0.22147897  0.53586247  0.15964566  1
  Al  Al13  1  0.77340256  0.43055278  0.91028227  1
  Al  Al14  1  0.88887598  0.53891472  0.65945090  1
  Al  Al15  1  0.44444612  0.42777446  0.40945002  1
  Al  Al16  1  0.55932526  0.53586247  0.15964566  1
  Al  Al17  1  0.11271134  0.43055281  0.91028227  1
  Al  Al18  1  0.22252274  0.53744104  0.65967236  1
  Al  Al19  1  0.77711900  0.42946407  0.40899517  1
  Al  Al20  1  0.88895298  0.53876071  0.15849442  1
  Al  Al21  1  0.44441086  0.42784499  0.90848322  1
  Al  Al22  1  0.55670294  0.53744103  0.65967237  1
  Al  Al23  1  0.10958513  0.75992222  0.41367857  1
  Al  Al24  1  0.77769398  0.76127875  0.90947459  1
  Al  Al25  1  0.88725616  0.87270149  0.65931938  1
  Al  Al26  1  0.44715934  0.75992221  0.41367857  1
  Al  Al27  1  0.55971652  0.87077953  0.15941909  1
  Al  Al28  1  0.10942278  0.75499294  0.90653819  1
  Al  Al29  1  0.22555017  0.86556636  0.65741827  1
  Al  Al30  1  0.77801348  0.76063970  0.40954173  1
  Al  Al31  1  0.88617064  0.87077952  0.15941912  1
  Al  Al32  1  0.45225102  0.75499290  0.90653819  1
  Al  Al33  1  0.55670907  0.87270148  0.65931939  1
  Sc  Sc34  1  0.10862136  0.09942396  0.89432284  1
  Sc  Sc35  1  0.22343594  0.86979474  0.15692421  1
  N  N36  1  0.22244362  0.20594134  0.35600904  1
  N  N37  1  0.10188864  0.11288930  0.10646334  1
  N  N38  1  0.86428155  0.21769289  0.84509510  1
  N  N39  1  0.77632557  0.09347176  0.59975284  1
  N  N40  1  0.55523923  0.20618827  0.35108619  1
  N  N41  1  0.44418552  0.09416278  0.10339476  1
  N  N42  1  0.23469223  0.21769287  0.84509511  1
  N  N43  1  0.11031706  0.09603250  0.61383721  1
  N  N44  1  0.88828170  0.20594135  0.35600906  1
  N  N45  1  0.77831838  0.09416275  0.10339480  1
  N  N46  1  0.55548121  0.20570432  0.85223899  1
  N  N47  1  0.44686935  0.09347177  0.59975282  1
  N  N48  1  0.22244671  0.53926630  0.35213003  1
  N  N49  1  0.11128383  0.42721284  0.10278243  1
  N  N50  1  0.88938765  0.53789142  0.85286040  1
  N  N51  1  0.77700607  0.43011754  0.59981931  1
  N  N52  1  0.55495370  0.53926629  0.35213001  1
  N  N53  1  0.44407811  0.42851046  0.10191348  1
  N  N54  1  0.22338442  0.53705658  0.85044289  1
  N  N55  1  0.10954304  0.43011756  0.59981926  1
  N  N56  1  0.88866610  0.53933444  0.35083089  1
  N  N57  1  0.77817001  0.42721282  0.10278246  1
  N  N58  1  0.55622574  0.53705657  0.85044290  1
  N  N59  1  0.44464504  0.42737664  0.60182610  1
  N  N60  1  0.22214785  0.87237099  0.37051061  1
  N  N61  1  0.10066149  0.75056398  0.09660688  1
  N  N62  1  0.88703144  0.87370055  0.85102216  1
  N  N63  1  0.77804141  0.76058387  0.60177250  1
  N  N64  1  0.55594312  0.87178879  0.35203884  1
  N  N65  1  0.46544121  0.75056397  0.09660684  1
  N  N66  1  0.23297339  0.85071997  0.85137353  1
  N  N67  1  0.10918260  0.75927896  0.60428842  1
  N  N68  1  0.88893479  0.87178879  0.35203885  1
  N  N69  1  0.77798840  0.76068990  0.10140187  1
  N  N70  1  0.55593476  0.87370055  0.85102215  1
  N  N71  1  0.44820515  0.75927893  0.60428844  1
