# generated using pymatgen
data_ScAl17N18
_symmetry_space_group_name_H-M   'P 1'
_cell_length_a   9.84670802
_cell_length_b   9.84395119
_cell_length_c   8.96398730
_cell_angle_alpha   90.02306786
_cell_angle_beta   89.99999949
_cell_angle_gamma   59.99073955
_symmetry_Int_Tables_number   1
_chemical_formula_structural   ScAl17N18
_chemical_formula_sum   'Sc2 Al34 N36'
_cell_volume   752.40521245
_cell_formula_units_Z   2
loop_
 _symmetry_equiv_pos_site_id
 _symmetry_equiv_pos_as_xyz
  1  'x, y, z'
loop_
 _atom_site_type_symbol
 _atom_site_label
 _atom_site_symmetry_multiplicity
 _atom_site_fract_x
 _atom_site_fract_y
 _atom_site_fract_z
 _atom_site_occupancy
  Al  Al0  1  0.10862432  0.09941798  0.34727756  1
  Al  Al1  1  0.22456538  0.21142519  0.09173005  1
  Al  Al2  1  0.77289589  0.09614678  0.83555067  1
  Al  Al3  1  0.88485195  0.20753049  0.58478258  1
  Al  Al4  1  0.44650723  0.09308715  0.33861226  1
  Al  Al5  1  0.55619965  0.20426738  0.08903730  1
  Al  Al6  1  0.22428424  0.20753050  0.58478258  1
  Al  Al7  1  0.77707231  0.09308713  0.33861228  1
  Al  Al8  1  0.88067610  0.21142520  0.09173005  1
  Al  Al9  1  0.44762397  0.09614682  0.83555067  1
  Al  Al10  1  0.55475395  0.20715877  0.58484376  1
  Al  Al11  1  0.11097165  0.42928160  0.33874400  1
  Al  Al12  1  0.21999216  0.53656124  0.08575639  1
  Al  Al13  1  0.77443071  0.43133065  0.83488283  1
  Al  Al14  1  0.88827533  0.54011601  0.58564377  1
  Al  Al15  1  0.44428612  0.42809448  0.33464528  1
  Al  Al16  1  0.56011326  0.53656125  0.08575636  1
  Al  Al17  1  0.11090532  0.43133061  0.83488284  1
  Al  Al18  1  0.22483414  0.53588391  0.58809511  1
  Al  Al19  1  0.77641344  0.42928161  0.33874401  1
  Al  Al20  1  0.88928964  0.53808740  0.08904380  1
  Al  Al21  1  0.44488838  0.42688990  0.84026605  1
  Al  Al22  1  0.55594860  0.53588396  0.58809513  1
  Al  Al23  1  0.10689827  0.75686521  0.34563873  1
  Al  Al24  1  0.77847530  0.75971605  0.83908760  1
  Al  Al25  1  0.88593997  0.87267908  0.58898064  1
  Al  Al26  1  0.45290321  0.75686522  0.34563869  1
  Al  Al27  1  0.55858842  0.87158523  0.08543461  1
  Al  Al28  1  0.11087804  0.75709836  0.83163211  1
  Al  Al29  1  0.22326528  0.87013615  0.58853799  1
  Al  Al30  1  0.77734659  0.76197355  0.33492625  1
  Al  Al31  1  0.88649307  0.87158519  0.08543460  1
  Al  Al32  1  0.44869022  0.75709843  0.83163214  1
  Al  Al33  1  0.55804764  0.87267910  0.58898061  1
  Sc  Sc34  1  0.10905024  0.09856621  0.84855042  1
  Sc  Sc35  1  0.22555953  0.86554753  0.10625345  1
  N  N36  1  0.22417649  0.20692246  0.36869622  1
  N  N37  1  0.10181829  0.11303008  0.11687214  1
  N  N38  1  0.86680807  0.21682274  0.87243720  1
  N  N39  1  0.77589003  0.09524295  0.61877950  1
  N  N40  1  0.55481379  0.20703910  0.36877601  1
  N  N41  1  0.44647182  0.09229929  0.12284726  1
  N  N42  1  0.23303584  0.21682271  0.87243721  1
  N  N43  1  0.11034845  0.09596975  0.60403203  1
  N  N44  1  0.88556771  0.20692248  0.36869622  1
  N  N45  1  0.77789558  0.09229927  0.12284726  1
  N  N46  1  0.55584980  0.20496708  0.87289295  1
  N  N47  1  0.44553369  0.09524295  0.61877950  1
  N  N48  1  0.22531946  0.53525923  0.37369599  1
  N  N49  1  0.11011099  0.42951661  0.12350690  1
  N  N50  1  0.88970102  0.53726466  0.87157474  1
  N  N51  1  0.77810858  0.42874523  0.61835195  1
  N  N52  1  0.55608800  0.53525926  0.37369599  1
  N  N53  1  0.44379326  0.42908015  0.11722778  1
  N  N54  1  0.22140842  0.53944045  0.86838203  1
  N  N55  1  0.10981285  0.42874523  0.61835195  1
  N  N56  1  0.88807748  0.54051175  0.36963791  1
  N  N57  1  0.77703905  0.42951662  0.12350688  1
  N  N58  1  0.55581778  0.53944049  0.86838201  1
  N  N59  1  0.44514503  0.42637662  0.62417520  1
  N  N60  1  0.22305802  0.87055069  0.36540500  1
  N  N61  1  0.09947405  0.74976399  0.12798257  1
  N  N62  1  0.88920104  0.87307101  0.86735279  1
  N  N63  1  0.77847094  0.75972480  0.62394119  1
  N  N64  1  0.55849610  0.87282155  0.37433587  1
  N  N65  1  0.46742863  0.74976400  0.12798253  1
  N  N66  1  0.23148929  0.85368805  0.86020398  1
  N  N67  1  0.10998534  0.75988599  0.61372879  1
  N  N68  1  0.88534907  0.87282155  0.37433590  1
  N  N69  1  0.77758412  0.76149843  0.11755436  1
  N  N70  1  0.55439460  0.87307106  0.86735281  1
  N  N71  1  0.44679534  0.75988602  0.61372881  1
