
#======================================================================
# CRYSTAL DATA
#----------------------------------------------------------------------
data_VESTA_phase_1

_chemical_name_common                  'Al   Hf   Mg   N                      '
_cell_length_a                         9.453906
_cell_length_b                         9.456440
_cell_length_c                         10.057016
_cell_angle_alpha                      90.019463
_cell_angle_beta                       90.000717
_cell_angle_gamma                      60.013172
_cell_volume                           778.746914
_space_group_name_H-M_alt              'P 1'
_space_group_IT_number                 1

loop_
_space_group_symop_operation_xyz
   'x, y, z'

loop_
   _atom_site_label
   _atom_site_occupancy
   _atom_site_fract_x
   _atom_site_fract_y
   _atom_site_fract_z
   _atom_site_adp_type
   _atom_site_U_iso_or_equiv
   _atom_site_type_symbol
   Al1        1.0     0.112072     0.094526     0.408177    Uiso  ? Al
   Al2        1.0     0.222393     0.205080     0.156336    Uiso  ? Al
   Al3        1.0     0.777972     0.093889     0.905628    Uiso  ? Al
   Al4        1.0     0.889827     0.203531     0.655492    Uiso  ? Al
   Al5        1.0     0.443580     0.095000     0.407609    Uiso  ? Al
   Al6        1.0     0.556102     0.199550     0.157737    Uiso  ? Al
   Al7        1.0     0.111246     0.094464     0.905419    Uiso  ? Al
   Al8        1.0     0.220417     0.206631     0.655944    Uiso  ? Al
   Al9        1.0     0.777824     0.093544     0.408000    Uiso  ? Al
   Al10       1.0     0.894498     0.199919     0.157649    Uiso  ? Al
   Al11       1.0     0.444136     0.094820     0.905377    Uiso  ? Al
   Al12       1.0     0.557154     0.204665     0.655980    Uiso  ? Al
   Al13       1.0     0.110704     0.426119     0.407737    Uiso  ? Al
   Al14       1.0     0.216883     0.538858     0.156620    Uiso  ? Al
   Al15       1.0     0.784693     0.424311     0.900123    Uiso  ? Al
   Al16       1.0     0.890938     0.538063     0.655806    Uiso  ? Al
   Al17       1.0     0.443840     0.425072     0.412843    Uiso  ? Al
   Al18       1.0     0.111830     0.428285     0.907126    Uiso  ? Al
   Al19       1.0     0.781570     0.426281     0.412896    Uiso  ? Al
   Al20       1.0     0.894119     0.538769     0.157423    Uiso  ? Al
   Al21       1.0     0.439849     0.424893     0.901790    Uiso  ? Al
   Al22       1.0     0.556158     0.537179     0.658587    Uiso  ? Al
   Al23       1.0     0.109685     0.763049     0.407588    Uiso  ? Al
   Al24       1.0     0.216694     0.878256     0.157451    Uiso  ? Al
   Al25       1.0     0.778390     0.761124     0.905362    Uiso  ? Al
   Al26       1.0     0.889961     0.872899     0.655995    Uiso  ? Al
   Al27       1.0     0.442337     0.764969     0.412219    Uiso  ? Al
   Al28       1.0     0.555453     0.877837     0.157378    Uiso  ? Al
   Al29       1.0     0.111237     0.760126     0.907205    Uiso  ? Al
   Al30       1.0     0.218466     0.873877     0.655815    Uiso  ? Al
   Al31       1.0     0.778259     0.761240     0.407252    Uiso  ? Al
   Al32       1.0     0.888555     0.872487     0.156593    Uiso  ? Al
   Al33       1.0     0.440774     0.767852     0.900034    Uiso  ? Al
   Al34       1.0     0.556565     0.873148     0.656182    Uiso  ? Al
   Hf1        1.0     0.556050     0.539350     0.149139    Uiso  ? Hf
   Mg1        1.0     0.219767     0.540134     0.654869    Uiso  ? Mg
   N1         1.0     0.223109     0.204092     0.346031    Uiso  ? N
   N2         1.0     0.111157     0.094964     0.096586    Uiso  ? N
   N3         1.0     0.889871     0.203464     0.846216    Uiso  ? N
   N4         1.0     0.777663     0.093857     0.597699    Uiso  ? N
   N5         1.0     0.555809     0.204754     0.347329    Uiso  ? N
   N6         1.0     0.444053     0.094548     0.096576    Uiso  ? N
   N7         1.0     0.222160     0.205496     0.848215    Uiso  ? N
   N8         1.0     0.111672     0.094327     0.597667    Uiso  ? N
   N9         1.0     0.888688     0.206008     0.348432    Uiso  ? N
   N10        1.0     0.777623     0.095289     0.097670    Uiso  ? N
   N11        1.0     0.556658     0.203482     0.847177    Uiso  ? N
   N12        1.0     0.444193     0.094421     0.597653    Uiso  ? N
   N13        1.0     0.222664     0.538667     0.348436    Uiso  ? N
   N14        1.0     0.110921     0.426079     0.098958    Uiso  ? N
   N15        1.0     0.889860     0.539835     0.846980    Uiso  ? N
   N16        1.0     0.777712     0.427997     0.602033    Uiso  ? N
   N17        1.0     0.556157     0.539762     0.355692    Uiso  ? N
   N18        1.0     0.437240     0.417336     0.094717    Uiso  ? N
   N19        1.0     0.220079     0.540091     0.859556    Uiso  ? N
   N20        1.0     0.103725     0.419818     0.592967    Uiso  ? N
   N21        1.0     0.887171     0.539444     0.346871    Uiso  ? N
   N22        1.0     0.796934     0.417693     0.091874    Uiso  ? N
   N23        1.0     0.555794     0.538891     0.856593    Uiso  ? N
   N24        1.0     0.458833     0.420308     0.597963    Uiso  ? N
   N25        1.0     0.223553     0.872543     0.346960    Uiso  ? N
   N26        1.0     0.111115     0.762429     0.099908    Uiso  ? N
   N27        1.0     0.888763     0.872397     0.848516    Uiso  ? N
   N28        1.0     0.777919     0.761219     0.597559    Uiso  ? N
   N29        1.0     0.555292     0.872010     0.348050    Uiso  ? N
   N30        1.0     0.434840     0.780460     0.091733    Uiso  ? N
   N31        1.0     0.220059     0.873400     0.846925    Uiso  ? N
   N32        1.0     0.103175     0.776259     0.593014    Uiso  ? N
   N33        1.0     0.887425     0.872788     0.345936    Uiso  ? N
   N34        1.0     0.777097     0.760628     0.097443    Uiso  ? N
   N35        1.0     0.556592     0.873216     0.846460    Uiso  ? N
   N36        1.0     0.444392     0.761292     0.601866    Uiso  ? N
