
#======================================================================
# CRYSTAL DATA
#----------------------------------------------------------------------
data_VESTA_phase_1

_chemical_name_common                  'Al   Hf   Mg   N                      '
_cell_length_a                         9.617362
_cell_length_b                         9.620938
_cell_length_c                         9.599163
_cell_angle_alpha                      90.016663
_cell_angle_beta                       89.995277
_cell_angle_gamma                      60.019978
_cell_volume                           769.351407
_space_group_name_H-M_alt              'P 1'
_space_group_IT_number                 1

loop_
_space_group_symop_operation_xyz
   'x, y, z'

loop_
   _atom_site_label
   _atom_site_occupancy
   _atom_site_fract_x
   _atom_site_fract_y
   _atom_site_fract_z
   _atom_site_adp_type
   _atom_site_U_iso_or_equiv
   _atom_site_type_symbol
   Al1        1.0     0.112680     0.094607     0.381265    Uiso  ? Al
   Al2        1.0     0.222203     0.205469     0.128830    Uiso  ? Al
   Al3        1.0     0.778025     0.094073     0.880079    Uiso  ? Al
   Al4        1.0     0.890297     0.202531     0.627989    Uiso  ? Al
   Al5        1.0     0.442984     0.095476     0.380979    Uiso  ? Al
   Al6        1.0     0.555499     0.200472     0.131203    Uiso  ? Al
   Al7        1.0     0.110908     0.094460     0.879876    Uiso  ? Al
   Al8        1.0     0.220735     0.205716     0.630986    Uiso  ? Al
   Al9        1.0     0.777830     0.093155     0.380636    Uiso  ? Al
   Al10       1.0     0.894138     0.200518     0.132241    Uiso  ? Al
   Al11       1.0     0.444719     0.094220     0.879654    Uiso  ? Al
   Al12       1.0     0.558424     0.202870     0.629561    Uiso  ? Al
   Al13       1.0     0.110902     0.425583     0.382024    Uiso  ? Al
   Al14       1.0     0.217393     0.538475     0.127582    Uiso  ? Al
   Al15       1.0     0.787639     0.422640     0.871674    Uiso  ? Al
   Al16       1.0     0.890491     0.538996     0.629594    Uiso  ? Al
   Al17       1.0     0.444509     0.425775     0.387307    Uiso  ? Al
   Al18       1.0     0.111753     0.428508     0.878877    Uiso  ? Al
   Al19       1.0     0.780159     0.427201     0.386075    Uiso  ? Al
   Al20       1.0     0.894104     0.538096     0.130690    Uiso  ? Al
   Al21       1.0     0.438585     0.423576     0.870096    Uiso  ? Al
   Al22       1.0     0.556944     0.537653     0.634657    Uiso  ? Al
   Al23       1.0     0.109386     0.763324     0.381318    Uiso  ? Al
   Al24       1.0     0.217114     0.877726     0.130833    Uiso  ? Al
   Al25       1.0     0.777844     0.761397     0.879813    Uiso  ? Al
   Al26       1.0     0.889022     0.873589     0.630978    Uiso  ? Al
   Al27       1.0     0.442909     0.763534     0.385508    Uiso  ? Al
   Al28       1.0     0.555070     0.877417     0.131910    Uiso  ? Al
   Al29       1.0     0.111233     0.760187     0.879092    Uiso  ? Al
   Al30       1.0     0.217747     0.874958     0.629548    Uiso  ? Al
   Al31       1.0     0.778647     0.761137     0.379993    Uiso  ? Al
   Al32       1.0     0.888923     0.872248     0.128681    Uiso  ? Al
   Al33       1.0     0.439651     0.770987     0.871600    Uiso  ? Al
   Al34       1.0     0.557266     0.873513     0.628654    Uiso  ? Al
   Hf1        1.0     0.555618     0.538903     0.111907    Uiso  ? Hf
   Mg1        1.0     0.218590     0.541013     0.624040    Uiso  ? Mg
   N1         1.0     0.223124     0.204329     0.326626    Uiso  ? N
   N2         1.0     0.110678     0.094891     0.078591    Uiso  ? N
   N3         1.0     0.890377     0.202501     0.826535    Uiso  ? N
   N4         1.0     0.777924     0.093286     0.578387    Uiso  ? N
   N5         1.0     0.555374     0.205281     0.329233    Uiso  ? N
   N6         1.0     0.444562     0.094012     0.078444    Uiso  ? N
   N7         1.0     0.222663     0.204678     0.830739    Uiso  ? N
   N8         1.0     0.112034     0.094480     0.578686    Uiso  ? N
   N9         1.0     0.888732     0.206222     0.330987    Uiso  ? N
   N10        1.0     0.777491     0.095841     0.079549    Uiso  ? N
   N11        1.0     0.557513     0.201786     0.828180    Uiso  ? N
   N12        1.0     0.443755     0.094810     0.578923    Uiso  ? N
   N13        1.0     0.222820     0.538496     0.330320    Uiso  ? N
   N14        1.0     0.110556     0.426243     0.079056    Uiso  ? N
   N15        1.0     0.889515     0.540807     0.828208    Uiso  ? N
   N16        1.0     0.777228     0.428405     0.584698    Uiso  ? N
   N17        1.0     0.556031     0.539679     0.331742    Uiso  ? N
   N18        1.0     0.436493     0.416194     0.073500    Uiso  ? N
   N19        1.0     0.219206     0.540639     0.838896    Uiso  ? N
   N20        1.0     0.103627     0.418958     0.576207    Uiso  ? N
   N21        1.0     0.887417     0.539137     0.328498    Uiso  ? N
   N22        1.0     0.798529     0.416463     0.072516    Uiso  ? N
   N23        1.0     0.556170     0.539475     0.842229    Uiso  ? N
   N24        1.0     0.459733     0.420415     0.583081    Uiso  ? N
   N25        1.0     0.223796     0.872414     0.328652    Uiso  ? N
   N26        1.0     0.111397     0.762443     0.079989    Uiso  ? N
   N27        1.0     0.887976     0.872765     0.831153    Uiso  ? N
   N28        1.0     0.778487     0.761430     0.578408    Uiso  ? N
   N29        1.0     0.555070     0.872053     0.330585    Uiso  ? N
   N30        1.0     0.434089     0.782141     0.072381    Uiso  ? N
   N31        1.0     0.219591     0.874238     0.828061    Uiso  ? N
   N32        1.0     0.102062     0.777532     0.575735    Uiso  ? N
   N33        1.0     0.887577     0.872644     0.326068    Uiso  ? N
   N34        1.0     0.776602     0.760455     0.079246    Uiso  ? N
   N35        1.0     0.557118     0.873715     0.826778    Uiso  ? N
   N36        1.0     0.444725     0.760608     0.584630    Uiso  ? N
