
#======================================================================
# CRYSTAL DATA
#----------------------------------------------------------------------
data_VESTA_phase_1

_chemical_name_common                  'Al   Hf   Mg   N                      '
_cell_length_a                         9.715334
_cell_length_b                         9.719831
_cell_length_c                         9.302789
_cell_angle_alpha                      89.984642
_cell_angle_beta                       90.005943
_cell_angle_gamma                      60.023823
_cell_volume                           760.964558
_space_group_name_H-M_alt              'P 1'
_space_group_IT_number                 1

loop_
_space_group_symop_operation_xyz
   'x, y, z'

loop_
   _atom_site_label
   _atom_site_occupancy
   _atom_site_fract_x
   _atom_site_fract_y
   _atom_site_fract_z
   _atom_site_adp_type
   _atom_site_U_iso_or_equiv
   _atom_site_type_symbol
   Al1        1.0     0.110790     0.094476     0.331524    Uiso  ? Al
   Al2        1.0     0.222040     0.205820     0.083620    Uiso  ? Al
   Al3        1.0     0.777850     0.092976     0.831972    Uiso  ? Al
   Al4        1.0     0.890709     0.201743     0.584273    Uiso  ? Al
   Al5        1.0     0.444943     0.093931     0.331891    Uiso  ? Al
   Al6        1.0     0.555285     0.201152     0.081056    Uiso  ? Al
   Al7        1.0     0.112899     0.094659     0.831197    Uiso  ? Al
   Al8        1.0     0.220994     0.205121     0.580301    Uiso  ? Al
   Al9        1.0     0.777999     0.094197     0.331293    Uiso  ? Al
   Al10       1.0     0.893695     0.201060     0.079460    Uiso  ? Al
   Al11       1.0     0.442705     0.095702     0.831252    Uiso  ? Al
   Al12       1.0     0.559085     0.201603     0.582160    Uiso  ? Al
   Al13       1.0     0.111558     0.428278     0.334439    Uiso  ? Al
   Al14       1.0     0.217777     0.538412     0.087849    Uiso  ? Al
   Al15       1.0     0.780656     0.427032     0.824999    Uiso  ? Al
   Al16       1.0     0.890276     0.539656     0.581959    Uiso  ? Al
   Al17       1.0     0.439261     0.423531     0.346226    Uiso  ? Al
   Al18       1.0     0.111221     0.425595     0.829339    Uiso  ? Al
   Al19       1.0     0.787440     0.422643     0.342423    Uiso  ? Al
   Al20       1.0     0.893995     0.537710     0.081704    Uiso  ? Al
   Al21       1.0     0.443802     0.425755     0.823234    Uiso  ? Al
   Al22       1.0     0.557240     0.537961     0.578783    Uiso  ? Al
   Al23       1.0     0.111083     0.760642     0.333997    Uiso  ? Al
   Al24       1.0     0.217468     0.877176     0.081458    Uiso  ? Al
   Al25       1.0     0.778853     0.761059     0.832656    Uiso  ? Al
   Al26       1.0     0.888423     0.873873     0.580233    Uiso  ? Al
   Al27       1.0     0.439876     0.770959     0.342406    Uiso  ? Al
   Al28       1.0     0.554888     0.876997     0.079820    Uiso  ? Al
   Al29       1.0     0.109474     0.762976     0.830309    Uiso  ? Al
   Al30       1.0     0.217238     0.875700     0.582047    Uiso  ? Al
   Al31       1.0     0.777506     0.761512     0.331437    Uiso  ? Al
   Al32       1.0     0.889267     0.872105     0.083982    Uiso  ? Al
   Al33       1.0     0.442578     0.763996     0.825480    Uiso  ? Al
   Al34       1.0     0.557660     0.873843     0.583637    Uiso  ? Al
   Hf1        1.0     0.555457     0.538745     0.100984    Uiso  ? Hf
   Mg1        1.0     0.217881     0.541446     0.588905    Uiso  ? Mg
   N1         1.0     0.222977     0.204119     0.373877    Uiso  ? N
   N2         1.0     0.110507     0.094891     0.125996    Uiso  ? N
   N3         1.0     0.888701     0.206370     0.873550    Uiso  ? N
   N4         1.0     0.778064     0.093011     0.627187    Uiso  ? N
   N5         1.0     0.557862     0.201085     0.376801    Uiso  ? N
   N6         1.0     0.444726     0.093832     0.126265    Uiso  ? N
   N7         1.0     0.223048     0.204602     0.878786    Uiso  ? N
   N8         1.0     0.112101     0.094590     0.626850    Uiso  ? N
   N9         1.0     0.890521     0.202171     0.378951    Uiso  ? N
   N10        1.0     0.777512     0.095982     0.125099    Uiso  ? N
   N11        1.0     0.555152     0.205555     0.875580    Uiso  ? N
   N12        1.0     0.443567     0.094931     0.626393    Uiso  ? N
   N13        1.0     0.219238     0.540681     0.365043    Uiso  ? N
   N14        1.0     0.110320     0.426132     0.126809    Uiso  ? N
   N15        1.0     0.887678     0.538874     0.876482    Uiso  ? N
   N16        1.0     0.777824     0.428067     0.619238    Uiso  ? N
   N17        1.0     0.556334     0.539855     0.364691    Uiso  ? N
   N18        1.0     0.437311     0.416425     0.132319    Uiso  ? N
   N19        1.0     0.222811     0.538449     0.875125    Uiso  ? N
   N20        1.0     0.103874     0.418897     0.627338    Uiso  ? N
   N21        1.0     0.889095     0.541311     0.376721    Uiso  ? N
   N22        1.0     0.797626     0.416731     0.132871    Uiso  ? N
   N23        1.0     0.555967     0.539671     0.871434    Uiso  ? N
   N24        1.0     0.459104     0.420229     0.618945    Uiso  ? N
   N25        1.0     0.219587     0.874619     0.376950    Uiso  ? N
   N26        1.0     0.111301     0.762790     0.125794    Uiso  ? N
   N27        1.0     0.887804     0.872510     0.879598    Uiso  ? N
   N28        1.0     0.778691     0.761511     0.627182    Uiso  ? N
   N29        1.0     0.557326     0.873839     0.378695    Uiso  ? N
   N30        1.0     0.434510     0.781313     0.132963    Uiso  ? N
   N31        1.0     0.223838     0.872283     0.876278    Uiso  ? N
   N32        1.0     0.101892     0.777468     0.628043    Uiso  ? N
   N33        1.0     0.887469     0.872947     0.373196    Uiso  ? N
   N34        1.0     0.776442     0.760429     0.125326    Uiso  ? N
   N35        1.0     0.554918     0.872078     0.873972    Uiso  ? N
   N36        1.0     0.444408     0.761182     0.619278    Uiso  ? N
