
#======================================================================
# CRYSTAL DATA
#----------------------------------------------------------------------
data_VESTA_phase_1

_chemical_name_common                  'Al   Hf   Mg   N                      '
_cell_length_a                         9.453908
_cell_length_b                         9.456443
_cell_length_c                         10.057026
_cell_angle_alpha                      90.019463
_cell_angle_beta                       90.000702
_cell_angle_gamma                      60.013180
_cell_volume                           778.748105
_space_group_name_H-M_alt              'P 1'
_space_group_IT_number                 1

loop_
_space_group_symop_operation_xyz
   'x, y, z'

loop_
   _atom_site_label
   _atom_site_occupancy
   _atom_site_fract_x
   _atom_site_fract_y
   _atom_site_fract_z
   _atom_site_adp_type
   _atom_site_U_iso_or_equiv
   _atom_site_type_symbol
   Al1        1.0     0.112072     0.094525     0.411391    Uiso  ? Al
   Al2        1.0     0.222393     0.205080     0.159549    Uiso  ? Al
   Al3        1.0     0.777973     0.093888     0.908842    Uiso  ? Al
   Al4        1.0     0.889827     0.203530     0.658709    Uiso  ? Al
   Al5        1.0     0.443579     0.094999     0.410821    Uiso  ? Al
   Al6        1.0     0.556103     0.199549     0.160954    Uiso  ? Al
   Al7        1.0     0.111246     0.094463     0.908633    Uiso  ? Al
   Al8        1.0     0.220417     0.206630     0.659157    Uiso  ? Al
   Al9        1.0     0.777823     0.093543     0.411214    Uiso  ? Al
   Al10       1.0     0.894499     0.199918     0.160864    Uiso  ? Al
   Al11       1.0     0.444137     0.094819     0.908591    Uiso  ? Al
   Al12       1.0     0.557153     0.204664     0.659196    Uiso  ? Al
   Al13       1.0     0.110704     0.426118     0.410950    Uiso  ? Al
   Al14       1.0     0.216883     0.538857     0.159834    Uiso  ? Al
   Al15       1.0     0.784693     0.424310     0.903345    Uiso  ? Al
   Al16       1.0     0.890938     0.538062     0.659020    Uiso  ? Al
   Al17       1.0     0.443838     0.425072     0.416068    Uiso  ? Al
   Al18       1.0     0.111831     0.428284     0.910340    Uiso  ? Al
   Al19       1.0     0.781570     0.426281     0.416119    Uiso  ? Al
   Al20       1.0     0.894119     0.538768     0.160637    Uiso  ? Al
   Al21       1.0     0.439850     0.424891     0.905017    Uiso  ? Al
   Al22       1.0     0.556158     0.537177     0.661816    Uiso  ? Al
   Al23       1.0     0.109685     0.763047     0.410800    Uiso  ? Al
   Al24       1.0     0.216694     0.878255     0.160666    Uiso  ? Al
   Al25       1.0     0.778390     0.761123     0.908576    Uiso  ? Al
   Al26       1.0     0.889961     0.872898     0.659207    Uiso  ? Al
   Al27       1.0     0.442336     0.764968     0.415443    Uiso  ? Al
   Al28       1.0     0.555453     0.877837     0.160592    Uiso  ? Al
   Al29       1.0     0.111237     0.760126     0.910420    Uiso  ? Al
   Al30       1.0     0.218466     0.873876     0.659030    Uiso  ? Al
   Al31       1.0     0.778259     0.761239     0.410464    Uiso  ? Al
   Al32       1.0     0.888555     0.872487     0.159805    Uiso  ? Al
   Al33       1.0     0.440774     0.767851     0.903254    Uiso  ? Al
   Al34       1.0     0.556565     0.873148     0.659396    Uiso  ? Al
   Hf1        1.0     0.556051     0.539350     0.152365    Uiso  ? Hf
   Mg1        1.0     0.219766     0.540134     0.658091    Uiso  ? Mg
   N1         1.0     0.223108     0.204091     0.349245    Uiso  ? N
   N2         1.0     0.111157     0.094963     0.099800    Uiso  ? N
   N3         1.0     0.889871     0.203464     0.849433    Uiso  ? N
   N4         1.0     0.777662     0.093856     0.600915    Uiso  ? N
   N5         1.0     0.555808     0.204755     0.350547    Uiso  ? N
   N6         1.0     0.444053     0.094547     0.099791    Uiso  ? N
   N7         1.0     0.222161     0.205495     0.851429    Uiso  ? N
   N8         1.0     0.111672     0.094326     0.600882    Uiso  ? N
   N9         1.0     0.888687     0.206008     0.351649    Uiso  ? N
   N10        1.0     0.777623     0.095289     0.100885    Uiso  ? N
   N11        1.0     0.556658     0.203482     0.850394    Uiso  ? N
   N12        1.0     0.444193     0.094421     0.600868    Uiso  ? N
   N13        1.0     0.222665     0.538666     0.351652    Uiso  ? N
   N14        1.0     0.110921     0.426078     0.102173    Uiso  ? N
   N15        1.0     0.889860     0.539833     0.850196    Uiso  ? N
   N16        1.0     0.777711     0.427997     0.605255    Uiso  ? N
   N17        1.0     0.556157     0.539761     0.358918    Uiso  ? N
   N18        1.0     0.437242     0.417336     0.097940    Uiso  ? N
   N19        1.0     0.220081     0.540089     0.862777    Uiso  ? N
   N20        1.0     0.103725     0.419818     0.596181    Uiso  ? N
   N21        1.0     0.887170     0.539442     0.350087    Uiso  ? N
   N22        1.0     0.796933     0.417693     0.095094    Uiso  ? N
   N23        1.0     0.555794     0.538889     0.859818    Uiso  ? N
   N24        1.0     0.458832     0.420309     0.601188    Uiso  ? N
   N25        1.0     0.223554     0.872541     0.350176    Uiso  ? N
   N26        1.0     0.111116     0.762429     0.103124    Uiso  ? N
   N27        1.0     0.888763     0.872396     0.851729    Uiso  ? N
   N28        1.0     0.777918     0.761218     0.600772    Uiso  ? N
   N29        1.0     0.555291     0.872009     0.351266    Uiso  ? N
   N30        1.0     0.434840     0.780458     0.094952    Uiso  ? N
   N31        1.0     0.220059     0.873398     0.850141    Uiso  ? N
   N32        1.0     0.103176     0.776257     0.596228    Uiso  ? N
   N33        1.0     0.887424     0.872788     0.349149    Uiso  ? N
   N34        1.0     0.777097     0.760627     0.100657    Uiso  ? N
   N35        1.0     0.556592     0.873215     0.849675    Uiso  ? N
   N36        1.0     0.444393     0.761290     0.605089    Uiso  ? N
