
#======================================================================
# CRYSTAL DATA
#----------------------------------------------------------------------
data_VESTA_phase_1

_chemical_name_common                  'Al   Hf   Mg   N                      '
_cell_length_a                         9.715463
_cell_length_b                         9.719959
_cell_length_c                         9.302396
_cell_angle_alpha                      90.015381
_cell_angle_beta                       89.994057
_cell_angle_gamma                      60.023987
_cell_volume                           760.953762
_space_group_name_H-M_alt              'P 1'
_space_group_IT_number                 1

loop_
_space_group_symop_operation_xyz
   'x, y, z'

loop_
   _atom_site_label
   _atom_site_occupancy
   _atom_site_fract_x
   _atom_site_fract_y
   _atom_site_fract_z
   _atom_site_adp_type
   _atom_site_U_iso_or_equiv
   _atom_site_type_symbol
   Al1        1.0     0.112899     0.094659     0.377398    Uiso  ? Al
   Al2        1.0     0.222039     0.205821     0.124977    Uiso  ? Al
   Al3        1.0     0.778000     0.094195     0.877302    Uiso  ? Al
   Al4        1.0     0.890709     0.201742     0.624325    Uiso  ? Al
   Al5        1.0     0.442706     0.095702     0.377341    Uiso  ? Al
   Al6        1.0     0.555286     0.201152     0.127536    Uiso  ? Al
   Al7        1.0     0.110791     0.094477     0.877069    Uiso  ? Al
   Al8        1.0     0.220995     0.205121     0.628294    Uiso  ? Al
   Al9        1.0     0.777849     0.092977     0.376621    Uiso  ? Al
   Al10       1.0     0.893695     0.201060     0.129137    Uiso  ? Al
   Al11       1.0     0.444943     0.093931     0.876703    Uiso  ? Al
   Al12       1.0     0.559086     0.201602     0.626434    Uiso  ? Al
   Al13       1.0     0.111222     0.425596     0.379259    Uiso  ? Al
   Al14       1.0     0.217776     0.538413     0.120744    Uiso  ? Al
   Al15       1.0     0.787438     0.422644     0.866171    Uiso  ? Al
   Al16       1.0     0.890276     0.539655     0.626635    Uiso  ? Al
   Al17       1.0     0.443801     0.425754     0.385361    Uiso  ? Al
   Al18       1.0     0.111558     0.428277     0.874157    Uiso  ? Al
   Al19       1.0     0.780658     0.427031     0.383597    Uiso  ? Al
   Al20       1.0     0.893995     0.537710     0.126889    Uiso  ? Al
   Al21       1.0     0.439262     0.423531     0.862370    Uiso  ? Al
   Al22       1.0     0.557240     0.537960     0.629811    Uiso  ? Al
   Al23       1.0     0.109475     0.762975     0.378286    Uiso  ? Al
   Al24       1.0     0.217468     0.877177     0.127134    Uiso  ? Al
   Al25       1.0     0.777506     0.761512     0.877156    Uiso  ? Al
   Al26       1.0     0.888424     0.873873     0.628362    Uiso  ? Al
   Al27       1.0     0.442577     0.763998     0.383117    Uiso  ? Al
   Al28       1.0     0.554889     0.876996     0.128776    Uiso  ? Al
   Al29       1.0     0.111081     0.760643     0.874599    Uiso  ? Al
   Al30       1.0     0.217237     0.875701     0.626546    Uiso  ? Al
   Al31       1.0     0.778852     0.761058     0.375939    Uiso  ? Al
   Al32       1.0     0.889267     0.872104     0.124617    Uiso  ? Al
   Al33       1.0     0.439876     0.770958     0.866186    Uiso  ? Al
   Al34       1.0     0.557660     0.873844     0.624959    Uiso  ? Al
   Hf1        1.0     0.555456     0.538746     0.107616    Uiso  ? Hf
   Mg1        1.0     0.217881     0.541447     0.619694    Uiso  ? Mg
   N1         1.0     0.223048     0.204603     0.329818    Uiso  ? N
   N2         1.0     0.110507     0.094892     0.082605    Uiso  ? N
   N3         1.0     0.890520     0.202172     0.829652    Uiso  ? N
   N4         1.0     0.778064     0.093011     0.581413    Uiso  ? N
   N5         1.0     0.555153     0.205556     0.333021    Uiso  ? N
   N6         1.0     0.444725     0.093832     0.082337    Uiso  ? N
   N7         1.0     0.222977     0.204119     0.834724    Uiso  ? N
   N8         1.0     0.112100     0.094591     0.581752    Uiso  ? N
   N9         1.0     0.888701     0.206370     0.335053    Uiso  ? N
   N10        1.0     0.777513     0.095980     0.083504    Uiso  ? N
   N11        1.0     0.557863     0.201085     0.831802    Uiso  ? N
   N12        1.0     0.443568     0.094930     0.582207    Uiso  ? N
   N13        1.0     0.222811     0.538449     0.333477    Uiso  ? N
   N14        1.0     0.110320     0.426131     0.081793    Uiso  ? N
   N15        1.0     0.889095     0.541310     0.831881    Uiso  ? N
   N16        1.0     0.777824     0.428066     0.589365    Uiso  ? N
   N17        1.0     0.555967     0.539671     0.337175    Uiso  ? N
   N18        1.0     0.437313     0.416425     0.076286    Uiso  ? N
   N19        1.0     0.219239     0.540681     0.843567    Uiso  ? N
   N20        1.0     0.103874     0.418898     0.581267    Uiso  ? N
   N21        1.0     0.887679     0.538874     0.332120    Uiso  ? N
   N22        1.0     0.797624     0.416731     0.075732    Uiso  ? N
   N23        1.0     0.556334     0.539855     0.843910    Uiso  ? N
   N24        1.0     0.459102     0.420230     0.589660    Uiso  ? N
   N25        1.0     0.223838     0.872284     0.332324    Uiso  ? N
   N26        1.0     0.111299     0.762792     0.082809    Uiso  ? N
   N27        1.0     0.887469     0.872947     0.835405    Uiso  ? N
   N28        1.0     0.778690     0.761511     0.581420    Uiso  ? N
   N29        1.0     0.554919     0.872077     0.334630    Uiso  ? N
   N30        1.0     0.434511     0.781311     0.075640    Uiso  ? N
   N31        1.0     0.219587     0.874619     0.831652    Uiso  ? N
   N32        1.0     0.101893     0.777467     0.580559    Uiso  ? N
   N33        1.0     0.887803     0.872509     0.329007    Uiso  ? N
   N34        1.0     0.776443     0.760429     0.083275    Uiso  ? N
   N35        1.0     0.557325     0.873839     0.829907    Uiso  ? N
   N36        1.0     0.444407     0.761183     0.589325    Uiso  ? N
