
#======================================================================
# CRYSTAL DATA
#----------------------------------------------------------------------
data_VESTA_phase_1

_chemical_name_common                  'Al   Hf   Mg   N                      '
_cell_length_a                         9.964424
_cell_length_b                         9.969645
_cell_length_c                         8.520955
_cell_angle_alpha                      89.994598
_cell_angle_beta                       90.002045
_cell_angle_gamma                      60.025684
_cell_volume                           733.268664
_space_group_name_H-M_alt              'P 1'
_space_group_IT_number                 1

loop_
_space_group_symop_operation_xyz
   'x, y, z'

loop_
   _atom_site_label
   _atom_site_occupancy
   _atom_site_fract_x
   _atom_site_fract_y
   _atom_site_fract_z
   _atom_site_adp_type
   _atom_site_U_iso_or_equiv
   _atom_site_type_symbol
   Al1        1.0     0.111525     0.094649     0.349476    Uiso  ? Al
   Al2        1.0     0.221736     0.206403     0.100334    Uiso  ? Al
   Al3        1.0     0.777813     0.093393     0.849794    Uiso  ? Al
   Al4        1.0     0.890700     0.201825     0.600261    Uiso  ? Al
   Al5        1.0     0.444143     0.094407     0.349749    Uiso  ? Al
   Al6        1.0     0.555548     0.201486     0.099922    Uiso  ? Al
   Al7        1.0     0.112327     0.094709     0.848829    Uiso  ? Al
   Al8        1.0     0.221426     0.204627     0.598464    Uiso  ? Al
   Al9        1.0     0.777849     0.093950     0.349087    Uiso  ? Al
   Al10       1.0     0.893139     0.201126     0.098571    Uiso  ? Al
   Al11       1.0     0.443237     0.095238     0.848846    Uiso  ? Al
   Al12       1.0     0.558943     0.201536     0.599658    Uiso  ? Al
   Al13       1.0     0.111714     0.427287     0.355033    Uiso  ? Al
   Al14       1.0     0.217701     0.538850     0.104043    Uiso  ? Al
   Al15       1.0     0.783928     0.425079     0.840951    Uiso  ? Al
   Al16       1.0     0.889723     0.539827     0.599250    Uiso  ? Al
   Al17       1.0     0.440766     0.424460     0.365074    Uiso  ? Al
   Al18       1.0     0.111829     0.426698     0.845514    Uiso  ? Al
   Al19       1.0     0.784778     0.424231     0.360289    Uiso  ? Al
   Al20       1.0     0.893909     0.537978     0.100300    Uiso  ? Al
   Al21       1.0     0.441008     0.424681     0.838708    Uiso  ? Al
   Al22       1.0     0.557253     0.537910     0.601581    Uiso  ? Al
   Al23       1.0     0.110785     0.761159     0.354386    Uiso  ? Al
   Al24       1.0     0.217292     0.876344     0.100054    Uiso  ? Al
   Al25       1.0     0.778462     0.761082     0.850192    Uiso  ? Al
   Al26       1.0     0.887824     0.874008     0.598590    Uiso  ? Al
   Al27       1.0     0.441026     0.768427     0.360226    Uiso  ? Al
   Al28       1.0     0.555415     0.876380     0.098758    Uiso  ? Al
   Al29       1.0     0.110429     0.761382     0.846611    Uiso  ? Al
   Al30       1.0     0.217688     0.875945     0.599279    Uiso  ? Al
   Al31       1.0     0.777675     0.761404     0.348922    Uiso  ? Al
   Al32       1.0     0.889832     0.871822     0.100642    Uiso  ? Al
   Al33       1.0     0.441159     0.767358     0.841021    Uiso  ? Al
   Al34       1.0     0.557509     0.873924     0.600107    Uiso  ? Al
   Hf1        1.0     0.555121     0.538560     0.104793    Uiso  ? Hf
   Mg1        1.0     0.218403     0.541208     0.602467    Uiso  ? Mg
   N1         1.0     0.223263     0.203930     0.357116    Uiso  ? N
   N2         1.0     0.110751     0.094939     0.108542    Uiso  ? N
   N3         1.0     0.889252     0.205137     0.856787    Uiso  ? N
   N4         1.0     0.778116     0.093362     0.609285    Uiso  ? N
   N5         1.0     0.556674     0.202858     0.358470    Uiso  ? N
   N6         1.0     0.444370     0.093999     0.108704    Uiso  ? N
   N7         1.0     0.222999     0.204671     0.860486    Uiso  ? N
   N8         1.0     0.111506     0.094849     0.609303    Uiso  ? N
   N9         1.0     0.889847     0.203735     0.360769    Uiso  ? N
   N10        1.0     0.777691     0.095512     0.108167    Uiso  ? N
   N11        1.0     0.555856     0.204126     0.858431    Uiso  ? N
   N12        1.0     0.443909     0.094750     0.608904    Uiso  ? N
   N13        1.0     0.221166     0.539530     0.349051    Uiso  ? N
   N14        1.0     0.110481     0.426065     0.109454    Uiso  ? N
   N15        1.0     0.888411     0.539443     0.858660    Uiso  ? N
   N16        1.0     0.779496     0.426822     0.605776    Uiso  ? N
   N17        1.0     0.556174     0.540153     0.362318    Uiso  ? N
   N18        1.0     0.438742     0.418488     0.109522    Uiso  ? N
   N19        1.0     0.221631     0.539081     0.863363    Uiso  ? N
   N20        1.0     0.104825     0.420095     0.607447    Uiso  ? N
   N21        1.0     0.888244     0.540627     0.358685    Uiso  ? N
   N22        1.0     0.793793     0.418819     0.110831    Uiso  ? N
   N23        1.0     0.556139     0.540088     0.849171    Uiso  ? N
   N24        1.0     0.457167     0.419986     0.605241    Uiso  ? N
   N25        1.0     0.221355     0.873951     0.358943    Uiso  ? N
   N26        1.0     0.110915     0.762858     0.108902    Uiso  ? N
   N27        1.0     0.887837     0.872507     0.861555    Uiso  ? N
   N28        1.0     0.778419     0.761496     0.609379    Uiso  ? N
   N29        1.0     0.556436     0.873216     0.360570    Uiso  ? N
   N30        1.0     0.436268     0.777500     0.110859    Uiso  ? N
   N31        1.0     0.222468     0.872980     0.858490    Uiso  ? N
   N32        1.0     0.103024     0.775464     0.607782    Uiso  ? N
   N33        1.0     0.887203     0.872858     0.355901    Uiso  ? N
   N34        1.0     0.776776     0.760572     0.108138    Uiso  ? N
   N35        1.0     0.555559     0.872707     0.856991    Uiso  ? N
   N36        1.0     0.443606     0.762944     0.605763    Uiso  ? N
