
#======================================================================
# CRYSTAL DATA
#----------------------------------------------------------------------
data_VESTA_phase_1

_chemical_name_common                  'Al   Hf   Mg   N                      '
_cell_length_a                         9.848602
_cell_length_b                         9.853874
_cell_length_c                         8.882732
_cell_angle_alpha                      90.011909
_cell_angle_beta                       89.994545
_cell_angle_gamma                      60.026463
_cell_volume                           746.748825
_space_group_name_H-M_alt              'P 1'
_space_group_IT_number                 1

loop_
_space_group_symop_operation_xyz
   'x, y, z'

loop_
   _atom_site_label
   _atom_site_occupancy
   _atom_site_fract_x
   _atom_site_fract_y
   _atom_site_fract_z
   _atom_site_adp_type
   _atom_site_U_iso_or_equiv
   _atom_site_type_symbol
   Al1        1.0     0.112902     0.094727     0.370022    Uiso  ? Al
   Al2        1.0     0.221799     0.206333     0.117772    Uiso  ? Al
   Al3        1.0     0.777898     0.094327     0.870788    Uiso  ? Al
   Al4        1.0     0.891024     0.201207     0.617486    Uiso  ? Al
   Al5        1.0     0.442615     0.095781     0.370202    Uiso  ? Al
   Al6        1.0     0.555275     0.201626     0.119855    Uiso  ? Al
   Al7        1.0     0.110885     0.094526     0.870577    Uiso  ? Al
   Al8        1.0     0.221361     0.204478     0.621841    Uiso  ? Al
   Al9        1.0     0.777872     0.092912     0.369106    Uiso  ? Al
   Al10       1.0     0.893219     0.201437     0.122067    Uiso  ? Al
   Al11       1.0     0.444898     0.093826     0.870018    Uiso  ? Al
   Al12       1.0     0.559397     0.200799     0.619631    Uiso  ? Al
   Al13       1.0     0.111660     0.425941     0.373204    Uiso  ? Al
   Al14       1.0     0.217904     0.538572     0.110065    Uiso  ? Al
   Al15       1.0     0.786009     0.423340     0.856814    Uiso  ? Al
   Al16       1.0     0.889884     0.540239     0.620156    Uiso  ? Al
   Al17       1.0     0.442303     0.425285     0.379343    Uiso  ? Al
   Al18       1.0     0.111431     0.427814     0.864797    Uiso  ? Al
   Al19       1.0     0.782260     0.426200     0.377777    Uiso  ? Al
   Al20       1.0     0.893978     0.537501     0.119157    Uiso  ? Al
   Al21       1.0     0.440464     0.424022     0.850834    Uiso  ? Al
   Al22       1.0     0.557349     0.538129     0.618019    Uiso  ? Al
   Al23       1.0     0.109785     0.762218     0.371956    Uiso  ? Al
   Al24       1.0     0.217617     0.876483     0.119523    Uiso  ? Al
   Al25       1.0     0.777235     0.761548     0.870926    Uiso  ? Al
   Al26       1.0     0.887746     0.874111     0.621967    Uiso  ? Al
   Al27       1.0     0.441768     0.765579     0.377465    Uiso  ? Al
   Al28       1.0     0.554931     0.876533     0.121711    Uiso  ? Al
   Al29       1.0     0.110962     0.761118     0.865516    Uiso  ? Al
   Al30       1.0     0.217076     0.876318     0.620050    Uiso  ? Al
   Al31       1.0     0.778959     0.761016     0.368347    Uiso  ? Al
   Al32       1.0     0.889780     0.871880     0.117214    Uiso  ? Al
   Al33       1.0     0.440628     0.769699     0.856929    Uiso  ? Al
   Al34       1.0     0.557884     0.874108     0.617990    Uiso  ? Al
   Hf1        1.0     0.555252     0.538604     0.104259    Uiso  ? Hf
   Mg1        1.0     0.217742     0.541551     0.612635    Uiso  ? Mg
   N1         1.0     0.222928     0.204915     0.336764    Uiso  ? N
   N2         1.0     0.110470     0.094905     0.090082    Uiso  ? N
   N3         1.0     0.890417     0.202418     0.836523    Uiso  ? N
   N4         1.0     0.778160     0.092937     0.588106    Uiso  ? N
   N5         1.0     0.555238     0.205269     0.340223    Uiso  ? N
   N6         1.0     0.444719     0.093748     0.089666    Uiso  ? N
   N7         1.0     0.223299     0.203591     0.841959    Uiso  ? N
   N8         1.0     0.111968     0.094761     0.588292    Uiso  ? N
   N9         1.0     0.888805     0.206156     0.342401    Uiso  ? N
   N10        1.0     0.777598     0.095933     0.090820    Uiso  ? N
   N11        1.0     0.557644     0.201332     0.839303    Uiso  ? N
   N12        1.0     0.443513     0.094984     0.589011    Uiso  ? N
   N13        1.0     0.222343     0.538650     0.339489    Uiso  ? N
   N14        1.0     0.110255     0.426064     0.088079    Uiso  ? N
   N15        1.0     0.888438     0.541514     0.839262    Uiso  ? N
   N16        1.0     0.778872     0.427386     0.596740    Uiso  ? N
   N17        1.0     0.556010     0.539808     0.349093    Uiso  ? N
   N18        1.0     0.438319     0.417426     0.085372    Uiso  ? N
   N19        1.0     0.220122     0.540213     0.852282    Uiso  ? N
   N20        1.0     0.104408     0.419287     0.590696    Uiso  ? N
   N21        1.0     0.888163     0.538771     0.339355    Uiso  ? N
   N22        1.0     0.795649     0.417652     0.083853    Uiso  ? N
   N23        1.0     0.556326     0.540142     0.845087    Uiso  ? N
   N24        1.0     0.457917     0.420008     0.598450    Uiso  ? N
   N25        1.0     0.223444     0.872330     0.339581    Uiso  ? N
   N26        1.0     0.111155     0.762970     0.089133    Uiso  ? N
   N27        1.0     0.886963     0.873072     0.843072    Uiso  ? N
   N28        1.0     0.778747     0.761573     0.587964    Uiso  ? N
   N29        1.0     0.554962     0.872273     0.342013    Uiso  ? N
   N30        1.0     0.435439     0.779399     0.083809    Uiso  ? N
   N31        1.0     0.220162     0.874709     0.838937    Uiso  ? N
   N32        1.0     0.102203     0.776651     0.589858    Uiso  ? N
   N33        1.0     0.888076     0.872389     0.335656    Uiso  ? N
   N34        1.0     0.776417     0.760478     0.090819    Uiso  ? N
   N35        1.0     0.557221     0.873706     0.836777    Uiso  ? N
   N36        1.0     0.443856     0.762263     0.596718    Uiso  ? N
