
#======================================================================
# CRYSTAL DATA
#----------------------------------------------------------------------
data_VESTA_phase_1

_chemical_name_common                  'Al   Hf   Mg   N                      '
_cell_length_a                         9.999400
_cell_length_b                         10.004464
_cell_length_c                         8.427630
_cell_angle_alpha                      89.999985
_cell_angle_beta                       90.000000
_cell_angle_gamma                      60.024326
_cell_volume                           730.315132
_space_group_name_H-M_alt              'P 1'
_space_group_IT_number                 1

loop_
_space_group_symop_operation_xyz
   'x, y, z'

loop_
   _atom_site_label
   _atom_site_occupancy
   _atom_site_fract_x
   _atom_site_fract_y
   _atom_site_fract_z
   _atom_site_adp_type
   _atom_site_U_iso_or_equiv
   _atom_site_type_symbol
   Al1        1.0     0.111937     0.094697     0.354859    Uiso  ? Al
   Al2        1.0     0.221779     0.206275     0.104291    Uiso  ? Al
   Al3        1.0     0.777827     0.093657     0.854418    Uiso  ? Al
   Al4        1.0     0.890549     0.202099     0.604288    Uiso  ? Al
   Al5        1.0     0.443677     0.094813     0.354901    Uiso  ? Al
   Al6        1.0     0.555680     0.201308     0.104289    Uiso  ? Al
   Al7        1.0     0.111939     0.094697     0.853717    Uiso  ? Al
   Al8        1.0     0.221333     0.204834     0.604289    Uiso  ? Al
   Al9        1.0     0.777828     0.093657     0.354158    Uiso  ? Al
   Al10       1.0     0.893175     0.200959     0.104287    Uiso  ? Al
   Al11       1.0     0.443675     0.094814     0.853674    Uiso  ? Al
   Al12       1.0     0.558824     0.201814     0.604288    Uiso  ? Al
   Al13       1.0     0.111814     0.427003     0.358722    Uiso  ? Al
   Al14       1.0     0.217622     0.538915     0.104299    Uiso  ? Al
   Al15       1.0     0.784614     0.424540     0.845443    Uiso  ? Al
   Al16       1.0     0.889807     0.539539     0.604289    Uiso  ? Al
   Al17       1.0     0.440673     0.424412     0.366586    Uiso  ? Al
   Al18       1.0     0.111814     0.427002     0.849871    Uiso  ? Al
   Al19       1.0     0.784617     0.424538     0.363137    Uiso  ? Al
   Al20       1.0     0.893825     0.538223     0.104292    Uiso  ? Al
   Al21       1.0     0.440675     0.424412     0.842000    Uiso  ? Al
   Al22       1.0     0.557250     0.537805     0.604290    Uiso  ? Al
   Al23       1.0     0.110632     0.761222     0.357936    Uiso  ? Al
   Al24       1.0     0.217155     0.876467     0.104291    Uiso  ? Al
   Al25       1.0     0.778071     0.761238     0.854525    Uiso  ? Al
   Al26       1.0     0.888028     0.873933     0.604289    Uiso  ? Al
   Al27       1.0     0.440958     0.768172     0.363145    Uiso  ? Al
   Al28       1.0     0.555595     0.876392     0.104287    Uiso  ? Al
   Al29       1.0     0.110632     0.761222     0.850655    Uiso  ? Al
   Al30       1.0     0.217831     0.875761     0.604289    Uiso  ? Al
   Al31       1.0     0.778070     0.761239     0.354052    Uiso  ? Al
   Al32       1.0     0.889684     0.871885     0.104291    Uiso  ? Al
   Al33       1.0     0.440959     0.768169     0.845435    Uiso  ? Al
   Al34       1.0     0.557347     0.873826     0.604288    Uiso  ? Al
   Hf1        1.0     0.555113     0.538556     0.104301    Uiso  ? Hf
   Mg1        1.0     0.218550     0.541149     0.604299    Uiso  ? Mg
   N1         1.0     0.223158     0.204283     0.352999    Uiso  ? N
   N2         1.0     0.110824     0.094985     0.104308    Uiso  ? N
   N3         1.0     0.889567     0.204426     0.852811    Uiso  ? N
   N4         1.0     0.778106     0.093529     0.604310    Uiso  ? N
   N5         1.0     0.556262     0.203421     0.354172    Uiso  ? N
   N6         1.0     0.444259     0.094083     0.104309    Uiso  ? N
   N7         1.0     0.223158     0.204283     0.855619    Uiso  ? N
   N8         1.0     0.111349     0.094854     0.604310    Uiso  ? N
   N9         1.0     0.889568     0.204422     0.355806    Uiso  ? N
   N10        1.0     0.777730     0.095340     0.104307    Uiso  ? N
   N11        1.0     0.556260     0.203424     0.854445    Uiso  ? N
   N12        1.0     0.444067     0.094650     0.604309    Uiso  ? N
   N13        1.0     0.221355     0.539309     0.346842    Uiso  ? N
   N14        1.0     0.110475     0.425964     0.104308    Uiso  ? N
   N15        1.0     0.888356     0.540029     0.854389    Uiso  ? N
   N16        1.0     0.779714     0.426628     0.604301    Uiso  ? N
   N17        1.0     0.556179     0.540192     0.361732    Uiso  ? N
   N18        1.0     0.438980     0.418583     0.104312    Uiso  ? N
   N19        1.0     0.221358     0.539307     0.861766    Uiso  ? N
   N20        1.0     0.104860     0.420303     0.604307    Uiso  ? N
   N21        1.0     0.888357     0.540031     0.354229    Uiso  ? N
   N22        1.0     0.793400     0.419091     0.104315    Uiso  ? N
   N23        1.0     0.556179     0.540192     0.846872    Uiso  ? N
   N24        1.0     0.457033     0.419937     0.604301    Uiso  ? N
   N25        1.0     0.221891     0.873512     0.354393    Uiso  ? N
   N26        1.0     0.110695     0.763033     0.104307    Uiso  ? N
   N27        1.0     0.887491     0.872676     0.856636    Uiso  ? N
   N28        1.0     0.778306     0.761421     0.604310    Uiso  ? N
   N29        1.0     0.555995     0.872985     0.355668    Uiso  ? N
   N30        1.0     0.436443     0.777096     0.104315    Uiso  ? N
   N31        1.0     0.221895     0.873509     0.854224    Uiso  ? N
   N32        1.0     0.103253     0.775253     0.604308    Uiso  ? N
   N33        1.0     0.887491     0.872676     0.351981    Uiso  ? N
   N34        1.0     0.776918     0.760630     0.104308    Uiso  ? N
   N35        1.0     0.555993     0.872983     0.852950    Uiso  ? N
   N36        1.0     0.443495     0.763192     0.604301    Uiso  ? N
