
#======================================================================
# CRYSTAL DATA
#----------------------------------------------------------------------
data_VESTA_phase_1

_chemical_name_common                  'Al   Hf   Mg   N                      '
_cell_length_a                         9.805902
_cell_length_b                         9.811007
_cell_length_c                         9.018646
_cell_angle_alpha                      89.986732
_cell_angle_beta                       90.005959
_cell_angle_gamma                      60.025875
_cell_volume                           751.599132
_space_group_name_H-M_alt              'P 1'
_space_group_IT_number                 1

loop_
_space_group_symop_operation_xyz
   'x, y, z'

loop_
   _atom_site_label
   _atom_site_occupancy
   _atom_site_fract_x
   _atom_site_fract_y
   _atom_site_fract_z
   _atom_site_adp_type
   _atom_site_U_iso_or_equiv
   _atom_site_type_symbol
   Al1        1.0     0.110804     0.094502     0.335442    Uiso  ? Al
   Al2        1.0     0.221869     0.206185     0.088207    Uiso  ? Al
   Al3        1.0     0.777873     0.092887     0.836748    Uiso  ? Al
   Al4        1.0     0.890984     0.201262     0.588623    Uiso  ? Al
   Al5        1.0     0.444983     0.093799     0.335957    Uiso  ? Al
   Al6        1.0     0.555239     0.201548     0.085818    Uiso  ? Al
   Al7        1.0     0.112957     0.094709     0.835873    Uiso  ? Al
   Al8        1.0     0.221254     0.204632     0.584172    Uiso  ? Al
   Al9        1.0     0.777931     0.094315     0.335220    Uiso  ? Al
   Al10       1.0     0.893339     0.201388     0.083752    Uiso  ? Al
   Al11       1.0     0.442581     0.095807     0.835736    Uiso  ? Al
   Al12       1.0     0.559400     0.200872     0.586329    Uiso  ? Al
   Al13       1.0     0.111428     0.427972     0.340367    Uiso  ? Al
   Al14       1.0     0.217916     0.538495     0.095263    Uiso  ? Al
   Al15       1.0     0.781670     0.426530     0.828474    Uiso  ? Al
   Al16       1.0     0.890016     0.540134     0.585908    Uiso  ? Al
   Al17       1.0     0.440125     0.423816     0.354184    Uiso  ? Al
   Al18       1.0     0.111535     0.425779     0.833018    Uiso  ? Al
   Al19       1.0     0.786549     0.423052     0.348625    Uiso  ? Al
   Al20       1.0     0.893971     0.537502     0.086533    Uiso  ? Al
   Al21       1.0     0.442813     0.425481     0.826750    Uiso  ? Al
   Al22       1.0     0.557355     0.538127     0.586257    Uiso  ? Al
   Al23       1.0     0.110987     0.761019     0.339712    Uiso  ? Al
   Al24       1.0     0.217627     0.876674     0.086195    Uiso  ? Al
   Al25       1.0     0.778971     0.761020     0.837501    Uiso  ? Al
   Al26       1.0     0.887917     0.874063     0.584045    Uiso  ? Al
   Al27       1.0     0.440371     0.770200     0.348527    Uiso  ? Al
   Al28       1.0     0.554864     0.876655     0.084120    Uiso  ? Al
   Al29       1.0     0.109652     0.762490     0.834196    Uiso  ? Al
   Al30       1.0     0.217028     0.876210     0.586019    Uiso  ? Al
   Al31       1.0     0.777270     0.761555     0.335175    Uiso  ? Al
   Al32       1.0     0.889633     0.871950     0.088729    Uiso  ? Al
   Al33       1.0     0.442043     0.764987     0.828852    Uiso  ? Al
   Al34       1.0     0.557874     0.874067     0.588055    Uiso  ? Al
   Hf1        1.0     0.555315     0.538635     0.103553    Uiso  ? Hf
   Mg1        1.0     0.217656     0.541590     0.593560    Uiso  ? Mg
   N1         1.0     0.223222     0.203697     0.369257    Uiso  ? N
   N2         1.0     0.110447     0.094898     0.121235    Uiso  ? N
   N3         1.0     0.888741     0.206303     0.868842    Uiso  ? N
   N4         1.0     0.778145     0.092907     0.623117    Uiso  ? N
   N5         1.0     0.557824     0.201062     0.372138    Uiso  ? N
   N6         1.0     0.444761     0.093743     0.121624    Uiso  ? N
   N7         1.0     0.222960     0.204844     0.874536    Uiso  ? N
   N8         1.0     0.112050     0.094707     0.622855    Uiso  ? N
   N9         1.0     0.890501     0.202218     0.374759    Uiso  ? N
   N10        1.0     0.777565     0.095989     0.120430    Uiso  ? N
   N11        1.0     0.555147     0.205468     0.871030    Uiso  ? N
   N12        1.0     0.443487     0.094993     0.622196    Uiso  ? N
   N13        1.0     0.219744     0.540427     0.359225    Uiso  ? N
   N14        1.0     0.110225     0.426063     0.123024    Uiso  ? N
   N15        1.0     0.888004     0.538744     0.871970    Uiso  ? N
   N16        1.0     0.778552     0.427611     0.614285    Uiso  ? N
   N17        1.0     0.556362     0.540092     0.363860    Uiso  ? N
   N18        1.0     0.438069     0.417026     0.126967    Uiso  ? N
   N19        1.0     0.222553     0.538548     0.871237    Uiso  ? N
   N20        1.0     0.104223     0.419096     0.621282    Uiso  ? N
   N21        1.0     0.888635     0.541549     0.372110    Uiso  ? N
   N22        1.0     0.796343     0.417293     0.128032    Uiso  ? N
   N23        1.0     0.555979     0.539740     0.863720    Uiso  ? N
   N24        1.0     0.458290     0.420061     0.612736    Uiso  ? N
   N25        1.0     0.219890     0.874762     0.372413    Uiso  ? N
   N26        1.0     0.111196     0.762980     0.121954    Uiso  ? N
   N27        1.0     0.888016     0.872411     0.875567    Uiso  ? N
   N28        1.0     0.778769     0.761563     0.623207    Uiso  ? N
   N29        1.0     0.557325     0.873795     0.374499    Uiso  ? N
   N30        1.0     0.435114     0.780081     0.128087    Uiso  ? N
   N31        1.0     0.223641     0.872267     0.871739    Uiso  ? N
   N32        1.0     0.102028     0.777001     0.622124    Uiso  ? N
   N33        1.0     0.887073     0.873059     0.368277    Uiso  ? N
   N34        1.0     0.776389     0.760453     0.120509    Uiso  ? N
   N35        1.0     0.554898     0.872184     0.869256    Uiso  ? N
   N36        1.0     0.444019     0.761926     0.614315    Uiso  ? N
