
#======================================================================
# CRYSTAL DATA
#----------------------------------------------------------------------
data_VESTA_phase_1

_chemical_name_common                  'Al   Hf   Mg   N                      '
_cell_length_a                         9.889342
_cell_length_b                         9.894677
_cell_length_c                         8.753158
_cell_angle_alpha                      90.010231
_cell_angle_beta                       89.995407
_cell_angle_gamma                      60.026459
_cell_volume                           741.959384
_space_group_name_H-M_alt              'P 1'
_space_group_IT_number                 1

loop_
_space_group_symop_operation_xyz
   'x, y, z'

loop_
   _atom_site_label
   _atom_site_occupancy
   _atom_site_fract_x
   _atom_site_fract_y
   _atom_site_fract_z
   _atom_site_adp_type
   _atom_site_U_iso_or_equiv
   _atom_site_type_symbol
   Al1        1.0     0.112786     0.094735     0.367029    Uiso  ? Al
   Al2        1.0     0.221750     0.206432     0.114899    Uiso  ? Al
   Al3        1.0     0.777874     0.094283     0.867673    Uiso  ? Al
   Al4        1.0     0.890987     0.201292     0.614742    Uiso  ? Al
   Al5        1.0     0.442728     0.095690     0.367199    Uiso  ? Al
   Al6        1.0     0.555342     0.201637     0.116527    Uiso  ? Al
   Al7        1.0     0.111025     0.094559     0.867458    Uiso  ? Al
   Al8        1.0     0.221434     0.204415     0.618694    Uiso  ? Al
   Al9        1.0     0.777860     0.092998     0.366072    Uiso  ? Al
   Al10       1.0     0.893145     0.201403     0.118751    Uiso  ? Al
   Al11       1.0     0.444734     0.093927     0.866904    Uiso  ? Al
   Al12       1.0     0.559299     0.200918     0.616556    Uiso  ? Al
   Al13       1.0     0.111754     0.426149     0.370361    Uiso  ? Al
   Al14       1.0     0.217853     0.538664     0.107450    Uiso  ? Al
   Al15       1.0     0.785498     0.423643     0.853761    Uiso  ? Al
   Al16       1.0     0.889774     0.540227     0.617143    Uiso  ? Al
   Al17       1.0     0.441824     0.425080     0.376405    Uiso  ? Al
   Al18       1.0     0.111490     0.427658     0.861118    Uiso  ? Al
   Al19       1.0     0.782838     0.425848     0.374930    Uiso  ? Al
   Al20       1.0     0.893982     0.537579     0.115881    Uiso  ? Al
   Al21       1.0     0.440686     0.424224     0.847781    Uiso  ? Al
   Al22       1.0     0.557317     0.538083     0.613802    Uiso  ? Al
   Al23       1.0     0.109956     0.761936     0.369089    Uiso  ? Al
   Al24       1.0     0.217551     0.876353     0.116256    Uiso  ? Al
   Al25       1.0     0.777277     0.761523     0.867880    Uiso  ? Al
   Al26       1.0     0.887659     0.874119     0.618778    Uiso  ? Al
   Al27       1.0     0.441525     0.766173     0.374692    Uiso  ? Al
   Al28       1.0     0.555048     0.876449     0.118423    Uiso  ? Al
   Al29       1.0     0.110939     0.761152     0.861852    Uiso  ? Al
   Al30       1.0     0.217222     0.876307     0.617056    Uiso  ? Al
   Al31       1.0     0.778884     0.761022     0.365351    Uiso  ? Al
   Al32       1.0     0.889879     0.871828     0.114348    Uiso  ? Al
   Al33       1.0     0.440844     0.769204     0.853877    Uiso  ? Al
   Al34       1.0     0.557823     0.874094     0.615160    Uiso  ? Al
   Hf1        1.0     0.555198     0.538587     0.103790    Uiso  ? Hf
   Mg1        1.0     0.217930     0.541454     0.610295    Uiso  ? Mg
   N1         1.0     0.222916     0.204927     0.339946    Uiso  ? N
   N2         1.0     0.110530     0.094914     0.093061    Uiso  ? N
   N3         1.0     0.890278     0.202743     0.839691    Uiso  ? N
   N4         1.0     0.778158     0.093024     0.591233    Uiso  ? N
   N5         1.0     0.555388     0.204975     0.343184    Uiso  ? N
   N6         1.0     0.444636     0.093792     0.092662    Uiso  ? N
   N7         1.0     0.223334     0.203584     0.844820    Uiso  ? N
   N8         1.0     0.111847     0.094806     0.591330    Uiso  ? N
   N9         1.0     0.888906     0.205922     0.345264    Uiso  ? N
   N10        1.0     0.777631     0.095838     0.093714    Uiso  ? N
   N11        1.0     0.557375     0.201759     0.842527    Uiso  ? N
   N12        1.0     0.443592     0.094943     0.592054    Uiso  ? N
   N13        1.0     0.222103     0.538780     0.341582    Uiso  ? N
   N14        1.0     0.110328     0.426082     0.091113    Uiso  ? N
   N15        1.0     0.888291     0.541353     0.842401    Uiso  ? N
   N16        1.0     0.779130     0.427184     0.599008    Uiso  ? N
   N17        1.0     0.556052     0.539894     0.353098    Uiso  ? N
   N18        1.0     0.438483     0.417843     0.089661    Uiso  ? N
   N19        1.0     0.220523     0.539973     0.854955    Uiso  ? N
   N20        1.0     0.104580     0.419528     0.594213    Uiso  ? N
   N21        1.0     0.888299     0.538881     0.342457    Uiso  ? N
   N22        1.0     0.794968     0.418041     0.087790    Uiso  ? N
   N23        1.0     0.556270     0.540155     0.845449    Uiso  ? N
   N24        1.0     0.457607     0.419980     0.600540    Uiso  ? N
   N25        1.0     0.223181     0.872458     0.342671    Uiso  ? N
   N26        1.0     0.111116     0.762907     0.092094    Uiso  ? N
   N27        1.0     0.886937     0.873047     0.846034    Uiso  ? N
   N28        1.0     0.778681     0.761568     0.591054    Uiso  ? N
   N29        1.0     0.555085     0.872389     0.344920    Uiso  ? N
   N30        1.0     0.435754     0.778715     0.087754    Uiso  ? N
   N31        1.0     0.220508     0.874558     0.842071    Uiso  ? N
   N32        1.0     0.102437     0.776254     0.593458    Uiso  ? N
   N33        1.0     0.888083     0.872392     0.338797    Uiso  ? N
   N34        1.0     0.776487     0.760507     0.093771    Uiso  ? N
   N35        1.0     0.557038     0.873573     0.839934    Uiso  ? N
   N36        1.0     0.443735     0.762538     0.598996    Uiso  ? N
