
#======================================================================
# CRYSTAL DATA
#----------------------------------------------------------------------
data_VESTA_phase_1

_chemical_name_common                  'Al   Hf   Mg   N                      '
_cell_length_a                         9.461078
_cell_length_b                         9.463590
_cell_length_c                         10.038335
_cell_angle_alpha                      89.981400
_cell_angle_beta                       90.000183
_cell_angle_gamma                      60.013401
_cell_volume                           778.479928
_space_group_name_H-M_alt              'P 1'
_space_group_IT_number                 1

loop_
_space_group_symop_operation_xyz
   'x, y, z'

loop_
   _atom_site_label
   _atom_site_occupancy
   _atom_site_fract_x
   _atom_site_fract_y
   _atom_site_fract_z
   _atom_site_adp_type
   _atom_site_U_iso_or_equiv
   _atom_site_type_symbol
   Al1        1.0     0.111223     0.094462     0.324833    Uiso  ? Al
   Al2        1.0     0.222382     0.205097     0.074024    Uiso  ? Al
   Al3        1.0     0.777831     0.093519     0.822318    Uiso  ? Al
   Al4        1.0     0.889834     0.203530     0.574886    Uiso  ? Al
   Al5        1.0     0.444172     0.094792     0.324887    Uiso  ? Al
   Al6        1.0     0.556068     0.199553     0.072536    Uiso  ? Al
   Al7        1.0     0.112114     0.094536     0.822106    Uiso  ? Al
   Al8        1.0     0.220430     0.206599     0.574248    Uiso  ? Al
   Al9        1.0     0.777966     0.093923     0.324638    Uiso  ? Al
   Al10       1.0     0.894515     0.199911     0.072552    Uiso  ? Al
   Al11       1.0     0.443541     0.095035     0.822668    Uiso  ? Al
   Al12       1.0     0.557207     0.204638     0.574354    Uiso  ? Al
   Al13       1.0     0.111830     0.428336     0.323262    Uiso  ? Al
   Al14       1.0     0.216862     0.538839     0.073659    Uiso  ? Al
   Al15       1.0     0.781399     0.426385     0.817544    Uiso  ? Al
   Al16       1.0     0.890904     0.538106     0.574511    Uiso  ? Al
   Al17       1.0     0.439662     0.424782     0.328658    Uiso  ? Al
   Al18       1.0     0.110700     0.426069     0.822517    Uiso  ? Al
   Al19       1.0     0.784982     0.424163     0.330177    Uiso  ? Al
   Al20       1.0     0.894140     0.538747     0.072853    Uiso  ? Al
   Al21       1.0     0.443966     0.425141     0.817556    Uiso  ? Al
   Al22       1.0     0.556211     0.537204     0.571405    Uiso  ? Al
   Al23       1.0     0.111258     0.760094     0.323191    Uiso  ? Al
   Al24       1.0     0.216681     0.878259     0.072824    Uiso  ? Al
   Al25       1.0     0.778287     0.761249     0.823058    Uiso  ? Al
   Al26       1.0     0.889921     0.872952     0.574214    Uiso  ? Al
   Al27       1.0     0.440652     0.768147     0.330273    Uiso  ? Al
   Al28       1.0     0.555439     0.877844     0.072826    Uiso  ? Al
   Al29       1.0     0.109643     0.763111     0.822704    Uiso  ? Al
   Al30       1.0     0.218466     0.873912     0.574504    Uiso  ? Al
   Al31       1.0     0.778358     0.761144     0.324906    Uiso  ? Al
   Al32       1.0     0.888567     0.872476     0.073790    Uiso  ? Al
   Al33       1.0     0.442422     0.764799     0.818219    Uiso  ? Al
   Al34       1.0     0.556593     0.873158     0.574200    Uiso  ? Al
   Hf1        1.0     0.556017     0.539313     0.082100    Uiso  ? Hf
   Mg1        1.0     0.219759     0.540169     0.575797    Uiso  ? Mg
   N1         1.0     0.222179     0.205470     0.381730    Uiso  ? N
   N2         1.0     0.111125     0.094954     0.133419    Uiso  ? N
   N3         1.0     0.888707     0.206001     0.881515    Uiso  ? N
   N4         1.0     0.777678     0.093840     0.632348    Uiso  ? N
   N5         1.0     0.556686     0.203419     0.382904    Uiso  ? N
   N6         1.0     0.444086     0.094508     0.133437    Uiso  ? N
   N7         1.0     0.223115     0.204098     0.884043    Uiso  ? N
   N8         1.0     0.111707     0.094341     0.632351    Uiso  ? N
   N9         1.0     0.889902     0.203424     0.383888    Uiso  ? N
   N10        1.0     0.777604     0.095338     0.132345    Uiso  ? N
   N11        1.0     0.555804     0.204755     0.882667    Uiso  ? N
   N12        1.0     0.444164     0.094466     0.632361    Uiso  ? N
   N13        1.0     0.220011     0.540131     0.370751    Uiso  ? N
   N14        1.0     0.110904     0.426113     0.131132    Uiso  ? N
   N15        1.0     0.887188     0.539450     0.883130    Uiso  ? N
   N16        1.0     0.777607     0.428083     0.628001    Uiso  ? N
   N17        1.0     0.555811     0.538914     0.372888    Uiso  ? N
   N18        1.0     0.437056     0.417193     0.135430    Uiso  ? N
   N19        1.0     0.222656     0.538670     0.881495    Uiso  ? N
   N20        1.0     0.103705     0.419749     0.636986    Uiso  ? N
   N21        1.0     0.889850     0.539887     0.383083    Uiso  ? N
   N22        1.0     0.797202     0.417536     0.138170    Uiso  ? N
   N23        1.0     0.556160     0.539761     0.875051    Uiso  ? N
   N24        1.0     0.458995     0.420355     0.632019    Uiso  ? N
   N25        1.0     0.220033     0.873444     0.383141    Uiso  ? N
   N26        1.0     0.111156     0.762391     0.130188    Uiso  ? N
   N27        1.0     0.887426     0.872793     0.884167    Uiso  ? N
   N28        1.0     0.777957     0.761248     0.632478    Uiso  ? N
   N29        1.0     0.556613     0.873254     0.383647    Uiso  ? N
   N30        1.0     0.434712     0.780730     0.138315    Uiso  ? N
   N31        1.0     0.223554     0.872555     0.883042    Uiso  ? N
   N32        1.0     0.103089     0.776386     0.636976    Uiso  ? N
   N33        1.0     0.888724     0.872429     0.381442    Uiso  ? N
   N34        1.0     0.777059     0.760618     0.132579    Uiso  ? N
   N35        1.0     0.555294     0.872029     0.881897    Uiso  ? N
   N36        1.0     0.444464     0.761171     0.628163    Uiso  ? N
