
#======================================================================
# CRYSTAL DATA
#----------------------------------------------------------------------
data_VESTA_phase_1

_chemical_name_common                  'Al   Hf   Mg   N                      '
_cell_length_a                         9.453912
_cell_length_b                         9.456446
_cell_length_c                         10.057014
_cell_angle_alpha                      89.980568
_cell_angle_beta                       89.999283
_cell_angle_gamma                      60.013165
_cell_volume                           778.747649
_space_group_name_H-M_alt              'P 1'
_space_group_IT_number                 1

loop_
_space_group_symop_operation_xyz
   'x, y, z'

loop_
   _atom_site_label
   _atom_site_occupancy
   _atom_site_fract_x
   _atom_site_fract_y
   _atom_site_fract_z
   _atom_site_adp_type
   _atom_site_U_iso_or_equiv
   _atom_site_type_symbol
   Al1        1.0     0.111245     0.094472     0.313414    Uiso  ? Al
   Al2        1.0     0.222393     0.205088     0.062496    Uiso  ? Al
   Al3        1.0     0.777824     0.093552     0.810827    Uiso  ? Al
   Al4        1.0     0.889826     0.203542     0.563340    Uiso  ? Al
   Al5        1.0     0.444137     0.094828     0.313456    Uiso  ? Al
   Al6        1.0     0.556103     0.199557     0.061090    Uiso  ? Al
   Al7        1.0     0.112073     0.094535     0.810650    Uiso  ? Al
   Al8        1.0     0.220417     0.206641     0.562886    Uiso  ? Al
   Al9        1.0     0.777973     0.093899     0.313204    Uiso  ? Al
   Al10       1.0     0.894500     0.199926     0.061178    Uiso  ? Al
   Al11       1.0     0.443579     0.095009     0.811220    Uiso  ? Al
   Al12       1.0     0.557153     0.204674     0.562851    Uiso  ? Al
   Al13       1.0     0.111830     0.428294     0.311702    Uiso  ? Al
   Al14       1.0     0.216884     0.538866     0.062209    Uiso  ? Al
   Al15       1.0     0.781569     0.426291     0.805934    Uiso  ? Al
   Al16       1.0     0.890939     0.538071     0.563026    Uiso  ? Al
   Al17       1.0     0.439849     0.424900     0.317035    Uiso  ? Al
   Al18       1.0     0.110705     0.426127     0.811094    Uiso  ? Al
   Al19       1.0     0.784695     0.424319     0.318699    Uiso  ? Al
   Al20       1.0     0.894119     0.538779     0.061405    Uiso  ? Al
   Al21       1.0     0.443840     0.425081     0.805985    Uiso  ? Al
   Al22       1.0     0.556159     0.537187     0.560235    Uiso  ? Al
   Al23       1.0     0.111238     0.760135     0.311622    Uiso  ? Al
   Al24       1.0     0.216693     0.878267     0.061377    Uiso  ? Al
   Al25       1.0     0.778260     0.761249     0.811577    Uiso  ? Al
   Al26       1.0     0.889962     0.872908     0.562835    Uiso  ? Al
   Al27       1.0     0.440773     0.767863     0.318789    Uiso  ? Al
   Al28       1.0     0.555454     0.877847     0.061450    Uiso  ? Al
   Al29       1.0     0.109685     0.763057     0.811244    Uiso  ? Al
   Al30       1.0     0.218468     0.873884     0.563017    Uiso  ? Al
   Al31       1.0     0.778390     0.761133     0.313471    Uiso  ? Al
   Al32       1.0     0.888554     0.872497     0.062239    Uiso  ? Al
   Al33       1.0     0.442338     0.764977     0.806611    Uiso  ? Al
   Al34       1.0     0.556565     0.873156     0.562650    Uiso  ? Al
   Hf1        1.0     0.556050     0.539358     0.069690    Uiso  ? Hf
   Mg1        1.0     0.219767     0.540144     0.563958    Uiso  ? Mg
   N1         1.0     0.222160     0.205506     0.370614    Uiso  ? N
   N2         1.0     0.111157     0.094973     0.122246    Uiso  ? N
   N3         1.0     0.888689     0.206015     0.870394    Uiso  ? N
   N4         1.0     0.777663     0.093865     0.621129    Uiso  ? N
   N5         1.0     0.556658     0.203492     0.371654    Uiso  ? N
   N6         1.0     0.444054     0.094556     0.122255    Uiso  ? N
   N7         1.0     0.223109     0.204100     0.872799    Uiso  ? N
   N8         1.0     0.111673     0.094336     0.621160    Uiso  ? N
   N9         1.0     0.889870     0.203475     0.372615    Uiso  ? N
   N10        1.0     0.777623     0.095299     0.121160    Uiso  ? N
   N11        1.0     0.555810     0.204762     0.871498    Uiso  ? N
   N12        1.0     0.444193     0.094430     0.621175    Uiso  ? N
   N13        1.0     0.220079     0.540100     0.359270    Uiso  ? N
   N14        1.0     0.110921     0.426088     0.119870    Uiso  ? N
   N15        1.0     0.887171     0.539453     0.871957    Uiso  ? N
   N16        1.0     0.777711     0.428007     0.616797    Uiso  ? N
   N17        1.0     0.555795     0.538900     0.362229    Uiso  ? N
   N18        1.0     0.437241     0.417344     0.124109    Uiso  ? N
   N19        1.0     0.222665     0.538676     0.870393    Uiso  ? N
   N20        1.0     0.103726     0.419827     0.625864    Uiso  ? N
   N21        1.0     0.889861     0.539842     0.371850    Uiso  ? N
   N22        1.0     0.796936     0.417701     0.126951    Uiso  ? N
   N23        1.0     0.556157     0.539770     0.863138    Uiso  ? N
   N24        1.0     0.458833     0.420319     0.620864    Uiso  ? N
   N25        1.0     0.220060     0.873407     0.371904    Uiso  ? N
   N26        1.0     0.111116     0.762438     0.118919    Uiso  ? N
   N27        1.0     0.887424     0.872797     0.872894    Uiso  ? N
   N28        1.0     0.777919     0.761228     0.621270    Uiso  ? N
   N29        1.0     0.556591     0.873225     0.372371    Uiso  ? N
   N30        1.0     0.434839     0.780471     0.127092    Uiso  ? N
   N31        1.0     0.223553     0.872552     0.871868    Uiso  ? N
   N32        1.0     0.103176     0.776268     0.625817    Uiso  ? N
   N33        1.0     0.888764     0.872406     0.370314    Uiso  ? N
   N34        1.0     0.777097     0.760637     0.121388    Uiso  ? N
   N35        1.0     0.555293     0.872019     0.870778    Uiso  ? N
   N36        1.0     0.444394     0.761299     0.616964    Uiso  ? N
