
#======================================================================
# CRYSTAL DATA
#----------------------------------------------------------------------
data_VESTA_phase_1

_chemical_name_common                  'Al   Hf   Mg   N                      '
_cell_length_a                         9.461137
_cell_length_b                         9.463644
_cell_length_c                         10.038197
_cell_angle_alpha                      90.018532
_cell_angle_beta                       89.999924
_cell_angle_gamma                      60.013348
_cell_volume                           778.478123
_space_group_name_H-M_alt              'P 1'
_space_group_IT_number                 1

loop_
_space_group_symop_operation_xyz
   'x, y, z'

loop_
   _atom_site_label
   _atom_site_occupancy
   _atom_site_fract_x
   _atom_site_fract_y
   _atom_site_fract_z
   _atom_site_adp_type
   _atom_site_U_iso_or_equiv
   _atom_site_type_symbol
   Al1        1.0     0.112114     0.094535     0.386515    Uiso  ? Al
   Al2        1.0     0.222383     0.205096     0.134597    Uiso  ? Al
   Al3        1.0     0.777966     0.093923     0.883983    Uiso  ? Al
   Al4        1.0     0.889834     0.203530     0.633735    Uiso  ? Al
   Al5        1.0     0.443541     0.095034     0.385953    Uiso  ? Al
   Al6        1.0     0.556068     0.199552     0.136086    Uiso  ? Al
   Al7        1.0     0.111223     0.094462     0.883787    Uiso  ? Al
   Al8        1.0     0.220431     0.206598     0.634373    Uiso  ? Al
   Al9        1.0     0.777831     0.093518     0.386304    Uiso  ? Al
   Al10       1.0     0.894515     0.199910     0.136070    Uiso  ? Al
   Al11       1.0     0.444172     0.094792     0.883733    Uiso  ? Al
   Al12       1.0     0.557207     0.204637     0.634268    Uiso  ? Al
   Al13       1.0     0.110700     0.426068     0.386105    Uiso  ? Al
   Al14       1.0     0.216863     0.538838     0.134962    Uiso  ? Al
   Al15       1.0     0.784981     0.424163     0.878444    Uiso  ? Al
   Al16       1.0     0.890903     0.538105     0.634110    Uiso  ? Al
   Al17       1.0     0.443966     0.425140     0.391066    Uiso  ? Al
   Al18       1.0     0.111831     0.428336     0.885359    Uiso  ? Al
   Al19       1.0     0.781399     0.426384     0.391078    Uiso  ? Al
   Al20       1.0     0.894140     0.538747     0.135768    Uiso  ? Al
   Al21       1.0     0.439662     0.424781     0.879963    Uiso  ? Al
   Al22       1.0     0.556212     0.537203     0.637216    Uiso  ? Al
   Al23       1.0     0.109643     0.763110     0.385917    Uiso  ? Al
   Al24       1.0     0.216681     0.878258     0.135797    Uiso  ? Al
   Al25       1.0     0.778358     0.761143     0.883714    Uiso  ? Al
   Al26       1.0     0.889920     0.872952     0.634407    Uiso  ? Al
   Al27       1.0     0.442422     0.764799     0.390403    Uiso  ? Al
   Al28       1.0     0.555438     0.877843     0.135796    Uiso  ? Al
   Al29       1.0     0.111258     0.760093     0.885431    Uiso  ? Al
   Al30       1.0     0.218467     0.873911     0.634117    Uiso  ? Al
   Al31       1.0     0.778287     0.761249     0.385564    Uiso  ? Al
   Al32       1.0     0.888566     0.872476     0.134830    Uiso  ? Al
   Al33       1.0     0.440652     0.768147     0.878348    Uiso  ? Al
   Al34       1.0     0.556592     0.873157     0.634421    Uiso  ? Al
   Hf1        1.0     0.556015     0.539312     0.126522    Uiso  ? Hf
   Mg1        1.0     0.219759     0.540169     0.632826    Uiso  ? Mg
   N1         1.0     0.223115     0.204098     0.324579    Uiso  ? N
   N2         1.0     0.111125     0.094954     0.075204    Uiso  ? N
   N3         1.0     0.889902     0.203424     0.824735    Uiso  ? N
   N4         1.0     0.777678     0.093839     0.576275    Uiso  ? N
   N5         1.0     0.555804     0.204755     0.325955    Uiso  ? N
   N6         1.0     0.444086     0.094507     0.075186    Uiso  ? N
   N7         1.0     0.222179     0.205470     0.826892    Uiso  ? N
   N8         1.0     0.111707     0.094341     0.576271    Uiso  ? N
   N9         1.0     0.888707     0.206000     0.327107    Uiso  ? N
   N10        1.0     0.777604     0.095338     0.076277    Uiso  ? N
   N11        1.0     0.556686     0.203418     0.825718    Uiso  ? N
   N12        1.0     0.444164     0.094466     0.576262    Uiso  ? N
   N13        1.0     0.222656     0.538669     0.327127    Uiso  ? N
   N14        1.0     0.110903     0.426113     0.077491    Uiso  ? N
   N15        1.0     0.889850     0.539886     0.825540    Uiso  ? N
   N16        1.0     0.777607     0.428083     0.580621    Uiso  ? N
   N17        1.0     0.556161     0.539760     0.333573    Uiso  ? N
   N18        1.0     0.437057     0.417193     0.073193    Uiso  ? N
   N19        1.0     0.220010     0.540131     0.837873    Uiso  ? N
   N20        1.0     0.103705     0.419749     0.571636    Uiso  ? N
   N21        1.0     0.887187     0.539449     0.325493    Uiso  ? N
   N22        1.0     0.797203     0.417535     0.070453    Uiso  ? N
   N23        1.0     0.555811     0.538913     0.835734    Uiso  ? N
   N24        1.0     0.458994     0.420355     0.576603    Uiso  ? N
   N25        1.0     0.223554     0.872554     0.325581    Uiso  ? N
   N26        1.0     0.111155     0.762391     0.078434    Uiso  ? N
   N27        1.0     0.888724     0.872428     0.827180    Uiso  ? N
   N28        1.0     0.777957     0.761247     0.576144    Uiso  ? N
   N29        1.0     0.555294     0.872028     0.326725    Uiso  ? N
   N30        1.0     0.434712     0.780729     0.070309    Uiso  ? N
   N31        1.0     0.220033     0.873444     0.825482    Uiso  ? N
   N32        1.0     0.103089     0.776385     0.571646    Uiso  ? N
   N33        1.0     0.887425     0.872793     0.324455    Uiso  ? N
   N34        1.0     0.777059     0.760617     0.076043    Uiso  ? N
   N35        1.0     0.556613     0.873253     0.824975    Uiso  ? N
   N36        1.0     0.444463     0.761171     0.580459    Uiso  ? N
