
#======================================================================
# CRYSTAL DATA
#----------------------------------------------------------------------
data_VESTA_phase_1

_chemical_name_common                  'Al   Hf   Mg   N                      '
_cell_length_a                         9.454233
_cell_length_b                         9.456768
_cell_length_c                         10.056186
_cell_angle_alpha                      90.019379
_cell_angle_beta                       90.000641
_cell_angle_gamma                      60.013241
_cell_volume                           778.737090
_space_group_name_H-M_alt              'P 1'
_space_group_IT_number                 1

loop_
_space_group_symop_operation_xyz
   'x, y, z'

loop_
   _atom_site_label
   _atom_site_occupancy
   _atom_site_fract_x
   _atom_site_fract_y
   _atom_site_fract_z
   _atom_site_adp_type
   _atom_site_U_iso_or_equiv
   _atom_site_type_symbol
   Al1        1.0     0.112074     0.094531     0.390509    Uiso  ? Al
   Al2        1.0     0.222393     0.205086     0.138663    Uiso  ? Al
   Al3        1.0     0.777970     0.093897     0.887958    Uiso  ? Al
   Al4        1.0     0.889827     0.203537     0.637819    Uiso  ? Al
   Al5        1.0     0.443578     0.095007     0.389940    Uiso  ? Al
   Al6        1.0     0.556101     0.199556     0.140068    Uiso  ? Al
   Al7        1.0     0.111244     0.094469     0.887748    Uiso  ? Al
   Al8        1.0     0.220417     0.206636     0.638278    Uiso  ? Al
   Al9        1.0     0.777823     0.093547     0.390330    Uiso  ? Al
   Al10       1.0     0.894498     0.199922     0.139983    Uiso  ? Al
   Al11       1.0     0.444137     0.094825     0.887706    Uiso  ? Al
   Al12       1.0     0.557155     0.204670     0.638309    Uiso  ? Al
   Al13       1.0     0.110706     0.426121     0.390067    Uiso  ? Al
   Al14       1.0     0.216885     0.538859     0.138951    Uiso  ? Al
   Al15       1.0     0.784702     0.424310     0.882457    Uiso  ? Al
   Al16       1.0     0.890939     0.538068     0.638134    Uiso  ? Al
   Al17       1.0     0.443843     0.425077     0.395164    Uiso  ? Al
   Al18       1.0     0.111831     0.428292     0.889456    Uiso  ? Al
   Al19       1.0     0.781566     0.426288     0.395218    Uiso  ? Al
   Al20       1.0     0.894123     0.538771     0.139754    Uiso  ? Al
   Al21       1.0     0.439842     0.424892     0.884120    Uiso  ? Al
   Al22       1.0     0.556160     0.537183     0.640927    Uiso  ? Al
   Al23       1.0     0.109684     0.763053     0.389916    Uiso  ? Al
   Al24       1.0     0.216690     0.878262     0.139783    Uiso  ? Al
   Al25       1.0     0.778390     0.761129     0.887691    Uiso  ? Al
   Al26       1.0     0.889961     0.872905     0.638328    Uiso  ? Al
   Al27       1.0     0.442339     0.764969     0.394542    Uiso  ? Al
   Al28       1.0     0.555453     0.877846     0.139710    Uiso  ? Al
   Al29       1.0     0.111238     0.760127     0.889534    Uiso  ? Al
   Al30       1.0     0.218467     0.873881     0.638143    Uiso  ? Al
   Al31       1.0     0.778261     0.761245     0.389583    Uiso  ? Al
   Al32       1.0     0.888555     0.872493     0.138920    Uiso  ? Al
   Al33       1.0     0.440769     0.767865     0.882366    Uiso  ? Al
   Al34       1.0     0.556566     0.873153     0.638508    Uiso  ? Al
   Hf1        1.0     0.556046     0.539337     0.131432    Uiso  ? Hf
   Mg1        1.0     0.219769     0.540139     0.637187    Uiso  ? Mg
   N1         1.0     0.223109     0.204094     0.328372    Uiso  ? N
   N2         1.0     0.111158     0.094966     0.078926    Uiso  ? N
   N3         1.0     0.889872     0.203469     0.828554    Uiso  ? N
   N4         1.0     0.777664     0.093861     0.580042    Uiso  ? N
   N5         1.0     0.555811     0.204755     0.329674    Uiso  ? N
   N6         1.0     0.444054     0.094545     0.078917    Uiso  ? N
   N7         1.0     0.222160     0.205500     0.830559    Uiso  ? N
   N8         1.0     0.111674     0.094331     0.580012    Uiso  ? N
   N9         1.0     0.888690     0.206011     0.330779    Uiso  ? N
   N10        1.0     0.777624     0.095294     0.080011    Uiso  ? N
   N11        1.0     0.556659     0.203484     0.829514    Uiso  ? N
   N12        1.0     0.444193     0.094426     0.579997    Uiso  ? N
   N13        1.0     0.222663     0.538673     0.330783    Uiso  ? N
   N14        1.0     0.110917     0.426084     0.081300    Uiso  ? N
   N15        1.0     0.889859     0.539841     0.829320    Uiso  ? N
   N16        1.0     0.777708     0.428005     0.584372    Uiso  ? N
   N17        1.0     0.556158     0.539768     0.338010    Uiso  ? N
   N18        1.0     0.437238     0.417340     0.077059    Uiso  ? N
   N19        1.0     0.220075     0.540098     0.841889    Uiso  ? N
   N20        1.0     0.103724     0.419820     0.575312    Uiso  ? N
   N21        1.0     0.887170     0.539450     0.329216    Uiso  ? N
   N22        1.0     0.796944     0.417693     0.074218    Uiso  ? N
   N23        1.0     0.555795     0.538897     0.838955    Uiso  ? N
   N24        1.0     0.458840     0.420315     0.580305    Uiso  ? N
   N25        1.0     0.223554     0.872548     0.329304    Uiso  ? N
   N26        1.0     0.111116     0.762434     0.082250    Uiso  ? N
   N27        1.0     0.888762     0.872402     0.830860    Uiso  ? N
   N28        1.0     0.777919     0.761224     0.579902    Uiso  ? N
   N29        1.0     0.555293     0.872015     0.330395    Uiso  ? N
   N30        1.0     0.434833     0.780480     0.074076    Uiso  ? N
   N31        1.0     0.220060     0.873405     0.829266    Uiso  ? N
   N32        1.0     0.103173     0.776268     0.575358    Uiso  ? N
   N33        1.0     0.887424     0.872793     0.328276    Uiso  ? N
   N34        1.0     0.777095     0.760632     0.079784    Uiso  ? N
   N35        1.0     0.556592     0.873220     0.828799    Uiso  ? N
   N36        1.0     0.444396     0.761292     0.584205    Uiso  ? N
