
#======================================================================
# CRYSTAL DATA
#----------------------------------------------------------------------
data_VESTA_phase_1

_chemical_name_common                  'Al   Hf   Mg   N                      '
_cell_length_a                         9.512362
_cell_length_b                         9.515014
_cell_length_c                         9.899862
_cell_angle_alpha                      89.982834
_cell_angle_beta                       90.002609
_cell_angle_gamma                      60.015015
_cell_volume                           776.109950
_space_group_name_H-M_alt              'P 1'
_space_group_IT_number                 1

loop_
_space_group_symop_operation_xyz
   'x, y, z'

loop_
   _atom_site_label
   _atom_site_occupancy
   _atom_site_fract_x
   _atom_site_fract_y
   _atom_site_fract_z
   _atom_site_adp_type
   _atom_site_U_iso_or_equiv
   _atom_site_type_symbol
   Al1        1.0     0.111101     0.094445     0.326737    Uiso  ? Al
   Al2        1.0     0.222330     0.205192     0.076578    Uiso  ? Al
   Al3        1.0     0.777840     0.093370     0.824732    Uiso  ? Al
   Al4        1.0     0.889926     0.203320     0.577498    Uiso  ? Al
   Al5        1.0     0.444382     0.094591     0.326850    Uiso  ? Al
   Al6        1.0     0.555857     0.199730     0.074674    Uiso  ? Al
   Al7        1.0     0.112340     0.094560     0.824341    Uiso  ? Al
   Al8        1.0     0.220516     0.206321     0.575877    Uiso  ? Al
   Al9        1.0     0.777977     0.094005     0.326573    Uiso  ? Al
   Al10       1.0     0.894497     0.199989     0.074290    Uiso  ? Al
   Al11       1.0     0.443330     0.095194     0.824831    Uiso  ? Al
   Al12       1.0     0.557592     0.204208     0.576628    Uiso  ? Al
   Al13       1.0     0.111844     0.428512     0.326008    Uiso  ? Al
   Al14       1.0     0.216923     0.538693     0.076169    Uiso  ? Al
   Al15       1.0     0.780603     0.426853     0.820250    Uiso  ? Al
   Al16       1.0     0.890721     0.538359     0.576710    Uiso  ? Al
   Al17       1.0     0.438837     0.424172     0.332174    Uiso  ? Al
   Al18       1.0     0.110705     0.425801     0.824472    Uiso  ? Al
   Al19       1.0     0.786440     0.423369     0.332710    Uiso  ? Al
   Al20       1.0     0.894198     0.538548     0.075039    Uiso  ? Al
   Al21       1.0     0.444487     0.425460     0.819895    Uiso  ? Al
   Al22       1.0     0.556499     0.537336     0.572166    Uiso  ? Al
   Al23       1.0     0.111323     0.759970     0.325942    Uiso  ? Al
   Al24       1.0     0.216732     0.878167     0.074986    Uiso  ? Al
   Al25       1.0     0.778421     0.761232     0.825418    Uiso  ? Al
   Al26       1.0     0.889632     0.873208     0.575901    Uiso  ? Al
   Al27       1.0     0.440054     0.769637     0.332823    Uiso  ? Al
   Al28       1.0     0.555326     0.877779     0.074581    Uiso  ? Al
   Al29       1.0     0.109461     0.763342     0.824861    Uiso  ? Al
   Al30       1.0     0.218320     0.874191     0.576720    Uiso  ? Al
   Al31       1.0     0.778186     0.761230     0.326859    Uiso  ? Al
   Al32       1.0     0.888661     0.872389     0.076485    Uiso  ? Al
   Al33       1.0     0.442787     0.763997     0.820900    Uiso  ? Al
   Al34       1.0     0.556797     0.873221     0.576819    Uiso  ? Al
   Hf1        1.0     0.555842     0.539122     0.089200    Uiso  ? Hf
   Mg1        1.0     0.219489     0.540418     0.579896    Uiso  ? Mg
   N1         1.0     0.222329     0.205235     0.381367    Uiso  ? N
   N2         1.0     0.110947     0.094907     0.133323    Uiso  ? N
   N3         1.0     0.888761     0.206009     0.881160    Uiso  ? N
   N4         1.0     0.777761     0.093661     0.632593    Uiso  ? N
   N5         1.0     0.556941     0.202886     0.383189    Uiso  ? N
   N6         1.0     0.444279     0.094288     0.133384    Uiso  ? N
   N7         1.0     0.223140     0.204129     0.884389    Uiso  ? N
   N8         1.0     0.111862     0.094385     0.632454    Uiso  ? N
   N9         1.0     0.890093     0.203095     0.384363    Uiso  ? N
   N10        1.0     0.777530     0.095562     0.132304    Uiso  ? N
   N11        1.0     0.555699     0.204849     0.882558    Uiso  ? N
   N12        1.0     0.444001     0.094633     0.632403    Uiso  ? N
   N13        1.0     0.219637     0.540338     0.372094    Uiso  ? N
   N14        1.0     0.110800     0.426236     0.131601    Uiso  ? N
   N15        1.0     0.887258     0.539395     0.883089    Uiso  ? N
   N16        1.0     0.777184     0.428390     0.627860    Uiso  ? N
   N17        1.0     0.555930     0.539069     0.370421    Uiso  ? N
   N18        1.0     0.436371     0.416548     0.136332    Uiso  ? N
   N19        1.0     0.222673     0.538624     0.881167    Uiso  ? N
   N20        1.0     0.103599     0.419357     0.636530    Uiso  ? N
   N21        1.0     0.889784     0.540190     0.383279    Uiso  ? N
   N22        1.0     0.798321     0.416822     0.138422    Uiso  ? N
   N23        1.0     0.556137     0.539727     0.878311    Uiso  ? N
   N24        1.0     0.459646     0.420483     0.631296    Uiso  ? N
   N25        1.0     0.219855     0.873712     0.383358    Uiso  ? N
   N26        1.0     0.111331     0.762263     0.130690    Uiso  ? N
   N27        1.0     0.887437     0.872764     0.884671    Uiso  ? N
   N28        1.0     0.778169     0.761333     0.632655    Uiso  ? N
   N29        1.0     0.556781     0.873439     0.384128    Uiso  ? N
   N30        1.0     0.434187     0.781856     0.138576    Uiso  ? N
   N31        1.0     0.223609     0.872550     0.882990    Uiso  ? N
   N32        1.0     0.102615     0.776995     0.636711    Uiso  ? N
   N33        1.0     0.888486     0.872556     0.381099    Uiso  ? N
   N34        1.0     0.776865     0.760540     0.132580    Uiso  ? N
   N35        1.0     0.555254     0.872062     0.881543    Uiso  ? N
   N36        1.0     0.444731     0.760651     0.627989    Uiso  ? N
