
#======================================================================
# CRYSTAL DATA
#----------------------------------------------------------------------
data_VESTA_phase_1

_chemical_name_common                  'Al   Hf   Mg   N                      '
_cell_length_a                         9.928009
_cell_length_b                         9.933336
_cell_length_c                         8.631417
_cell_angle_alpha                      90.008156
_cell_angle_beta                       89.996559
_cell_angle_gamma                      60.026237
_cell_volume                           737.368866
_space_group_name_H-M_alt              'P 1'
_space_group_IT_number                 1

loop_
_space_group_symop_operation_xyz
   'x, y, z'

loop_
   _atom_site_label
   _atom_site_occupancy
   _atom_site_fract_x
   _atom_site_fract_y
   _atom_site_fract_z
   _atom_site_adp_type
   _atom_site_U_iso_or_equiv
   _atom_site_type_symbol
   Al1        1.0     0.112596     0.094730     0.363661    Uiso  ? Al
   Al2        1.0     0.221727     0.206460     0.111744    Uiso  ? Al
   Al3        1.0     0.777857     0.094165     0.863939    Uiso  ? Al
   Al4        1.0     0.890874     0.201508     0.611714    Uiso  ? Al
   Al5        1.0     0.442931     0.095516     0.363757    Uiso  ? Al
   Al6        1.0     0.555434     0.201590     0.112782    Uiso  ? Al
   Al7        1.0     0.111234     0.094602     0.863682    Uiso  ? Al
   Al8        1.0     0.221460     0.204461     0.614844    Uiso  ? Al
   Al9        1.0     0.777838     0.093157     0.362673    Uiso  ? Al
   Al10       1.0     0.893119     0.201295     0.114778    Uiso  ? Al
   Al11       1.0     0.444484     0.094116     0.863212    Uiso  ? Al
   Al12       1.0     0.559133     0.201187     0.612993    Uiso  ? Al
   Al13       1.0     0.111812     0.426405     0.366981    Uiso  ? Al
   Al14       1.0     0.217780     0.538760     0.105596    Uiso  ? Al
   Al15       1.0     0.785070     0.423944     0.850916    Uiso  ? Al
   Al16       1.0     0.889712     0.540087     0.613560    Uiso  ? Al
   Al17       1.0     0.441389     0.424880     0.373173    Uiso  ? Al
   Al18       1.0     0.111591     0.427489     0.857309    Uiso  ? Al
   Al19       1.0     0.783387     0.425481     0.371545    Uiso  ? Al
   Al20       1.0     0.893965     0.537739     0.112234    Uiso  ? Al
   Al21       1.0     0.440785     0.424385     0.845334    Uiso  ? Al
   Al22       1.0     0.557279     0.538003     0.610055    Uiso  ? Al
   Al23       1.0     0.110172     0.761650     0.365749    Uiso  ? Al
   Al24       1.0     0.217437     0.876301     0.112579    Uiso  ? Al
   Al25       1.0     0.777416     0.761478     0.864163    Uiso  ? Al
   Al26       1.0     0.887680     0.874083     0.614839    Uiso  ? Al
   Al27       1.0     0.441324     0.766757     0.371388    Uiso  ? Al
   Al28       1.0     0.555214     0.876399     0.114503    Uiso  ? Al
   Al29       1.0     0.110891     0.761152     0.858005    Uiso  ? Al
   Al30       1.0     0.217442     0.876175     0.613502    Uiso  ? Al
   Al31       1.0     0.778726     0.761040     0.362064    Uiso  ? Al
   Al32       1.0     0.889904     0.871804     0.111268    Uiso  ? Al
   Al33       1.0     0.440986     0.768766     0.851015    Uiso  ? Al
   Al34       1.0     0.557695     0.874027     0.612014    Uiso  ? Al
   Hf1        1.0     0.555154     0.538574     0.103644    Uiso  ? Hf
   Mg1        1.0     0.218170     0.541328     0.608099    Uiso  ? Mg
   N1         1.0     0.222934     0.204858     0.343711    Uiso  ? N
   N2         1.0     0.110627     0.094923     0.096359    Uiso  ? N
   N3         1.0     0.890085     0.203189     0.843441    Uiso  ? N
   N4         1.0     0.778141     0.093169     0.594953    Uiso  ? N
   N5         1.0     0.555593     0.204594     0.346498    Uiso  ? N
   N6         1.0     0.444516     0.093878     0.096044    Uiso  ? N
   N7         1.0     0.223323     0.203693     0.847972    Uiso  ? N
   N8         1.0     0.111689     0.094836     0.594970    Uiso  ? N
   N9         1.0     0.889051     0.205589     0.348381    Uiso  ? N
   N10        1.0     0.777662     0.095696     0.096903    Uiso  ? N
   N11        1.0     0.557041     0.202292     0.846152    Uiso  ? N
   N12        1.0     0.443727     0.094863     0.595604    Uiso  ? N
   N13        1.0     0.221856     0.538927     0.343524    Uiso  ? N
   N14        1.0     0.110417     0.426092     0.094780    Uiso  ? N
   N15        1.0     0.888218     0.541058     0.845951    Uiso  ? N
   N16        1.0     0.779328     0.427001     0.601047    Uiso  ? N
   N17        1.0     0.556098     0.539990     0.356599    Uiso  ? N
   N18        1.0     0.438605     0.418220     0.094308    Uiso  ? N
   N19        1.0     0.220891     0.539736     0.857357    Uiso  ? N
   N20        1.0     0.104726     0.419806     0.597758    Uiso  ? N
   N21        1.0     0.888390     0.539095     0.345988    Uiso  ? N
   N22        1.0     0.794334     0.418441     0.092422    Uiso  ? N
   N23        1.0     0.556212     0.540151     0.845839    Uiso  ? N
   N24        1.0     0.457359     0.419977     0.602144    Uiso  ? N
   N25        1.0     0.222857     0.872666     0.346181    Uiso  ? N
   N26        1.0     0.111048     0.762844     0.095608    Uiso  ? N
   N27        1.0     0.887011     0.872978     0.849231    Uiso  ? N
   N28        1.0     0.778569     0.761543     0.594781    Uiso  ? N
   N29        1.0     0.555279     0.872533     0.348102    Uiso  ? N
   N30        1.0     0.436039     0.778066     0.092391    Uiso  ? N
   N31        1.0     0.220913     0.874304     0.845638    Uiso  ? N
   N32        1.0     0.102719     0.775843     0.597176    Uiso  ? N
   N33        1.0     0.888015     0.872427     0.342572    Uiso  ? N
   N34        1.0     0.776608     0.760537     0.096975    Uiso  ? N
   N35        1.0     0.556775     0.873405     0.843667    Uiso  ? N
   N36        1.0     0.443658     0.762755     0.601049    Uiso  ? N
