
#======================================================================
# CRYSTAL DATA
#----------------------------------------------------------------------
data_VESTA_phase_1

_chemical_name_common                  'Al   Hf   Mg   N                      '
_cell_length_a                         9.565584
_cell_length_b                         9.568672
_cell_length_c                         9.749916
_cell_angle_alpha                      89.982986
_cell_angle_beta                       90.003784
_cell_angle_gamma                      60.017509
_cell_volume                           772.985326
_space_group_name_H-M_alt              'P 1'
_space_group_IT_number                 1

loop_
_space_group_symop_operation_xyz
   'x, y, z'

loop_
   _atom_site_label
   _atom_site_occupancy
   _atom_site_fract_x
   _atom_site_fract_y
   _atom_site_fract_z
   _atom_site_adp_type
   _atom_site_U_iso_or_equiv
   _atom_site_type_symbol
   Al1        1.0     0.110996     0.094451     0.327628    Uiso  ? Al
   Al2        1.0     0.222272     0.205319     0.078090    Uiso  ? Al
   Al3        1.0     0.777833     0.093256     0.826234    Uiso  ? Al
   Al4        1.0     0.890094     0.202950     0.578990    Uiso  ? Al
   Al5        1.0     0.444563     0.094398     0.327793    Uiso  ? Al
   Al6        1.0     0.555662     0.200082     0.075907    Uiso  ? Al
   Al7        1.0     0.112525     0.094584     0.825709    Uiso  ? Al
   Al8        1.0     0.220618     0.206021     0.576616    Uiso  ? Al
   Al9        1.0     0.778008     0.094036     0.327450    Uiso  ? Al
   Al10       1.0     0.894346     0.200228     0.075180    Uiso  ? Al
   Al11       1.0     0.443149     0.095340     0.826102    Uiso  ? Al
   Al12       1.0     0.558016     0.203567     0.577759    Uiso  ? Al
   Al13       1.0     0.111820     0.428553     0.327750    Uiso  ? Al
   Al14       1.0     0.217144     0.538567     0.078278    Uiso  ? Al
   Al15       1.0     0.780224     0.427109     0.821424    Uiso  ? Al
   Al16       1.0     0.890594     0.538664     0.577786    Uiso  ? Al
   Al17       1.0     0.438533     0.423783     0.335106    Uiso  ? Al
   Al18       1.0     0.110778     0.425652     0.825437    Uiso  ? Al
   Al19       1.0     0.787279     0.422882     0.334607    Uiso  ? Al
   Al20       1.0     0.894168     0.538322     0.076345    Uiso  ? Al
   Al21       1.0     0.444629     0.425667     0.820616    Uiso  ? Al
   Al22       1.0     0.556740     0.537488     0.572635    Uiso  ? Al
   Al23       1.0     0.111299     0.760024     0.327626    Uiso  ? Al
   Al24       1.0     0.216907     0.877974     0.076250    Uiso  ? Al
   Al25       1.0     0.778536     0.761188     0.826887    Uiso  ? Al
   Al26       1.0     0.889327     0.873415     0.576645    Uiso  ? Al
   Al27       1.0     0.439743     0.770544     0.334711    Uiso  ? Al
   Al28       1.0     0.555195     0.877620     0.075491    Uiso  ? Al
   Al29       1.0     0.109390     0.763395     0.825993    Uiso  ? Al
   Al30       1.0     0.218048     0.874562     0.577812    Uiso  ? Al
   Al31       1.0     0.778018     0.761318     0.327738    Uiso  ? Al
   Al32       1.0     0.888781     0.872316     0.078123    Uiso  ? Al
   Al33       1.0     0.442927     0.763612     0.822034    Uiso  ? Al
   Al34       1.0     0.557033     0.873351     0.578317    Uiso  ? Al
   Hf1        1.0     0.555716     0.538999     0.093514    Uiso  ? Hf
   Mg1        1.0     0.219047     0.540722     0.582342    Uiso  ? Mg
   N1         1.0     0.222496     0.204964     0.379658    Uiso  ? N
   N2         1.0     0.110799     0.094893     0.131751    Uiso  ? N
   N3         1.0     0.888754     0.206108     0.879436    Uiso  ? N
   N4         1.0     0.777843     0.093466     0.631461    Uiso  ? N
   N5         1.0     0.557239     0.202309     0.381908    Uiso  ? N
   N6         1.0     0.444438     0.094133     0.131851    Uiso  ? N
   N7         1.0     0.223142     0.204212     0.883268    Uiso  ? N
   N8         1.0     0.111963     0.094430     0.631226    Uiso  ? N
   N9         1.0     0.890253     0.202772     0.383311    Uiso  ? N
   N10        1.0     0.777499     0.095723     0.130766    Uiso  ? N
   N11        1.0     0.555536     0.205061     0.881025    Uiso  ? N
   N12        1.0     0.443870     0.094734     0.631088    Uiso  ? N
   N13        1.0     0.219367     0.540514     0.371248    Uiso  ? N
   N14        1.0     0.110683     0.426268     0.130643    Uiso  ? N
   N15        1.0     0.887325     0.539277     0.881657    Uiso  ? N
   N16        1.0     0.777099     0.428466     0.626000    Uiso  ? N
   N17        1.0     0.556055     0.539267     0.367940    Uiso  ? N
   N18        1.0     0.436271     0.416265     0.135835    Uiso  ? N
   N19        1.0     0.222752     0.538557     0.879701    Uiso  ? N
   N20        1.0     0.103576     0.419104     0.634566    Uiso  ? N
   N21        1.0     0.889674     0.540505     0.381933    Uiso  ? N
   N22        1.0     0.798654     0.416521     0.137318    Uiso  ? N
   N23        1.0     0.556084     0.539700     0.878257    Uiso  ? N
   N24        1.0     0.459831     0.420479     0.628580    Uiso  ? N
   N25        1.0     0.219695     0.873988     0.382043    Uiso  ? N
   N26        1.0     0.111398     0.762306     0.129733    Uiso  ? N
   N27        1.0     0.887490     0.872710     0.883693    Uiso  ? N
   N28        1.0     0.778343     0.761386     0.631472    Uiso  ? N
   N29        1.0     0.556960     0.873596     0.383074    Uiso  ? N
   N30        1.0     0.434032     0.782225     0.137467    Uiso  ? N
   N31        1.0     0.223709     0.872491     0.881532    Uiso  ? N
   N32        1.0     0.102280     0.777359     0.634901    Uiso  ? N
   N33        1.0     0.888235     0.872663     0.379340    Uiso  ? N
   N34        1.0     0.776718     0.760489     0.131068    Uiso  ? N
   N35        1.0     0.555166     0.872060     0.879827    Uiso  ? N
   N36        1.0     0.444789     0.760510     0.626094    Uiso  ? N
