
#======================================================================
# CRYSTAL DATA
#----------------------------------------------------------------------
data_VESTA_phase_1

_chemical_name_common                  'Al   Hf   Mg   N                      '
_cell_length_a                         9.453913
_cell_length_b                         9.456448
_cell_length_c                         10.057013
_cell_angle_alpha                      90.019493
_cell_angle_beta                       90.000710
_cell_angle_gamma                      60.013184
_cell_volume                           778.747886
_space_group_name_H-M_alt              'P 1'
_space_group_IT_number                 1

loop_
_space_group_symop_operation_xyz
   'x, y, z'

loop_
   _atom_site_label
   _atom_site_occupancy
   _atom_site_fract_x
   _atom_site_fract_y
   _atom_site_fract_z
   _atom_site_adp_type
   _atom_site_U_iso_or_equiv
   _atom_site_type_symbol
   Al1        1.0     0.112073     0.094527     0.404884    Uiso  ? Al
   Al2        1.0     0.222393     0.205080     0.153037    Uiso  ? Al
   Al3        1.0     0.777972     0.093891     0.902329    Uiso  ? Al
   Al4        1.0     0.889826     0.203534     0.652195    Uiso  ? Al
   Al5        1.0     0.443579     0.095001     0.404313    Uiso  ? Al
   Al6        1.0     0.556103     0.199549     0.154444    Uiso  ? Al
   Al7        1.0     0.111245     0.094464     0.902120    Uiso  ? Al
   Al8        1.0     0.220417     0.206633     0.652646    Uiso  ? Al
   Al9        1.0     0.777824     0.093544     0.404706    Uiso  ? Al
   Al10       1.0     0.894499     0.199918     0.154356    Uiso  ? Al
   Al11       1.0     0.444137     0.094820     0.902078    Uiso  ? Al
   Al12       1.0     0.557153     0.204666     0.652684    Uiso  ? Al
   Al13       1.0     0.110704     0.426119     0.404439    Uiso  ? Al
   Al14       1.0     0.216883     0.538858     0.153324    Uiso  ? Al
   Al15       1.0     0.784695     0.424311     0.896837    Uiso  ? Al
   Al16       1.0     0.890938     0.538063     0.652508    Uiso  ? Al
   Al17       1.0     0.443839     0.425074     0.409554    Uiso  ? Al
   Al18       1.0     0.111830     0.428286     0.903831    Uiso  ? Al
   Al19       1.0     0.781569     0.426283     0.409603    Uiso  ? Al
   Al20       1.0     0.894119     0.538771     0.154129    Uiso  ? Al
   Al21       1.0     0.439850     0.424892     0.898505    Uiso  ? Al
   Al22       1.0     0.556159     0.537179     0.655305    Uiso  ? Al
   Al23       1.0     0.109685     0.763049     0.404289    Uiso  ? Al
   Al24       1.0     0.216693     0.878259     0.154157    Uiso  ? Al
   Al25       1.0     0.778390     0.761125     0.902063    Uiso  ? Al
   Al26       1.0     0.889962     0.872899     0.652697    Uiso  ? Al
   Al27       1.0     0.442337     0.764969     0.408928    Uiso  ? Al
   Al28       1.0     0.555454     0.877839     0.154083    Uiso  ? Al
   Al29       1.0     0.111237     0.760128     0.903912    Uiso  ? Al
   Al30       1.0     0.218467     0.873877     0.652518    Uiso  ? Al
   Al31       1.0     0.778259     0.761241     0.403956    Uiso  ? Al
   Al32       1.0     0.888554     0.872489     0.153294    Uiso  ? Al
   Al33       1.0     0.440773     0.767854     0.896747    Uiso  ? Al
   Al34       1.0     0.556565     0.873148     0.652884    Uiso  ? Al
   Hf1        1.0     0.556050     0.539351     0.145850    Uiso  ? Hf
   Mg1        1.0     0.219766     0.540136     0.651579    Uiso  ? Mg
   N1         1.0     0.223109     0.204092     0.342734    Uiso  ? N
   N2         1.0     0.111157     0.094965     0.093288    Uiso  ? N
   N3         1.0     0.889870     0.203467     0.842920    Uiso  ? N
   N4         1.0     0.777663     0.093858     0.594405    Uiso  ? N
   N5         1.0     0.555809     0.204755     0.344037    Uiso  ? N
   N6         1.0     0.444054     0.094548     0.093279    Uiso  ? N
   N7         1.0     0.222160     0.205498     0.844919    Uiso  ? N
   N8         1.0     0.111673     0.094328     0.594374    Uiso  ? N
   N9         1.0     0.888688     0.206008     0.345140    Uiso  ? N
   N10        1.0     0.777623     0.095291     0.094374    Uiso  ? N
   N11        1.0     0.556658     0.203484     0.843881    Uiso  ? N
   N12        1.0     0.444193     0.094422     0.594358    Uiso  ? N
   N13        1.0     0.222665     0.538668     0.345142    Uiso  ? N
   N14        1.0     0.110921     0.426079     0.095664    Uiso  ? N
   N15        1.0     0.889860     0.539834     0.843685    Uiso  ? N
   N16        1.0     0.777710     0.427999     0.598740    Uiso  ? N
   N17        1.0     0.556157     0.539763     0.352401    Uiso  ? N
   N18        1.0     0.437241     0.417336     0.091429    Uiso  ? N
   N19        1.0     0.220080     0.540091     0.856267    Uiso  ? N
   N20        1.0     0.103726     0.419819     0.589670    Uiso  ? N
   N21        1.0     0.887171     0.539445     0.343577    Uiso  ? N
   N22        1.0     0.796934     0.417693     0.088586    Uiso  ? N
   N23        1.0     0.555794     0.538891     0.853309    Uiso  ? N
   N24        1.0     0.458833     0.420311     0.594674    Uiso  ? N
   N25        1.0     0.223553     0.872544     0.343667    Uiso  ? N
   N26        1.0     0.111116     0.762430     0.096616    Uiso  ? N
   N27        1.0     0.888764     0.872397     0.845219    Uiso  ? N
   N28        1.0     0.777919     0.761220     0.594263    Uiso  ? N
   N29        1.0     0.555292     0.872011     0.344757    Uiso  ? N
   N30        1.0     0.434839     0.780461     0.088444    Uiso  ? N
   N31        1.0     0.220060     0.873399     0.843630    Uiso  ? N
   N32        1.0     0.103176     0.776259     0.589717    Uiso  ? N
   N33        1.0     0.887424     0.872790     0.342639    Uiso  ? N
   N34        1.0     0.777097     0.760629     0.094146    Uiso  ? N
   N35        1.0     0.556591     0.873216     0.843164    Uiso  ? N
   N36        1.0     0.444393     0.761291     0.598574    Uiso  ? N
