
#======================================================================
# CRYSTAL DATA
#----------------------------------------------------------------------
data_VESTA_phase_1

_chemical_name_common                  'Al   Hf   Mg   N                      '
_cell_length_a                         9.806038
_cell_length_b                         9.811133
_cell_length_c                         9.018229
_cell_angle_alpha                      90.013275
_cell_angle_beta                       89.994034
_cell_angle_gamma                      60.026005
_cell_volume                           751.585477
_space_group_name_H-M_alt              'P 1'
_space_group_IT_number                 1

loop_
_space_group_symop_operation_xyz
   'x, y, z'

loop_
   _atom_site_label
   _atom_site_occupancy
   _atom_site_fract_x
   _atom_site_fract_y
   _atom_site_fract_z
   _atom_site_adp_type
   _atom_site_U_iso_or_equiv
   _atom_site_type_symbol
   Al1        1.0     0.112955     0.094709     0.372717    Uiso  ? Al
   Al2        1.0     0.221869     0.206185     0.120390    Uiso  ? Al
   Al3        1.0     0.777931     0.094313     0.873369    Uiso  ? Al
   Al4        1.0     0.890984     0.201262     0.619975    Uiso  ? Al
   Al5        1.0     0.442583     0.095805     0.372851    Uiso  ? Al
   Al6        1.0     0.555240     0.201548     0.122769    Uiso  ? Al
   Al7        1.0     0.110806     0.094502     0.873146    Uiso  ? Al
   Al8        1.0     0.221255     0.204632     0.624416    Uiso  ? Al
   Al9        1.0     0.777872     0.092889     0.371842    Uiso  ? Al
   Al10       1.0     0.893339     0.201388     0.124837    Uiso  ? Al
   Al11       1.0     0.444981     0.093801     0.872633    Uiso  ? Al
   Al12       1.0     0.559400     0.200872     0.622259    Uiso  ? Al
   Al13       1.0     0.111535     0.425781     0.375575    Uiso  ? Al
   Al14       1.0     0.217917     0.538495     0.113321    Uiso  ? Al
   Al15       1.0     0.786546     0.423055     0.859969    Uiso  ? Al
   Al16       1.0     0.890016     0.540133     0.622681    Uiso  ? Al
   Al17       1.0     0.442810     0.425480     0.381840    Uiso  ? Al
   Al18       1.0     0.111427     0.427970     0.868227    Uiso  ? Al
   Al19       1.0     0.781673     0.426527     0.380118    Uiso  ? Al
   Al20       1.0     0.893970     0.537503     0.122057    Uiso  ? Al
   Al21       1.0     0.440127     0.423816     0.854404    Uiso  ? Al
   Al22       1.0     0.557355     0.538127     0.622328    Uiso  ? Al
   Al23       1.0     0.109654     0.762488     0.374392    Uiso  ? Al
   Al24       1.0     0.217627     0.876675     0.122393    Uiso  ? Al
   Al25       1.0     0.777271     0.761555     0.873413    Uiso  ? Al
   Al26       1.0     0.887918     0.874063     0.624544    Uiso  ? Al
   Al27       1.0     0.442043     0.764990     0.379741    Uiso  ? Al
   Al28       1.0     0.554866     0.876654     0.124469    Uiso  ? Al
   Al29       1.0     0.110984     0.761021     0.868883    Uiso  ? Al
   Al30       1.0     0.217029     0.876210     0.622569    Uiso  ? Al
   Al31       1.0     0.778969     0.761019     0.371093    Uiso  ? Al
   Al32       1.0     0.889631     0.871950     0.119870    Uiso  ? Al
   Al33       1.0     0.440371     0.770198     0.860065    Uiso  ? Al
   Al34       1.0     0.557873     0.874068     0.620541    Uiso  ? Al
   Hf1        1.0     0.555314     0.538635     0.105047    Uiso  ? Hf
   Mg1        1.0     0.217656     0.541592     0.615035    Uiso  ? Mg
   N1         1.0     0.222960     0.204844     0.334075    Uiso  ? N
   N2         1.0     0.110448     0.094899     0.087371    Uiso  ? N
   N3         1.0     0.890501     0.202219     0.833852    Uiso  ? N
   N4         1.0     0.778145     0.092909     0.585489    Uiso  ? N
   N5         1.0     0.555148     0.205468     0.337575    Uiso  ? N
   N6         1.0     0.444760     0.093744     0.086983    Uiso  ? N
   N7         1.0     0.223223     0.203697     0.839347    Uiso  ? N
   N8         1.0     0.112048     0.094708     0.585751    Uiso  ? N
   N9         1.0     0.888742     0.206302     0.339762    Uiso  ? N
   N10        1.0     0.777566     0.095987     0.088176    Uiso  ? N
   N11        1.0     0.557824     0.201063     0.836469    Uiso  ? N
   N12        1.0     0.443488     0.094991     0.586408    Uiso  ? N
   N13        1.0     0.222553     0.538547     0.337366    Uiso  ? N
   N14        1.0     0.110225     0.426061     0.085585    Uiso  ? N
   N15        1.0     0.888636     0.541548     0.836496    Uiso  ? N
   N16        1.0     0.778553     0.427608     0.594321    Uiso  ? N
   N17        1.0     0.555979     0.539740     0.344896    Uiso  ? N
   N18        1.0     0.438071     0.417026     0.081644    Uiso  ? N
   N19        1.0     0.219744     0.540427     0.849390    Uiso  ? N
   N20        1.0     0.104224     0.419098     0.587327    Uiso  ? N
   N21        1.0     0.888004     0.538745     0.336638    Uiso  ? N
   N22        1.0     0.796340     0.417295     0.080578    Uiso  ? N
   N23        1.0     0.556362     0.540092     0.844741    Uiso  ? N
   N24        1.0     0.458287     0.420062     0.595873    Uiso  ? N
   N25        1.0     0.223641     0.872267     0.336867    Uiso  ? N
   N26        1.0     0.111193     0.762983     0.086657    Uiso  ? N
   N27        1.0     0.887074     0.873059     0.840327    Uiso  ? N
   N28        1.0     0.778768     0.761563     0.585402    Uiso  ? N
   N29        1.0     0.554899     0.872183     0.339349    Uiso  ? N
   N30        1.0     0.435114     0.780078     0.080523    Uiso  ? N
   N31        1.0     0.219890     0.874762     0.836194    Uiso  ? N
   N32        1.0     0.102029     0.776999     0.586482    Uiso  ? N
   N33        1.0     0.888014     0.872411     0.333045    Uiso  ? N
   N34        1.0     0.776390     0.760453     0.088096    Uiso  ? N
   N35        1.0     0.557324     0.873795     0.834111    Uiso  ? N
   N36        1.0     0.444019     0.761928     0.594292    Uiso  ? N
