
#======================================================================
# CRYSTAL DATA
#----------------------------------------------------------------------
data_VESTA_phase_1

_chemical_name_common                  'Al   Hf   Mg   N                      '
_cell_length_a                         9.565619
_cell_length_b                         9.568707
_cell_length_c                         9.749809
_cell_angle_alpha                      90.017029
_cell_angle_beta                       89.996223
_cell_angle_gamma                      60.017563
_cell_volume                           772.982898
_space_group_name_H-M_alt              'P 1'
_space_group_IT_number                 1

loop_
_space_group_symop_operation_xyz
   'x, y, z'

loop_
   _atom_site_label
   _atom_site_occupancy
   _atom_site_fract_x
   _atom_site_fract_y
   _atom_site_fract_z
   _atom_site_adp_type
   _atom_site_U_iso_or_equiv
   _atom_site_type_symbol
   Al1        1.0     0.112526     0.094584     0.382888    Uiso  ? Al
   Al2        1.0     0.222272     0.205320     0.130508    Uiso  ? Al
   Al3        1.0     0.778009     0.094035     0.881147    Uiso  ? Al
   Al4        1.0     0.890094     0.202950     0.629606    Uiso  ? Al
   Al5        1.0     0.443149     0.095340     0.382494    Uiso  ? Al
   Al6        1.0     0.555662     0.200082     0.132689    Uiso  ? Al
   Al7        1.0     0.110996     0.094451     0.880968    Uiso  ? Al
   Al8        1.0     0.220619     0.206021     0.631980    Uiso  ? Al
   Al9        1.0     0.777833     0.093257     0.382362    Uiso  ? Al
   Al10       1.0     0.894346     0.200229     0.133418    Uiso  ? Al
   Al11       1.0     0.444563     0.094398     0.880804    Uiso  ? Al
   Al12       1.0     0.558017     0.203566     0.630839    Uiso  ? Al
   Al13       1.0     0.110779     0.425653     0.383161    Uiso  ? Al
   Al14       1.0     0.217144     0.538567     0.130318    Uiso  ? Al
   Al15       1.0     0.787279     0.422882     0.873989    Uiso  ? Al
   Al16       1.0     0.890594     0.538664     0.630811    Uiso  ? Al
   Al17       1.0     0.444629     0.425667     0.387983    Uiso  ? Al
   Al18       1.0     0.111820     0.428553     0.880847    Uiso  ? Al
   Al19       1.0     0.780224     0.427110     0.387173    Uiso  ? Al
   Al20       1.0     0.894168     0.538321     0.132251    Uiso  ? Al
   Al21       1.0     0.438533     0.423783     0.873489    Uiso  ? Al
   Al22       1.0     0.556740     0.537488     0.635963    Uiso  ? Al
   Al23       1.0     0.109391     0.763395     0.382604    Uiso  ? Al
   Al24       1.0     0.216907     0.877974     0.132346    Uiso  ? Al
   Al25       1.0     0.778018     0.761318     0.880858    Uiso  ? Al
   Al26       1.0     0.889327     0.873415     0.631951    Uiso  ? Al
   Al27       1.0     0.442927     0.763612     0.386564    Uiso  ? Al
   Al28       1.0     0.555195     0.877619     0.133106    Uiso  ? Al
   Al29       1.0     0.111299     0.760024     0.880971    Uiso  ? Al
   Al30       1.0     0.218047     0.874562     0.630785    Uiso  ? Al
   Al31       1.0     0.778536     0.761187     0.381709    Uiso  ? Al
   Al32       1.0     0.888781     0.872316     0.130474    Uiso  ? Al
   Al33       1.0     0.439743     0.770544     0.873885    Uiso  ? Al
   Al34       1.0     0.557033     0.873351     0.630279    Uiso  ? Al
   Hf1        1.0     0.555716     0.538999     0.115082    Uiso  ? Hf
   Mg1        1.0     0.219046     0.540723     0.626256    Uiso  ? Mg
   N1         1.0     0.223142     0.204213     0.325330    Uiso  ? N
   N2         1.0     0.110799     0.094894     0.076848    Uiso  ? N
   N3         1.0     0.890253     0.202772     0.825287    Uiso  ? N
   N4         1.0     0.777842     0.093466     0.577136    Uiso  ? N
   N5         1.0     0.555536     0.205062     0.327573    Uiso  ? N
   N6         1.0     0.444438     0.094133     0.076748    Uiso  ? N
   N7         1.0     0.222496     0.204964     0.828940    Uiso  ? N
   N8         1.0     0.111963     0.094430     0.577372    Uiso  ? N
   N9         1.0     0.888754     0.206109     0.329162    Uiso  ? N
   N10        1.0     0.777499     0.095723     0.077833    Uiso  ? N
   N11        1.0     0.557240     0.202308     0.826690    Uiso  ? N
   N12        1.0     0.443870     0.094733     0.577509    Uiso  ? N
   N13        1.0     0.222752     0.538557     0.328897    Uiso  ? N
   N14        1.0     0.110683     0.426268     0.077955    Uiso  ? N
   N15        1.0     0.889674     0.540505     0.826665    Uiso  ? N
   N16        1.0     0.777099     0.428465     0.582599    Uiso  ? N
   N17        1.0     0.556084     0.539700     0.330342    Uiso  ? N
   N18        1.0     0.436271     0.416265     0.072762    Uiso  ? N
   N19        1.0     0.219366     0.540515     0.837351    Uiso  ? N
   N20        1.0     0.103576     0.419104     0.574033    Uiso  ? N
   N21        1.0     0.887325     0.539277     0.326941    Uiso  ? N
   N22        1.0     0.798653     0.416520     0.071280    Uiso  ? N
   N23        1.0     0.556055     0.539267     0.840658    Uiso  ? N
   N24        1.0     0.459830     0.420479     0.580021    Uiso  ? N
   N25        1.0     0.223710     0.872491     0.327066    Uiso  ? N
   N26        1.0     0.111398     0.762307     0.078865    Uiso  ? N
   N27        1.0     0.888235     0.872663     0.829258    Uiso  ? N
   N28        1.0     0.778344     0.761385     0.577126    Uiso  ? N
   N29        1.0     0.555166     0.872059     0.328771    Uiso  ? N
   N30        1.0     0.434032     0.782225     0.071131    Uiso  ? N
   N31        1.0     0.219695     0.873989     0.826555    Uiso  ? N
   N32        1.0     0.102280     0.777359     0.573697    Uiso  ? N
   N33        1.0     0.887490     0.872710     0.324906    Uiso  ? N
   N34        1.0     0.776717     0.760489     0.077531    Uiso  ? N
   N35        1.0     0.556960     0.873596     0.825524    Uiso  ? N
   N36        1.0     0.444789     0.760510     0.582506    Uiso  ? N
