
#======================================================================
# CRYSTAL DATA
#----------------------------------------------------------------------
data_VESTA_phase_1

_chemical_name_common                  'Al   Hf   Mg   N                      '
_cell_length_a                         9.964535
_cell_length_b                         9.969750
_cell_length_c                         8.520638
_cell_angle_alpha                      90.005455
_cell_angle_beta                       89.998024
_cell_angle_gamma                      60.025772
_cell_volume                           733.257991
_space_group_name_H-M_alt              'P 1'
_space_group_IT_number                 1

loop_
_space_group_symop_operation_xyz
   'x, y, z'

loop_
   _atom_site_label
   _atom_site_occupancy
   _atom_site_fract_x
   _atom_site_fract_y
   _atom_site_fract_z
   _atom_site_adp_type
   _atom_site_U_iso_or_equiv
   _atom_site_type_symbol
   Al1        1.0     0.112326     0.094709     0.359766    Uiso  ? Al
   Al2        1.0     0.221736     0.206403     0.108255    Uiso  ? Al
   Al3        1.0     0.777849     0.093951     0.859507    Uiso  ? Al
   Al4        1.0     0.890699     0.201827     0.608330    Uiso  ? Al
   Al5        1.0     0.443237     0.095238     0.359750    Uiso  ? Al
   Al6        1.0     0.555547     0.201486     0.108671    Uiso  ? Al
   Al7        1.0     0.111525     0.094649     0.859116    Uiso  ? Al
   Al8        1.0     0.221426     0.204627     0.610126    Uiso  ? Al
   Al9        1.0     0.777813     0.093393     0.358798    Uiso  ? Al
   Al10       1.0     0.893140     0.201125     0.110023    Uiso  ? Al
   Al11       1.0     0.444143     0.094407     0.858843    Uiso  ? Al
   Al12       1.0     0.558944     0.201536     0.608934    Uiso  ? Al
   Al13       1.0     0.111830     0.426699     0.363067    Uiso  ? Al
   Al14       1.0     0.217700     0.538850     0.104540    Uiso  ? Al
   Al15       1.0     0.784777     0.424231     0.848307    Uiso  ? Al
   Al16       1.0     0.889722     0.539826     0.609337    Uiso  ? Al
   Al17       1.0     0.441007     0.424681     0.369882    Uiso  ? Al
   Al18       1.0     0.111714     0.427287     0.853545    Uiso  ? Al
   Al19       1.0     0.783931     0.425078     0.367631    Uiso  ? Al
   Al20       1.0     0.893910     0.537978     0.108286    Uiso  ? Al
   Al21       1.0     0.440766     0.424460     0.843509    Uiso  ? Al
   Al22       1.0     0.557254     0.537911     0.607004    Uiso  ? Al
   Al23       1.0     0.110429     0.761381     0.361977    Uiso  ? Al
   Al24       1.0     0.217290     0.876344     0.108535    Uiso  ? Al
   Al25       1.0     0.777674     0.761404     0.859670    Uiso  ? Al
   Al26       1.0     0.887823     0.874008     0.609999    Uiso  ? Al
   Al27       1.0     0.441158     0.767361     0.367561    Uiso  ? Al
   Al28       1.0     0.555415     0.876381     0.109836    Uiso  ? Al
   Al29       1.0     0.110785     0.761160     0.854190    Uiso  ? Al
   Al30       1.0     0.217691     0.875945     0.609310    Uiso  ? Al
   Al31       1.0     0.778463     0.761081     0.358398    Uiso  ? Al
   Al32       1.0     0.889834     0.871821     0.107947    Uiso  ? Al
   Al33       1.0     0.441027     0.768427     0.848370    Uiso  ? Al
   Al34       1.0     0.557509     0.873923     0.608484    Uiso  ? Al
   Hf1        1.0     0.555120     0.538559     0.103804    Uiso  ? Hf
   Mg1        1.0     0.218403     0.541208     0.606120    Uiso  ? Mg
   N1         1.0     0.223000     0.204671     0.348126    Uiso  ? N
   N2         1.0     0.110751     0.094939     0.100067    Uiso  ? N
   N3         1.0     0.889846     0.203737     0.847843    Uiso  ? N
   N4         1.0     0.778116     0.093363     0.599326    Uiso  ? N
   N5         1.0     0.555857     0.204124     0.350179    Uiso  ? N
   N6         1.0     0.444370     0.093999     0.099906    Uiso  ? N
   N7         1.0     0.223263     0.203930     0.851493    Uiso  ? N
   N8         1.0     0.111505     0.094849     0.599309    Uiso  ? N
   N9         1.0     0.889254     0.205134     0.351822    Uiso  ? N
   N10        1.0     0.777691     0.095512     0.100442    Uiso  ? N
   N11        1.0     0.556674     0.202859     0.850138    Uiso  ? N
   N12        1.0     0.443909     0.094749     0.599707    Uiso  ? N
   N13        1.0     0.221631     0.539082     0.345238    Uiso  ? N
   N14        1.0     0.110482     0.426065     0.099156    Uiso  ? N
   N15        1.0     0.888243     0.540626     0.849927    Uiso  ? N
   N16        1.0     0.779496     0.426821     0.602824    Uiso  ? N
   N17        1.0     0.556139     0.540088     0.359433    Uiso  ? N
   N18        1.0     0.438742     0.418488     0.099087    Uiso  ? N
   N19        1.0     0.221167     0.539529     0.859547    Uiso  ? N
   N20        1.0     0.104824     0.420096     0.601162    Uiso  ? N
   N21        1.0     0.888411     0.539444     0.349949    Uiso  ? N
   N22        1.0     0.793791     0.418819     0.097786    Uiso  ? N
   N23        1.0     0.556175     0.540154     0.846280    Uiso  ? N
   N24        1.0     0.457167     0.419986     0.603358    Uiso  ? N
   N25        1.0     0.222465     0.872982     0.350121    Uiso  ? N
   N26        1.0     0.110915     0.762857     0.099704    Uiso  ? N
   N27        1.0     0.887202     0.872858     0.852708    Uiso  ? N
   N28        1.0     0.778418     0.761495     0.599232    Uiso  ? N
   N29        1.0     0.555560     0.872708     0.351618    Uiso  ? N
   N30        1.0     0.436268     0.777499     0.097759    Uiso  ? N
   N31        1.0     0.221357     0.873951     0.849668    Uiso  ? N
   N32        1.0     0.103024     0.775464     0.600829    Uiso  ? N
   N33        1.0     0.887837     0.872507     0.347056    Uiso  ? N
   N34        1.0     0.776776     0.760572     0.100472    Uiso  ? N
   N35        1.0     0.556435     0.873216     0.848042    Uiso  ? N
   N36        1.0     0.443605     0.762944     0.602837    Uiso  ? N
