
#======================================================================
# CRYSTAL DATA
#----------------------------------------------------------------------
data_VESTA_phase_1

_chemical_name_common                  'Al   Hf   Mg   N                      '
_cell_length_a                         9.617268
_cell_length_b                         9.620841
_cell_length_c                         9.599452
_cell_angle_alpha                      89.983345
_cell_angle_beta                       90.004723
_cell_angle_gamma                      60.019890
_cell_volume                           769.358555
_space_group_name_H-M_alt              'P 1'
_space_group_IT_number                 1

loop_
_space_group_symop_operation_xyz
   'x, y, z'

loop_
   _atom_site_label
   _atom_site_occupancy
   _atom_site_fract_x
   _atom_site_fract_y
   _atom_site_fract_z
   _atom_site_adp_type
   _atom_site_U_iso_or_equiv
   _atom_site_type_symbol
   Al1        1.0     0.110908     0.094460     0.328719    Uiso  ? Al
   Al2        1.0     0.222203     0.205469     0.079766    Uiso  ? Al
   Al3        1.0     0.777831     0.093155     0.827959    Uiso  ? Al
   Al4        1.0     0.890297     0.202531     0.580606    Uiso  ? Al
   Al5        1.0     0.444719     0.094220     0.328942    Uiso  ? Al
   Al6        1.0     0.555499     0.200471     0.077391    Uiso  ? Al
   Al7        1.0     0.112680     0.094607     0.827330    Uiso  ? Al
   Al8        1.0     0.220734     0.205716     0.577609    Uiso  ? Al
   Al9        1.0     0.778025     0.094074     0.328517    Uiso  ? Al
   Al10       1.0     0.894138     0.200518     0.076355    Uiso  ? Al
   Al11       1.0     0.442983     0.095476     0.827615    Uiso  ? Al
   Al12       1.0     0.558424     0.202871     0.579036    Uiso  ? Al
   Al13       1.0     0.111753     0.428509     0.329718    Uiso  ? Al
   Al14       1.0     0.217392     0.538475     0.081012    Uiso  ? Al
   Al15       1.0     0.780158     0.427201     0.822522    Uiso  ? Al
   Al16       1.0     0.890491     0.538997     0.579002    Uiso  ? Al
   Al17       1.0     0.438585     0.423576     0.338500    Uiso  ? Al
   Al18       1.0     0.110902     0.425582     0.826572    Uiso  ? Al
   Al19       1.0     0.787639     0.422640     0.336922    Uiso  ? Al
   Al20       1.0     0.894104     0.538097     0.077904    Uiso  ? Al
   Al21       1.0     0.444509     0.425776     0.821290    Uiso  ? Al
   Al22       1.0     0.556944     0.537653     0.573940    Uiso  ? Al
   Al23       1.0     0.111234     0.760186     0.329504    Uiso  ? Al
   Al24       1.0     0.217114     0.877726     0.077761    Uiso  ? Al
   Al25       1.0     0.778647     0.761139     0.828603    Uiso  ? Al
   Al26       1.0     0.889022     0.873589     0.577617    Uiso  ? Al
   Al27       1.0     0.439651     0.770987     0.336995    Uiso  ? Al
   Al28       1.0     0.555070     0.877418     0.076686    Uiso  ? Al
   Al29       1.0     0.109385     0.763325     0.827277    Uiso  ? Al
   Al30       1.0     0.217748     0.874957     0.579048    Uiso  ? Al
   Al31       1.0     0.777844     0.761398     0.328781    Uiso  ? Al
   Al32       1.0     0.888924     0.872248     0.079916    Uiso  ? Al
   Al33       1.0     0.442910     0.763534     0.823089    Uiso  ? Al
   Al34       1.0     0.557265     0.873513     0.579941    Uiso  ? Al
   Hf1        1.0     0.555619     0.538902     0.096689    Uiso  ? Hf
   Mg1        1.0     0.218591     0.541012     0.584558    Uiso  ? Mg
   N1         1.0     0.222662     0.204678     0.377860    Uiso  ? N
   N2         1.0     0.110678     0.094890     0.130009    Uiso  ? N
   N3         1.0     0.888732     0.206222     0.877613    Uiso  ? N
   N4         1.0     0.777924     0.093286     0.630212    Uiso  ? N
   N5         1.0     0.557512     0.201786     0.380421    Uiso  ? N
   N6         1.0     0.444562     0.094012     0.130157    Uiso  ? N
   N7         1.0     0.223124     0.204328     0.881976    Uiso  ? N
   N8         1.0     0.112034     0.094479     0.629914    Uiso  ? N
   N9         1.0     0.890377     0.202501     0.382065    Uiso  ? N
   N10        1.0     0.777490     0.095842     0.129053    Uiso  ? N
   N11        1.0     0.555374     0.205280     0.879367    Uiso  ? N
   N12        1.0     0.443755     0.094810     0.629677    Uiso  ? N
   N13        1.0     0.219206     0.540638     0.369706    Uiso  ? N
   N14        1.0     0.110555     0.426244     0.129544    Uiso  ? N
   N15        1.0     0.887417     0.539137     0.880101    Uiso  ? N
   N16        1.0     0.777228     0.428406     0.623904    Uiso  ? N
   N17        1.0     0.556170     0.539475     0.366370    Uiso  ? N
   N18        1.0     0.436493     0.416194     0.135100    Uiso  ? N
   N19        1.0     0.222820     0.538496     0.878279    Uiso  ? N
   N20        1.0     0.103627     0.418958     0.632395    Uiso  ? N
   N21        1.0     0.889515     0.540808     0.380393    Uiso  ? N
   N22        1.0     0.798530     0.416463     0.136085    Uiso  ? N
   N23        1.0     0.556031     0.539679     0.876860    Uiso  ? N
   N24        1.0     0.459734     0.420416     0.625521    Uiso  ? N
   N25        1.0     0.219591     0.874238     0.380540    Uiso  ? N
   N26        1.0     0.111398     0.762442     0.128612    Uiso  ? N
   N27        1.0     0.887577     0.872644     0.882534    Uiso  ? N
   N28        1.0     0.778487     0.761431     0.630193    Uiso  ? N
   N29        1.0     0.557118     0.873715     0.381822    Uiso  ? N
   N30        1.0     0.434089     0.782142     0.136219    Uiso  ? N
   N31        1.0     0.223796     0.872413     0.879948    Uiso  ? N
   N32        1.0     0.102062     0.777532     0.632865    Uiso  ? N
   N33        1.0     0.887976     0.872765     0.377446    Uiso  ? N
   N34        1.0     0.776602     0.760455     0.129354    Uiso  ? N
   N35        1.0     0.555069     0.872053     0.878016    Uiso  ? N
   N36        1.0     0.444726     0.760608     0.623971    Uiso  ? N
