
#======================================================================
# CRYSTAL DATA
#----------------------------------------------------------------------
data_VESTA_phase_1

_chemical_name_common                  'Al   Hf   Mg   N                      '
_cell_length_a                         9.453903
_cell_length_b                         9.456437
_cell_length_c                         10.057013
_cell_angle_alpha                      89.980431
_cell_angle_beta                       89.999214
_cell_angle_gamma                      60.013401
_cell_volume                           778.747942
_space_group_name_H-M_alt              'P 1'
_space_group_IT_number                 1

loop_
_space_group_symop_operation_xyz
   'x, y, z'

loop_
   _atom_site_label
   _atom_site_occupancy
   _atom_site_fract_x
   _atom_site_fract_y
   _atom_site_fract_z
   _atom_site_adp_type
   _atom_site_U_iso_or_equiv
   _atom_site_type_symbol
   Al1        1.0     0.111246     0.094472     0.317044    Uiso  ? Al
   Al2        1.0     0.222393     0.205089     0.066129    Uiso  ? Al
   Al3        1.0     0.777824     0.093552     0.814466    Uiso  ? Al
   Al4        1.0     0.889828     0.203538     0.566970    Uiso  ? Al
   Al5        1.0     0.444137     0.094827     0.317086    Uiso  ? Al
   Al6        1.0     0.556103     0.199558     0.064726    Uiso  ? Al
   Al7        1.0     0.112072     0.094533     0.814289    Uiso  ? Al
   Al8        1.0     0.220417     0.206639     0.566522    Uiso  ? Al
   Al9        1.0     0.777973     0.093897     0.316836    Uiso  ? Al
   Al10       1.0     0.894499     0.199928     0.064815    Uiso  ? Al
   Al11       1.0     0.443580     0.095008     0.814858    Uiso  ? Al
   Al12       1.0     0.557154     0.204672     0.566482    Uiso  ? Al
   Al13       1.0     0.111831     0.428292     0.315340    Uiso  ? Al
   Al14       1.0     0.216883     0.538866     0.065845    Uiso  ? Al
   Al15       1.0     0.781570     0.426289     0.809559    Uiso  ? Al
   Al16       1.0     0.890939     0.538071     0.566658    Uiso  ? Al
   Al17       1.0     0.439850     0.424899     0.320663    Uiso  ? Al
   Al18       1.0     0.110704     0.426127     0.814728    Uiso  ? Al
   Al19       1.0     0.784693     0.424319     0.322336    Uiso  ? Al
   Al20       1.0     0.894119     0.538777     0.065042    Uiso  ? Al
   Al21       1.0     0.443839     0.425080     0.809611    Uiso  ? Al
   Al22       1.0     0.556159     0.537186     0.563864    Uiso  ? Al
   Al23       1.0     0.111237     0.760135     0.315260    Uiso  ? Al
   Al24       1.0     0.216694     0.878264     0.065014    Uiso  ? Al
   Al25       1.0     0.778259     0.761248     0.815215    Uiso  ? Al
   Al26       1.0     0.889961     0.872907     0.566472    Uiso  ? Al
   Al27       1.0     0.440774     0.767860     0.322426    Uiso  ? Al
   Al28       1.0     0.555453     0.877845     0.065087    Uiso  ? Al
   Al29       1.0     0.109686     0.763056     0.814878    Uiso  ? Al
   Al30       1.0     0.218466     0.873886     0.566648    Uiso  ? Al
   Al31       1.0     0.778390     0.761132     0.317102    Uiso  ? Al
   Al32       1.0     0.888555     0.872495     0.065873    Uiso  ? Al
   Al33       1.0     0.442337     0.764977     0.810236    Uiso  ? Al
   Al34       1.0     0.556566     0.873157     0.566282    Uiso  ? Al
   Hf1        1.0     0.556051     0.539359     0.073315    Uiso  ? Hf
   Mg1        1.0     0.219767     0.540143     0.567589    Uiso  ? Mg
   N1         1.0     0.222161     0.205504     0.374249    Uiso  ? N
   N2         1.0     0.111158     0.094972     0.125878    Uiso  ? N
   N3         1.0     0.888688     0.206017     0.874030    Uiso  ? N
   N4         1.0     0.777663     0.093865     0.624764    Uiso  ? N
   N5         1.0     0.556658     0.203490     0.375284    Uiso  ? N
   N6         1.0     0.444053     0.094556     0.125887    Uiso  ? N
   N7         1.0     0.223109     0.204100     0.876433    Uiso  ? N
   N8         1.0     0.111672     0.094335     0.624797    Uiso  ? N
   N9         1.0     0.889871     0.203472     0.376245    Uiso  ? N
   N10        1.0     0.777623     0.095297     0.124793    Uiso  ? N
   N11        1.0     0.555809     0.204763     0.875133    Uiso  ? N
   N12        1.0     0.444194     0.094429     0.624811    Uiso  ? N
   N13        1.0     0.220081     0.540098     0.362902    Uiso  ? N
   N14        1.0     0.110921     0.426086     0.123506    Uiso  ? N
   N15        1.0     0.887171     0.539451     0.875592    Uiso  ? N
   N16        1.0     0.777712     0.428005     0.620423    Uiso  ? N
   N17        1.0     0.555794     0.538898     0.365861    Uiso  ? N
   N18        1.0     0.437241     0.417345     0.127739    Uiso  ? N
   N19        1.0     0.222665     0.538675     0.874026    Uiso  ? N
   N20        1.0     0.103726     0.419826     0.629497    Uiso  ? N
   N21        1.0     0.889861     0.539843     0.375482    Uiso  ? N
   N22        1.0     0.796933     0.417701     0.130586    Uiso  ? N
   N23        1.0     0.556158     0.539770     0.866762    Uiso  ? N
   N24        1.0     0.458833     0.420317     0.624491    Uiso  ? N
   N25        1.0     0.220059     0.873408     0.375537    Uiso  ? N
   N26        1.0     0.111115     0.762437     0.122555    Uiso  ? N
   N27        1.0     0.887425     0.872796     0.876529    Uiso  ? N
   N28        1.0     0.777918     0.761227     0.624906    Uiso  ? N
   N29        1.0     0.556592     0.873224     0.376003    Uiso  ? N
   N30        1.0     0.434840     0.780467     0.130728    Uiso  ? N
   N31        1.0     0.223555     0.872550     0.875503    Uiso  ? N
   N32        1.0     0.103176     0.776266     0.629450    Uiso  ? N
   N33        1.0     0.888763     0.872405     0.373949    Uiso  ? N
   N34        1.0     0.777097     0.760636     0.125021    Uiso  ? N
   N35        1.0     0.555291     0.872018     0.874413    Uiso  ? N
   N36        1.0     0.444393     0.761299     0.620589    Uiso  ? N
