
#======================================================================
# CRYSTAL DATA
#----------------------------------------------------------------------
data_VESTA_phase_1

_chemical_name_common                  'Al   Hf   Mg   N                      '
_cell_length_a                         9.453908
_cell_length_b                         9.456443
_cell_length_c                         10.057016
_cell_angle_alpha                      90.019470
_cell_angle_beta                       90.000725
_cell_angle_gamma                      60.013184
_cell_volume                           778.747396
_space_group_name_H-M_alt              'P 1'
_space_group_IT_number                 1

loop_
_space_group_symop_operation_xyz
   'x, y, z'

loop_
   _atom_site_label
   _atom_site_occupancy
   _atom_site_fract_x
   _atom_site_fract_y
   _atom_site_fract_z
   _atom_site_adp_type
   _atom_site_U_iso_or_equiv
   _atom_site_type_symbol
   Al1        1.0     0.112073     0.094528     0.397961    Uiso  ? Al
   Al2        1.0     0.222393     0.205082     0.146115    Uiso  ? Al
   Al3        1.0     0.777972     0.093893     0.895407    Uiso  ? Al
   Al4        1.0     0.889826     0.203535     0.645271    Uiso  ? Al
   Al5        1.0     0.443579     0.095003     0.397391    Uiso  ? Al
   Al6        1.0     0.556102     0.199551     0.147520    Uiso  ? Al
   Al7        1.0     0.111245     0.094466     0.895197    Uiso  ? Al
   Al8        1.0     0.220417     0.206635     0.645725    Uiso  ? Al
   Al9        1.0     0.777824     0.093545     0.397784    Uiso  ? Al
   Al10       1.0     0.894500     0.199920     0.147433    Uiso  ? Al
   Al11       1.0     0.444137     0.094822     0.895155    Uiso  ? Al
   Al12       1.0     0.557153     0.204668     0.645760    Uiso  ? Al
   Al13       1.0     0.110705     0.426121     0.397517    Uiso  ? Al
   Al14       1.0     0.216883     0.538860     0.146402    Uiso  ? Al
   Al15       1.0     0.784694     0.424313     0.889910    Uiso  ? Al
   Al16       1.0     0.890938     0.538064     0.645585    Uiso  ? Al
   Al17       1.0     0.443840     0.425075     0.402625    Uiso  ? Al
   Al18       1.0     0.111830     0.428288     0.896909    Uiso  ? Al
   Al19       1.0     0.781569     0.426284     0.402676    Uiso  ? Al
   Al20       1.0     0.894119     0.538773     0.147206    Uiso  ? Al
   Al21       1.0     0.439849     0.424894     0.891575    Uiso  ? Al
   Al22       1.0     0.556159     0.537181     0.648374    Uiso  ? Al
   Al23       1.0     0.109685     0.763051     0.397368    Uiso  ? Al
   Al24       1.0     0.216693     0.878260     0.147234    Uiso  ? Al
   Al25       1.0     0.778390     0.761126     0.895140    Uiso  ? Al
   Al26       1.0     0.889962     0.872901     0.645776    Uiso  ? Al
   Al27       1.0     0.442337     0.764971     0.401999    Uiso  ? Al
   Al28       1.0     0.555454     0.877840     0.147160    Uiso  ? Al
   Al29       1.0     0.111237     0.760129     0.896989    Uiso  ? Al
   Al30       1.0     0.218468     0.873878     0.645594    Uiso  ? Al
   Al31       1.0     0.778259     0.761243     0.397034    Uiso  ? Al
   Al32       1.0     0.888554     0.872490     0.146372    Uiso  ? Al
   Al33       1.0     0.440773     0.767856     0.889821    Uiso  ? Al
   Al34       1.0     0.556565     0.873150     0.645961    Uiso  ? Al
   Hf1        1.0     0.556050     0.539352     0.138920    Uiso  ? Hf
   Mg1        1.0     0.219767     0.540137     0.644652    Uiso  ? Mg
   N1         1.0     0.223109     0.204094     0.335812    Uiso  ? N
   N2         1.0     0.111157     0.094966     0.086365    Uiso  ? N
   N3         1.0     0.889870     0.203468     0.835996    Uiso  ? N
   N4         1.0     0.777663     0.093859     0.587482    Uiso  ? N
   N5         1.0     0.555810     0.204756     0.337113    Uiso  ? N
   N6         1.0     0.444053     0.094550     0.086356    Uiso  ? N
   N7         1.0     0.222160     0.205500     0.837997    Uiso  ? N
   N8         1.0     0.111673     0.094329     0.587451    Uiso  ? N
   N9         1.0     0.888689     0.206009     0.338216    Uiso  ? N
   N10        1.0     0.777623     0.095293     0.087451    Uiso  ? N
   N11        1.0     0.556658     0.203485     0.836957    Uiso  ? N
   N12        1.0     0.444193     0.094424     0.587436    Uiso  ? N
   N13        1.0     0.222664     0.538670     0.338218    Uiso  ? N
   N14        1.0     0.110921     0.426081     0.088741    Uiso  ? N
   N15        1.0     0.889860     0.539836     0.836761    Uiso  ? N
   N16        1.0     0.777711     0.428001     0.591813    Uiso  ? N
   N17        1.0     0.556157     0.539764     0.345472    Uiso  ? N
   N18        1.0     0.437240     0.417337     0.084501    Uiso  ? N
   N19        1.0     0.220079     0.540093     0.849340    Uiso  ? N
   N20        1.0     0.103726     0.419820     0.582747    Uiso  ? N
   N21        1.0     0.887171     0.539447     0.336654    Uiso  ? N
   N22        1.0     0.796935     0.417695     0.081660    Uiso  ? N
   N23        1.0     0.555794     0.538893     0.846381    Uiso  ? N
   N24        1.0     0.458833     0.420312     0.587746    Uiso  ? N
   N25        1.0     0.223553     0.872546     0.336743    Uiso  ? N
   N26        1.0     0.111116     0.762432     0.089692    Uiso  ? N
   N27        1.0     0.888763     0.872399     0.838297    Uiso  ? N
   N28        1.0     0.777919     0.761222     0.587341    Uiso  ? N
   N29        1.0     0.555292     0.872013     0.337833    Uiso  ? N
   N30        1.0     0.434839     0.780464     0.081518    Uiso  ? N
   N31        1.0     0.220060     0.873401     0.836706    Uiso  ? N
   N32        1.0     0.103175     0.776262     0.582794    Uiso  ? N
   N33        1.0     0.887424     0.872791     0.335717    Uiso  ? N
   N34        1.0     0.777097     0.760630     0.087223    Uiso  ? N
   N35        1.0     0.556591     0.873218     0.836240    Uiso  ? N
   N36        1.0     0.444393     0.761293     0.591647    Uiso  ? N
