
#======================================================================
# CRYSTAL DATA
#----------------------------------------------------------------------
data_VESTA_phase_1

_chemical_name_common                  'Al   Hf   Mg   N                      '
_cell_length_a                         9.667263
_cell_length_b                         9.671323
_cell_length_c                         9.449875
_cell_angle_alpha                      89.983910
_cell_angle_beta                       90.005455
_cell_angle_gamma                      60.022038
_cell_volume                           765.318956
_space_group_name_H-M_alt              'P 1'
_space_group_IT_number                 1

loop_
_space_group_symop_operation_xyz
   'x, y, z'

loop_
   _atom_site_label
   _atom_site_occupancy
   _atom_site_fract_x
   _atom_site_fract_y
   _atom_site_fract_z
   _atom_site_adp_type
   _atom_site_U_iso_or_equiv
   _atom_site_type_symbol
   Al1        1.0     0.110837     0.094468     0.330006    Uiso  ? Al
   Al2        1.0     0.222125     0.205637     0.081605    Uiso  ? Al
   Al3        1.0     0.777837     0.093060     0.829871    Uiso  ? Al
   Al4        1.0     0.890510     0.202115     0.582360    Uiso  ? Al
   Al5        1.0     0.444848     0.094061     0.330297    Uiso  ? Al
   Al6        1.0     0.555371     0.200839     0.079101    Uiso  ? Al
   Al7        1.0     0.112806     0.094632     0.829161    Uiso  ? Al
   Al8        1.0     0.220860     0.205413     0.578829    Uiso  ? Al
   Al9        1.0     0.778021     0.094129     0.329785    Uiso  ? Al
   Al10       1.0     0.893913     0.200805     0.077777    Uiso  ? Al
   Al11       1.0     0.442832     0.095599     0.829332    Uiso  ? Al
   Al12       1.0     0.558788     0.202196     0.580488    Uiso  ? Al
   Al13       1.0     0.111659     0.428411     0.331936    Uiso  ? Al
   Al14       1.0     0.217612     0.538423     0.084245    Uiso  ? Al
   Al15       1.0     0.780321     0.427168     0.823678    Uiso  ? Al
   Al16       1.0     0.890389     0.539335     0.580379    Uiso  ? Al
   Al17       1.0     0.438859     0.423501     0.342243    Uiso  ? Al
   Al18       1.0     0.111055     0.425566     0.827864    Uiso  ? Al
   Al19       1.0     0.787663     0.422575     0.339546    Uiso  ? Al
   Al20       1.0     0.894042     0.537888     0.079686    Uiso  ? Al
   Al21       1.0     0.444214     0.425802     0.822114    Uiso  ? Al
   Al22       1.0     0.557113     0.537816     0.575996    Uiso  ? Al
   Al23       1.0     0.111157     0.760406     0.331612    Uiso  ? Al
   Al24       1.0     0.217309     0.877454     0.079492    Uiso  ? Al
   Al25       1.0     0.778755     0.761094     0.830527    Uiso  ? Al
   Al26       1.0     0.888718     0.873741     0.578801    Uiso  ? Al
   Al27       1.0     0.439710     0.771098     0.339577    Uiso  ? Al
   Al28       1.0     0.554964     0.877204     0.078124    Uiso  ? Al
   Al29       1.0     0.109417     0.763176     0.828707    Uiso  ? Al
   Al30       1.0     0.217467     0.875345     0.580447    Uiso  ? Al
   Al31       1.0     0.777669     0.761463     0.330000    Uiso  ? Al
   Al32       1.0     0.889087     0.872178     0.081865    Uiso  ? Al
   Al33       1.0     0.442783     0.763679     0.824203    Uiso  ? Al
   Al34       1.0     0.557479     0.873683     0.581706    Uiso  ? Al
   Hf1        1.0     0.555533     0.538819     0.099108    Uiso  ? Hf
   Mg1        1.0     0.218187     0.541260     0.586708    Uiso  ? Mg
   N1         1.0     0.222824     0.204391     0.375942    Uiso  ? N
   N2         1.0     0.110580     0.094890     0.128095    Uiso  ? N
   N3         1.0     0.888711     0.206316     0.875659    Uiso  ? N
   N4         1.0     0.778000     0.093131     0.628804    Uiso  ? N
   N5         1.0     0.557728     0.201365     0.378728    Uiso  ? N
   N6         1.0     0.444658     0.093913     0.128300    Uiso  ? N
   N7         1.0     0.223091     0.204462     0.880493    Uiso  ? N
   N8         1.0     0.112080     0.094533     0.628472    Uiso  ? N
   N9         1.0     0.890467     0.202296     0.380623    Uiso  ? N
   N10        1.0     0.777496     0.095928     0.127165    Uiso  ? N
   N11        1.0     0.555241     0.205455     0.877560    Uiso  ? N
   N12        1.0     0.443652     0.094875     0.628127    Uiso  ? N
   N13        1.0     0.219160     0.540697     0.367602    Uiso  ? N
   N14        1.0     0.110428     0.426191     0.128282    Uiso  ? N
   N15        1.0     0.887536     0.538997     0.878388    Uiso  ? N
   N16        1.0     0.777488     0.428263     0.621637    Uiso  ? N
   N17        1.0     0.556266     0.539676     0.365359    Uiso  ? N
   N18        1.0     0.436874     0.416257     0.133982    Uiso  ? N
   N19        1.0     0.222845     0.538457     0.876785    Uiso  ? N
   N20        1.0     0.103731     0.418893     0.629993    Uiso  ? N
   N21        1.0     0.889318     0.541082     0.378663    Uiso  ? N
   N22        1.0     0.798154     0.416548     0.134636    Uiso  ? N
   N23        1.0     0.555991     0.539668     0.874519    Uiso  ? N
   N24        1.0     0.459468     0.420326     0.622269    Uiso  ? N
   N25        1.0     0.219552     0.874452     0.378850    Uiso  ? N
   N26        1.0     0.111358     0.762619     0.127311    Uiso  ? N
   N27        1.0     0.887686     0.872575     0.881180    Uiso  ? N
   N28        1.0     0.778603     0.761474     0.628780    Uiso  ? N
   N29        1.0     0.557243     0.873797     0.380373    Uiso  ? N
   N30        1.0     0.434264     0.781805     0.134749    Uiso  ? N
   N31        1.0     0.223843     0.872339     0.878207    Uiso  ? N
   N32        1.0     0.101936     0.777559     0.630588    Uiso  ? N
   N33        1.0     0.887716     0.872861     0.375404    Uiso  ? N
   N34        1.0     0.776510     0.760436     0.127441    Uiso  ? N
   N35        1.0     0.554983     0.872057     0.876073    Uiso  ? N
   N36        1.0     0.444588     0.760852     0.621687    Uiso  ? N
