
#======================================================================
# CRYSTAL DATA
#----------------------------------------------------------------------
data_VESTA_phase_1

_chemical_name_common                  'Al   Hf   Mg   N                      '
_cell_length_a                         9.889234
_cell_length_b                         9.894573
_cell_length_c                         8.753499
_cell_angle_alpha                      89.989784
_cell_angle_beta                       90.004585
_cell_angle_gamma                      60.026356
_cell_volume                           741.971603
_space_group_name_H-M_alt              'P 1'
_space_group_IT_number                 1

loop_
_space_group_symop_operation_xyz
   'x, y, z'

loop_
   _atom_site_label
   _atom_site_occupancy
   _atom_site_fract_x
   _atom_site_fract_y
   _atom_site_fract_z
   _atom_site_adp_type
   _atom_site_U_iso_or_equiv
   _atom_site_type_symbol
   Al1        1.0     0.111022     0.094559     0.341129    Uiso  ? Al
   Al2        1.0     0.221750     0.206432     0.093699    Uiso  ? Al
   Al3        1.0     0.777860     0.092995     0.842521    Uiso  ? Al
   Al4        1.0     0.890987     0.201291     0.593858    Uiso  ? Al
   Al5        1.0     0.444737     0.093924     0.341687    Uiso  ? Al
   Al6        1.0     0.555341     0.201637     0.092063    Uiso  ? Al
   Al7        1.0     0.112788     0.094735     0.841562    Uiso  ? Al
   Al8        1.0     0.221433     0.204414     0.589887    Uiso  ? Al
   Al9        1.0     0.777873     0.094286     0.340915    Uiso  ? Al
   Al10       1.0     0.893145     0.201404     0.089832    Uiso  ? Al
   Al11       1.0     0.442725     0.095693     0.841389    Uiso  ? Al
   Al12       1.0     0.559299     0.200918     0.592035    Uiso  ? Al
   Al13       1.0     0.111490     0.427660     0.347470    Uiso  ? Al
   Al14       1.0     0.217852     0.538665     0.101137    Uiso  ? Al
   Al15       1.0     0.782837     0.425851     0.833666    Uiso  ? Al
   Al16       1.0     0.889773     0.540228     0.591446    Uiso  ? Al
   Al17       1.0     0.440686     0.424224     0.360811    Uiso  ? Al
   Al18       1.0     0.111754     0.426147     0.838225    Uiso  ? Al
   Al19       1.0     0.785498     0.423641     0.354838    Uiso  ? Al
   Al20       1.0     0.893983     0.537577     0.092711    Uiso  ? Al
   Al21       1.0     0.441825     0.425079     0.832189    Uiso  ? Al
   Al22       1.0     0.557317     0.538083     0.594796    Uiso  ? Al
   Al23       1.0     0.110942     0.761150     0.346740    Uiso  ? Al
   Al24       1.0     0.217550     0.876353     0.092335    Uiso  ? Al
   Al25       1.0     0.778887     0.761022     0.843246    Uiso  ? Al
   Al26       1.0     0.887657     0.874120     0.589803    Uiso  ? Al
   Al27       1.0     0.440845     0.769204     0.354721    Uiso  ? Al
   Al28       1.0     0.555047     0.876450     0.090161    Uiso  ? Al
   Al29       1.0     0.109953     0.761939     0.839494    Uiso  ? Al
   Al30       1.0     0.217222     0.876307     0.591533    Uiso  ? Al
   Al31       1.0     0.777274     0.761523     0.340705    Uiso  ? Al
   Al32       1.0     0.889881     0.871827     0.094250    Uiso  ? Al
   Al33       1.0     0.441524     0.766172     0.833905    Uiso  ? Al
   Al34       1.0     0.557825     0.874093     0.593440    Uiso  ? Al
   Hf1        1.0     0.555199     0.538587     0.104810    Uiso  ? Hf
   Mg1        1.0     0.217931     0.541453     0.598298    Uiso  ? Mg
   N1         1.0     0.223334     0.203584     0.363782    Uiso  ? N
   N2         1.0     0.110528     0.094914     0.115545    Uiso  ? N
   N3         1.0     0.888906     0.205922     0.863339    Uiso  ? N
   N4         1.0     0.778158     0.093022     0.617375    Uiso  ? N
   N5         1.0     0.557375     0.201759     0.366079    Uiso  ? N
   N6         1.0     0.444637     0.093791     0.115947    Uiso  ? N
   N7         1.0     0.222916     0.204928     0.868666    Uiso  ? N
   N8         1.0     0.111849     0.094805     0.617278    Uiso  ? N
   N9         1.0     0.890278     0.202743     0.368922    Uiso  ? N
   N10        1.0     0.777631     0.095840     0.114892    Uiso  ? N
   N11        1.0     0.555388     0.204974     0.865423    Uiso  ? N
   N12        1.0     0.443590     0.094945     0.616551    Uiso  ? N
   N13        1.0     0.220524     0.539972     0.353652    Uiso  ? N
   N14        1.0     0.110328     0.426083     0.117498    Uiso  ? N
   N15        1.0     0.888301     0.538880     0.866153    Uiso  ? N
   N16        1.0     0.779129     0.427186     0.609599    Uiso  ? N
   N17        1.0     0.556270     0.540155     0.363153    Uiso  ? N
   N18        1.0     0.438482     0.417843     0.118942    Uiso  ? N
   N19        1.0     0.222101     0.538781     0.867018    Uiso  ? N
   N20        1.0     0.104580     0.419526     0.614392    Uiso  ? N
   N21        1.0     0.888290     0.541355     0.366205    Uiso  ? N
   N22        1.0     0.794971     0.418039     0.120818    Uiso  ? N
   N23        1.0     0.556053     0.539894     0.855511    Uiso  ? N
   N24        1.0     0.457608     0.419980     0.608067    Uiso  ? N
   N25        1.0     0.220508     0.874559     0.366536    Uiso  ? N
   N26        1.0     0.111118     0.762906     0.116517    Uiso  ? N
   N27        1.0     0.888085     0.872391     0.869817    Uiso  ? N
   N28        1.0     0.778683     0.761568     0.617557    Uiso  ? N
   N29        1.0     0.557039     0.873572     0.368679    Uiso  ? N
   N30        1.0     0.435754     0.778718     0.120854    Uiso  ? N
   N31        1.0     0.223180     0.872457     0.865937    Uiso  ? N
   N32        1.0     0.102435     0.776256     0.615145    Uiso  ? N
   N33        1.0     0.886935     0.873048     0.362567    Uiso  ? N
   N34        1.0     0.776486     0.760508     0.114833    Uiso  ? N
   N35        1.0     0.555084     0.872391     0.863683    Uiso  ? N
   N36        1.0     0.443735     0.762537     0.609611    Uiso  ? N
