
#======================================================================
# CRYSTAL DATA
#----------------------------------------------------------------------
data_VESTA_phase_1

_chemical_name_common                  'Al   Hf   Mg   N                      '
_cell_length_a                         9.453906
_cell_length_b                         9.456440
_cell_length_c                         10.057031
_cell_angle_alpha                      89.980537
_cell_angle_beta                       89.999290
_cell_angle_gamma                      60.013191
_cell_volume                           778.748171
_space_group_name_H-M_alt              'P 1'
_space_group_IT_number                 1

loop_
_space_group_symop_operation_xyz
   'x, y, z'

loop_
   _atom_site_label
   _atom_site_occupancy
   _atom_site_fract_x
   _atom_site_fract_y
   _atom_site_fract_z
   _atom_site_adp_type
   _atom_site_U_iso_or_equiv
   _atom_site_type_symbol
   Al1        1.0     0.111246     0.094476     0.299965    Uiso  ? Al
   Al2        1.0     0.222393     0.205093     0.049049    Uiso  ? Al
   Al3        1.0     0.777824     0.093556     0.797385    Uiso  ? Al
   Al4        1.0     0.889828     0.203543     0.549890    Uiso  ? Al
   Al5        1.0     0.444137     0.094832     0.300007    Uiso  ? Al
   Al6        1.0     0.556103     0.199562     0.047646    Uiso  ? Al
   Al7        1.0     0.112072     0.094538     0.797208    Uiso  ? Al
   Al8        1.0     0.220417     0.206643     0.549442    Uiso  ? Al
   Al9        1.0     0.777973     0.093901     0.299756    Uiso  ? Al
   Al10       1.0     0.894499     0.199932     0.047735    Uiso  ? Al
   Al11       1.0     0.443580     0.095012     0.797778    Uiso  ? Al
   Al12       1.0     0.557154     0.204676     0.549402    Uiso  ? Al
   Al13       1.0     0.111831     0.428297     0.298259    Uiso  ? Al
   Al14       1.0     0.216883     0.538870     0.048765    Uiso  ? Al
   Al15       1.0     0.781571     0.426294     0.792479    Uiso  ? Al
   Al16       1.0     0.890939     0.538075     0.549578    Uiso  ? Al
   Al17       1.0     0.439851     0.424904     0.303582    Uiso  ? Al
   Al18       1.0     0.110704     0.426131     0.797649    Uiso  ? Al
   Al19       1.0     0.784693     0.424323     0.305255    Uiso  ? Al
   Al20       1.0     0.894119     0.538781     0.047962    Uiso  ? Al
   Al21       1.0     0.443839     0.425085     0.792531    Uiso  ? Al
   Al22       1.0     0.556159     0.537190     0.546784    Uiso  ? Al
   Al23       1.0     0.111237     0.760139     0.298180    Uiso  ? Al
   Al24       1.0     0.216694     0.878268     0.047934    Uiso  ? Al
   Al25       1.0     0.778259     0.761252     0.798135    Uiso  ? Al
   Al26       1.0     0.889961     0.872911     0.549392    Uiso  ? Al
   Al27       1.0     0.440774     0.767864     0.305345    Uiso  ? Al
   Al28       1.0     0.555454     0.877849     0.048007    Uiso  ? Al
   Al29       1.0     0.109686     0.763060     0.797798    Uiso  ? Al
   Al30       1.0     0.218466     0.873890     0.549569    Uiso  ? Al
   Al31       1.0     0.778391     0.761136     0.300022    Uiso  ? Al
   Al32       1.0     0.888555     0.872499     0.048793    Uiso  ? Al
   Al33       1.0     0.442337     0.764982     0.793155    Uiso  ? Al
   Al34       1.0     0.556566     0.873161     0.549202    Uiso  ? Al
   Hf1        1.0     0.556051     0.539363     0.056234    Uiso  ? Hf
   Mg1        1.0     0.219767     0.540147     0.550508    Uiso  ? Mg
   N1         1.0     0.222161     0.205508     0.357170    Uiso  ? N
   N2         1.0     0.111158     0.094976     0.108798    Uiso  ? N
   N3         1.0     0.888688     0.206021     0.856950    Uiso  ? N
   N4         1.0     0.777663     0.093870     0.607684    Uiso  ? N
   N5         1.0     0.556658     0.203495     0.358205    Uiso  ? N
   N6         1.0     0.444053     0.094560     0.108808    Uiso  ? N
   N7         1.0     0.223109     0.204104     0.859354    Uiso  ? N
   N8         1.0     0.111672     0.094339     0.607717    Uiso  ? N
   N9         1.0     0.889871     0.203477     0.359166    Uiso  ? N
   N10        1.0     0.777624     0.095302     0.107714    Uiso  ? N
   N11        1.0     0.555809     0.204767     0.858053    Uiso  ? N
   N12        1.0     0.444194     0.094434     0.607731    Uiso  ? N
   N13        1.0     0.220081     0.540102     0.345822    Uiso  ? N
   N14        1.0     0.110922     0.426091     0.106426    Uiso  ? N
   N15        1.0     0.887171     0.539455     0.858512    Uiso  ? N
   N16        1.0     0.777712     0.428010     0.603343    Uiso  ? N
   N17        1.0     0.555794     0.538902     0.348782    Uiso  ? N
   N18        1.0     0.437242     0.417349     0.110659    Uiso  ? N
   N19        1.0     0.222665     0.538679     0.856947    Uiso  ? N
   N20        1.0     0.103726     0.419831     0.612418    Uiso  ? N
   N21        1.0     0.889861     0.539847     0.358403    Uiso  ? N
   N22        1.0     0.796932     0.417706     0.113506    Uiso  ? N
   N23        1.0     0.556157     0.539774     0.849681    Uiso  ? N
   N24        1.0     0.458833     0.420321     0.607411    Uiso  ? N
   N25        1.0     0.220060     0.873412     0.358457    Uiso  ? N
   N26        1.0     0.111116     0.762442     0.105475    Uiso  ? N
   N27        1.0     0.887425     0.872801     0.859449    Uiso  ? N
   N28        1.0     0.777919     0.761231     0.607826    Uiso  ? N
   N29        1.0     0.556592     0.873229     0.358923    Uiso  ? N
   N30        1.0     0.434841     0.780471     0.113648    Uiso  ? N
   N31        1.0     0.223555     0.872554     0.858423    Uiso  ? N
   N32        1.0     0.103176     0.776270     0.612371    Uiso  ? N
   N33        1.0     0.888763     0.872409     0.356869    Uiso  ? N
   N34        1.0     0.777098     0.760640     0.107941    Uiso  ? N
   N35        1.0     0.555292     0.872022     0.857333    Uiso  ? N
   N36        1.0     0.444393     0.761303     0.603510    Uiso  ? N
