
#======================================================================
# CRYSTAL DATA
#----------------------------------------------------------------------
data_VESTA_phase_1

_chemical_name_common                  'Al   Hf   Mg   N                      '
_cell_length_a                         9.453906
_cell_length_b                         9.456439
_cell_length_c                         10.057014
_cell_angle_alpha                      89.980507
_cell_angle_beta                       89.999252
_cell_angle_gamma                      60.013210
_cell_volume                           778.746913
_space_group_name_H-M_alt              'P 1'
_space_group_IT_number                 1

loop_
_space_group_symop_operation_xyz
   'x, y, z'

loop_
   _atom_site_label
   _atom_site_occupancy
   _atom_site_fract_x
   _atom_site_fract_y
   _atom_site_fract_z
   _atom_site_adp_type
   _atom_site_U_iso_or_equiv
   _atom_site_type_symbol
   Al1        1.0     0.111246     0.094475     0.303182    Uiso  ? Al
   Al2        1.0     0.222393     0.205092     0.052265    Uiso  ? Al
   Al3        1.0     0.777824     0.093555     0.800601    Uiso  ? Al
   Al4        1.0     0.889827     0.203543     0.553109    Uiso  ? Al
   Al5        1.0     0.444137     0.094831     0.303224    Uiso  ? Al
   Al6        1.0     0.556102     0.199561     0.050863    Uiso  ? Al
   Al7        1.0     0.112073     0.094537     0.800423    Uiso  ? Al
   Al8        1.0     0.220417     0.206643     0.552656    Uiso  ? Al
   Al9        1.0     0.777973     0.093901     0.302973    Uiso  ? Al
   Al10       1.0     0.894499     0.199930     0.050952    Uiso  ? Al
   Al11       1.0     0.443580     0.095011     0.800992    Uiso  ? Al
   Al12       1.0     0.557154     0.204676     0.552621    Uiso  ? Al
   Al13       1.0     0.111831     0.428296     0.301474    Uiso  ? Al
   Al14       1.0     0.216884     0.538869     0.051981    Uiso  ? Al
   Al15       1.0     0.781570     0.426293     0.795706    Uiso  ? Al
   Al16       1.0     0.890939     0.538074     0.552796    Uiso  ? Al
   Al17       1.0     0.439849     0.424904     0.306811    Uiso  ? Al
   Al18       1.0     0.110704     0.426130     0.800864    Uiso  ? Al
   Al19       1.0     0.784693     0.424322     0.308477    Uiso  ? Al
   Al20       1.0     0.894119     0.538781     0.051177    Uiso  ? Al
   Al21       1.0     0.443840     0.425083     0.795759    Uiso  ? Al
   Al22       1.0     0.556159     0.537190     0.550014    Uiso  ? Al
   Al23       1.0     0.111237     0.760138     0.301395    Uiso  ? Al
   Al24       1.0     0.216694     0.878268     0.051150    Uiso  ? Al
   Al25       1.0     0.778259     0.761251     0.801348    Uiso  ? Al
   Al26       1.0     0.889961     0.872911     0.552606    Uiso  ? Al
   Al27       1.0     0.440774     0.767864     0.308566    Uiso  ? Al
   Al28       1.0     0.555454     0.877849     0.051223    Uiso  ? Al
   Al29       1.0     0.109686     0.763060     0.801013    Uiso  ? Al
   Al30       1.0     0.218467     0.873889     0.552787    Uiso  ? Al
   Al31       1.0     0.778390     0.761135     0.303239    Uiso  ? Al
   Al32       1.0     0.888555     0.872498     0.052008    Uiso  ? Al
   Al33       1.0     0.442337     0.764981     0.796383    Uiso  ? Al
   Al34       1.0     0.556565     0.873159     0.552420    Uiso  ? Al
   Hf1        1.0     0.556050     0.539361     0.059463    Uiso  ? Hf
   Mg1        1.0     0.219768     0.540146     0.553732    Uiso  ? Mg
   N1         1.0     0.222161     0.205508     0.360386    Uiso  ? N
   N2         1.0     0.111158     0.094975     0.112016    Uiso  ? N
   N3         1.0     0.888689     0.206019     0.860168    Uiso  ? N
   N4         1.0     0.777663     0.093868     0.610902    Uiso  ? N
   N5         1.0     0.556659     0.203493     0.361425    Uiso  ? N
   N6         1.0     0.444053     0.094559     0.112025    Uiso  ? N
   N7         1.0     0.223109     0.204103     0.862570    Uiso  ? N
   N8         1.0     0.111673     0.094338     0.610933    Uiso  ? N
   N9         1.0     0.889871     0.203476     0.362385    Uiso  ? N
   N10        1.0     0.777624     0.095301     0.110931    Uiso  ? N
   N11        1.0     0.555810     0.204765     0.861272    Uiso  ? N
   N12        1.0     0.444194     0.094433     0.610947    Uiso  ? N
   N13        1.0     0.220079     0.540102     0.349045    Uiso  ? N
   N14        1.0     0.110922     0.426090     0.109643    Uiso  ? N
   N15        1.0     0.887172     0.539455     0.861729    Uiso  ? N
   N16        1.0     0.777713     0.428009     0.606568    Uiso  ? N
   N17        1.0     0.555794     0.538902     0.352007    Uiso  ? N
   N18        1.0     0.437240     0.417347     0.113884    Uiso  ? N
   N19        1.0     0.222664     0.538679     0.860165    Uiso  ? N
   N20        1.0     0.103726     0.419829     0.615634    Uiso  ? N
   N21        1.0     0.889861     0.539846     0.361621    Uiso  ? N
   N22        1.0     0.796934     0.417704     0.116727    Uiso  ? N
   N23        1.0     0.556158     0.539773     0.852910    Uiso  ? N
   N24        1.0     0.458834     0.420320     0.610638    Uiso  ? N
   N25        1.0     0.220059     0.873411     0.361676    Uiso  ? N
   N26        1.0     0.111116     0.762440     0.108692    Uiso  ? N
   N27        1.0     0.887425     0.872800     0.862665    Uiso  ? N
   N28        1.0     0.777919     0.761230     0.611042    Uiso  ? N
   N29        1.0     0.556592     0.873228     0.362141    Uiso  ? N
   N30        1.0     0.434840     0.780472     0.116868    Uiso  ? N
   N31        1.0     0.223553     0.872554     0.861641    Uiso  ? N
   N32        1.0     0.103175     0.776271     0.615587    Uiso  ? N
   N33        1.0     0.888763     0.872409     0.360085    Uiso  ? N
   N34        1.0     0.777098     0.760639     0.111158    Uiso  ? N
   N35        1.0     0.555293     0.872022     0.860551    Uiso  ? N
   N36        1.0     0.444393     0.761303     0.606736    Uiso  ? N
