
#======================================================================
# CRYSTAL DATA
#----------------------------------------------------------------------
data_VESTA_phase_1

_chemical_name_common                  'Al   Hf   Mg   N                      '
_cell_length_a                         9.848480
_cell_length_b                         9.853765
_cell_length_c                         8.883101
_cell_angle_alpha                      89.988098
_cell_angle_beta                       90.005447
_cell_angle_gamma                      60.026337
_cell_volume                           746.761338
_space_group_name_H-M_alt              'P 1'
_space_group_IT_number                 1

loop_
_space_group_symop_operation_xyz
   'x, y, z'

loop_
   _atom_site_label
   _atom_site_occupancy
   _atom_site_fract_x
   _atom_site_fract_y
   _atom_site_fract_z
   _atom_site_adp_type
   _atom_site_U_iso_or_equiv
   _atom_site_type_symbol
   Al1        1.0     0.110883     0.094526     0.338010    Uiso  ? Al
   Al2        1.0     0.221800     0.206333     0.090826    Uiso  ? Al
   Al3        1.0     0.777872     0.092910     0.839486    Uiso  ? Al
   Al4        1.0     0.891025     0.201207     0.591115    Uiso  ? Al
   Al5        1.0     0.444900     0.093823     0.338572    Uiso  ? Al
   Al6        1.0     0.555275     0.201627     0.088732    Uiso  ? Al
   Al7        1.0     0.112905     0.094727     0.838569    Uiso  ? Al
   Al8        1.0     0.221360     0.204477     0.586743    Uiso  ? Al
   Al9        1.0     0.777898     0.094329     0.337800    Uiso  ? Al
   Al10       1.0     0.893218     0.201437     0.086518    Uiso  ? Al
   Al11       1.0     0.442612     0.095784     0.838386    Uiso  ? Al
   Al12       1.0     0.559397     0.200799     0.588958    Uiso  ? Al
   Al13       1.0     0.111432     0.427817     0.343795    Uiso  ? Al
   Al14       1.0     0.217904     0.538573     0.098520    Uiso  ? Al
   Al15       1.0     0.782257     0.426203     0.830816    Uiso  ? Al
   Al16       1.0     0.889883     0.540240     0.588433    Uiso  ? Al
   Al17       1.0     0.440463     0.424021     0.357754    Uiso  ? Al
   Al18       1.0     0.111660     0.425939     0.835386    Uiso  ? Al
   Al19       1.0     0.786011     0.423338     0.351783    Uiso  ? Al
   Al20       1.0     0.893979     0.537499     0.089435    Uiso  ? Al
   Al21       1.0     0.442305     0.425285     0.829248    Uiso  ? Al
   Al22       1.0     0.557348     0.538129     0.590569    Uiso  ? Al
   Al23       1.0     0.110964     0.761116     0.343078    Uiso  ? Al
   Al24       1.0     0.217617     0.876482     0.089067    Uiso  ? Al
   Al25       1.0     0.778962     0.761016     0.840249    Uiso  ? Al
   Al26       1.0     0.887744     0.874111     0.586618    Uiso  ? Al
   Al27       1.0     0.440629     0.769701     0.351666    Uiso  ? Al
   Al28       1.0     0.554929     0.876534     0.086874    Uiso  ? Al
   Al29       1.0     0.109783     0.762221     0.836630    Uiso  ? Al
   Al30       1.0     0.217076     0.876319     0.588538    Uiso  ? Al
   Al31       1.0     0.777232     0.761549     0.337659    Uiso  ? Al
   Al32       1.0     0.889783     0.871879     0.091386    Uiso  ? Al
   Al33       1.0     0.441768     0.765576     0.831130    Uiso  ? Al
   Al34       1.0     0.557885     0.874108     0.590609    Uiso  ? Al
   Hf1        1.0     0.555252     0.538604     0.104342    Uiso  ? Hf
   Mg1        1.0     0.217743     0.541550     0.595959    Uiso  ? Mg
   N1         1.0     0.223299     0.203591     0.366642    Uiso  ? N
   N2         1.0     0.110468     0.094905     0.118523    Uiso  ? N
   N3         1.0     0.888804     0.206157     0.866202    Uiso  ? N
   N4         1.0     0.778160     0.092935     0.620502    Uiso  ? N
   N5         1.0     0.557645     0.201332     0.369303    Uiso  ? N
   N6         1.0     0.444720     0.093747     0.118942    Uiso  ? N
   N7         1.0     0.222928     0.204915     0.871848    Uiso  ? N
   N8         1.0     0.111970     0.094761     0.620315    Uiso  ? N
   N9         1.0     0.890417     0.202417     0.372090    Uiso  ? N
   N10        1.0     0.777598     0.095936     0.117786    Uiso  ? N
   N11        1.0     0.555238     0.205269     0.868383    Uiso  ? N
   N12        1.0     0.443511     0.094986     0.619594    Uiso  ? N
   N13        1.0     0.220122     0.540213     0.356330    Uiso  ? N
   N14        1.0     0.110256     0.426065     0.120531    Uiso  ? N
   N15        1.0     0.888164     0.538769     0.869255    Uiso  ? N
   N16        1.0     0.778871     0.427388     0.611866    Uiso  ? N
   N17        1.0     0.556326     0.540142     0.363515    Uiso  ? N
   N18        1.0     0.438317     0.417426     0.123236    Uiso  ? N
   N19        1.0     0.222342     0.538651     0.869112    Uiso  ? N
   N20        1.0     0.104407     0.419285     0.617910    Uiso  ? N
   N21        1.0     0.888437     0.541516     0.369344    Uiso  ? N
   N22        1.0     0.795652     0.417650     0.124758    Uiso  ? N
   N23        1.0     0.556010     0.539808     0.859520    Uiso  ? N
   N24        1.0     0.457920     0.420007     0.610157    Uiso  ? N
   N25        1.0     0.220162     0.874710     0.369670    Uiso  ? N
   N26        1.0     0.111158     0.762968     0.119479    Uiso  ? N
   N27        1.0     0.888078     0.872388     0.872958    Uiso  ? N
   N28        1.0     0.778750     0.761572     0.620647    Uiso  ? N
   N29        1.0     0.557222     0.873706     0.371835    Uiso  ? N
   N30        1.0     0.435438     0.779401     0.124801    Uiso  ? N
   N31        1.0     0.223443     0.872329     0.869026    Uiso  ? N
   N32        1.0     0.102201     0.776653     0.618746    Uiso  ? N
   N33        1.0     0.886962     0.873073     0.365529    Uiso  ? N
   N34        1.0     0.776415     0.760478     0.117785    Uiso  ? N
   N35        1.0     0.554961     0.872274     0.866590    Uiso  ? N
   N36        1.0     0.443856     0.762261     0.611889    Uiso  ? N
