
#======================================================================
# CRYSTAL DATA
#----------------------------------------------------------------------
data_VESTA_phase_1

_chemical_name_common                  'Al   Hf   Mg   N '
_cell_length_a                         9.453833
_cell_length_b                         9.456354
_cell_length_c                         10.057184
_cell_angle_alpha                      90.019104
_cell_angle_beta                       90.000824
_cell_angle_gamma                      60.013168
_cell_volume                           778.746766
_space_group_name_H-M_alt              'P 1'
_space_group_IT_number                 1

loop_
_space_group_symop_operation_xyz
   'x, y, z'

loop_
   _atom_site_label
   _atom_site_occupancy
   _atom_site_fract_x
   _atom_site_fract_y
   _atom_site_fract_z
   _atom_site_adp_type
   _atom_site_U_iso_or_equiv
   _atom_site_type_symbol
   Al1        1.0     0.112078     0.094532     0.414582    Uiso  ? Al
   Al2        1.0     0.222383     0.205076     0.162739    Uiso  ? Al
   Al3        1.0     0.777968     0.093887     0.912029    Uiso  ? Al
   Al4        1.0     0.889836     0.203535     0.661900    Uiso  ? Al
   Al5        1.0     0.443591     0.094993     0.414009    Uiso  ? Al
   Al6        1.0     0.556095     0.199534     0.164140    Uiso  ? Al
   Al7        1.0     0.111234     0.094472     0.911820    Uiso  ? Al
   Al8        1.0     0.220428     0.206634     0.662340    Uiso  ? Al
   Al9        1.0     0.777837     0.093543     0.414405    Uiso  ? Al
   Al10       1.0     0.894487     0.199920     0.164054    Uiso  ? Al
   Al11       1.0     0.444125     0.094813     0.911777    Uiso  ? Al
   Al12       1.0     0.557169     0.204650     0.662386    Uiso  ? Al
   Al13       1.0     0.110711     0.426123     0.414136    Uiso  ? Al
   Al14       1.0     0.216874     0.538849     0.163020    Uiso  ? Al
   Al15       1.0     0.784667     0.424322     0.906539    Uiso  ? Al
   Al16       1.0     0.890950     0.538063     0.662213    Uiso  ? Al
   Al17       1.0     0.443846     0.425056     0.419268    Uiso  ? Al
   Al18       1.0     0.111816     0.428284     0.913537    Uiso  ? Al
   Al19       1.0     0.781586     0.426280     0.419315    Uiso  ? Al
   Al20       1.0     0.894101     0.538770     0.163829    Uiso  ? Al
   Al21       1.0     0.439847     0.424884     0.908197    Uiso  ? Al
   Al22       1.0     0.556166     0.537176     0.664996    Uiso  ? Al
   Al23       1.0     0.109700     0.763050     0.413987    Uiso  ? Al
   Al24       1.0     0.216684     0.878260     0.163855    Uiso  ? Al
   Al25       1.0     0.778383     0.761126     0.911764    Uiso  ? Al
   Al26       1.0     0.889978     0.872898     0.662392    Uiso  ? Al
   Al27       1.0     0.442341     0.764977     0.418638    Uiso  ? Al
   Al28       1.0     0.555446     0.877826     0.163783    Uiso  ? Al
   Al29       1.0     0.111231     0.760131     0.913616    Uiso  ? Al
   Al30       1.0     0.218476     0.873885     0.662221    Uiso  ? Al
   Al31       1.0     0.778269     0.761241     0.413657    Uiso  ? Al
   Al32       1.0     0.888549     0.872483     0.162997    Uiso  ? Al
   Al33       1.0     0.440768     0.767840     0.906448    Uiso  ? Al
   Al34       1.0     0.556577     0.873144     0.662589    Uiso  ? Al
   Hf1        1.0     0.556030     0.539342     0.155595    Uiso  ? Hf
   Mg1        1.0     0.219772     0.540139     0.661290    Uiso  ? Mg
   N1         1.0     0.223116     0.204094     0.352430    Uiso  ? N
   N2         1.0     0.111144     0.094967     0.102984    Uiso  ? N
   N3         1.0     0.889856     0.203473     0.852624    Uiso  ? N
   N4         1.0     0.777677     0.093858     0.604101    Uiso  ? N
   N5         1.0     0.555821     0.204745     0.353729    Uiso  ? N
   N6         1.0     0.444040     0.094537     0.102974    Uiso  ? N
   N7         1.0     0.222151     0.205501     0.854613    Uiso  ? N
   N8         1.0     0.111680     0.094332     0.604069    Uiso  ? N
   N9         1.0     0.888694     0.206012     0.354833    Uiso  ? N
   N10        1.0     0.777617     0.095283     0.104069    Uiso  ? N
   N11        1.0     0.556655     0.203470     0.853581    Uiso  ? N
   N12        1.0     0.444208     0.094413     0.604051    Uiso  ? N
   N13        1.0     0.222675     0.538667     0.354835    Uiso  ? N
   N14        1.0     0.110904     0.426075     0.105365    Uiso  ? N
   N15        1.0     0.889847     0.539836     0.853389    Uiso  ? N
   N16        1.0     0.777724     0.427998     0.608446    Uiso  ? N
   N17        1.0     0.556162     0.539759     0.362135    Uiso  ? N
   N18        1.0     0.437233     0.417323     0.101123    Uiso  ? N
   N19        1.0     0.220070     0.540091     0.865978    Uiso  ? N
   N20        1.0     0.103734     0.419825     0.599363    Uiso  ? N
   N21        1.0     0.887175     0.539447     0.353272    Uiso  ? N
   N22        1.0     0.796897     0.417704     0.098288    Uiso  ? N
   N23        1.0     0.555779     0.538888     0.862988    Uiso  ? N
   N24        1.0     0.458842     0.420297     0.604383    Uiso  ? N
   N25        1.0     0.223561     0.872550     0.353360    Uiso  ? N
   N26        1.0     0.111110     0.762426     0.106317    Uiso  ? N
   N27        1.0     0.888760     0.872396     0.854915    Uiso  ? N
   N28        1.0     0.777931     0.761218     0.603962    Uiso  ? N
   N29        1.0     0.555302     0.872005     0.354451    Uiso  ? N
   N30        1.0     0.434837     0.780436     0.098145    Uiso  ? N
   N31        1.0     0.220051     0.873404     0.853333    Uiso  ? N
   N32        1.0     0.103194     0.776260     0.599411    Uiso  ? N
   N33        1.0     0.887436     0.872787     0.352338    Uiso  ? N
   N34        1.0     0.777090     0.760627     0.103844    Uiso  ? N
   N35        1.0     0.556585     0.873209     0.852867    Uiso  ? N
   N36        1.0     0.444402     0.761293     0.608280    Uiso  ? N
