
#======================================================================
# CRYSTAL DATA
#----------------------------------------------------------------------
data_VESTA_phase_1

_chemical_name_common                  'Al   Hf   Mg   N                      '
_cell_length_a                         9.927892
_cell_length_b                         9.933208
_cell_length_c                         8.631777
_cell_angle_alpha                      89.991867
_cell_angle_beta                       90.003456
_cell_angle_gamma                      60.026211
_cell_volume                           737.381183
_space_group_name_H-M_alt              'P 1'
_space_group_IT_number                 1

loop_
_space_group_symop_operation_xyz
   'x, y, z'

loop_
   _atom_site_label
   _atom_site_occupancy
   _atom_site_fract_x
   _atom_site_fract_y
   _atom_site_fract_z
   _atom_site_adp_type
   _atom_site_U_iso_or_equiv
   _atom_site_type_symbol
   Al1        1.0     0.111232     0.094602     0.344910    Uiso  ? Al
   Al2        1.0     0.221728     0.206460     0.096853    Uiso  ? Al
   Al3        1.0     0.777838     0.093155     0.845923    Uiso  ? Al
   Al4        1.0     0.890874     0.201507     0.596887    Uiso  ? Al
   Al5        1.0     0.444486     0.094114     0.345384    Uiso  ? Al
   Al6        1.0     0.555434     0.201589     0.095814    Uiso  ? Al
   Al7        1.0     0.112599     0.094730     0.844932    Uiso  ? Al
   Al8        1.0     0.221459     0.204462     0.593739    Uiso  ? Al
   Al9        1.0     0.777857     0.094167     0.344653    Uiso  ? Al
   Al10       1.0     0.893119     0.201295     0.093808    Uiso  ? Al
   Al11       1.0     0.442929     0.095519     0.844835    Uiso  ? Al
   Al12       1.0     0.559133     0.201188     0.595602    Uiso  ? Al
   Al13       1.0     0.111591     0.427491     0.351269    Uiso  ? Al
   Al14       1.0     0.217779     0.538760     0.102985    Uiso  ? Al
   Al15       1.0     0.783386     0.425483     0.837051    Uiso  ? Al
   Al16       1.0     0.889712     0.540088     0.595030    Uiso  ? Al
   Al17       1.0     0.440784     0.424385     0.363254    Uiso  ? Al
   Al18       1.0     0.111812     0.426403     0.841598    Uiso  ? Al
   Al19       1.0     0.785070     0.423943     0.357685    Uiso  ? Al
   Al20       1.0     0.893966     0.537738     0.096360    Uiso  ? Al
   Al21       1.0     0.441390     0.424880     0.835422    Uiso  ? Al
   Al22       1.0     0.557278     0.538002     0.598544    Uiso  ? Al
   Al23       1.0     0.110893     0.761150     0.350575    Uiso  ? Al
   Al24       1.0     0.217438     0.876301     0.096015    Uiso  ? Al
   Al25       1.0     0.778728     0.761040     0.846533    Uiso  ? Al
   Al26       1.0     0.887680     0.874083     0.593743    Uiso  ? Al
   Al27       1.0     0.440987     0.768765     0.357587    Uiso  ? Al
   Al28       1.0     0.555213     0.876399     0.094086    Uiso  ? Al
   Al29       1.0     0.110170     0.761652     0.842832    Uiso  ? Al
   Al30       1.0     0.217441     0.876175     0.595090    Uiso  ? Al
   Al31       1.0     0.777414     0.761479     0.344426    Uiso  ? Al
   Al32       1.0     0.889905     0.871804     0.097328    Uiso  ? Al
   Al33       1.0     0.441323     0.766756     0.837209    Uiso  ? Al
   Al34       1.0     0.557696     0.874026     0.596586    Uiso  ? Al
   Hf1        1.0     0.555155     0.538576     0.104956    Uiso  ? Hf
   Mg1        1.0     0.218171     0.541328     0.600488    Uiso  ? Mg
   N1         1.0     0.223322     0.203693     0.360633    Uiso  ? N
   N2         1.0     0.110626     0.094923     0.112250    Uiso  ? N
   N3         1.0     0.889051     0.205590     0.860224    Uiso  ? N
   N4         1.0     0.778141     0.093167     0.613656    Uiso  ? N
   N5         1.0     0.557041     0.202292     0.362455    Uiso  ? N
   N6         1.0     0.444516     0.093877     0.112567    Uiso  ? N
   N7         1.0     0.222933     0.204859     0.864901    Uiso  ? N
   N8         1.0     0.111690     0.094836     0.613639    Uiso  ? N
   N9         1.0     0.890085     0.203188     0.365172    Uiso  ? N
   N10        1.0     0.777663     0.095697     0.111705    Uiso  ? N
   N11        1.0     0.555593     0.204594     0.862110    Uiso  ? N
   N12        1.0     0.443726     0.094864     0.613003    Uiso  ? N
   N13        1.0     0.220892     0.539736     0.351244    Uiso  ? N
   N14        1.0     0.110417     0.426093     0.113829    Uiso  ? N
   N15        1.0     0.888392     0.539094     0.862621    Uiso  ? N
   N16        1.0     0.779327     0.427002     0.607559    Uiso  ? N
   N17        1.0     0.556212     0.540150     0.362761    Uiso  ? N
   N18        1.0     0.438604     0.418220     0.114295    Uiso  ? N
   N19        1.0     0.221854     0.538927     0.865075    Uiso  ? N
   N20        1.0     0.104726     0.419805     0.610847    Uiso  ? N
   N21        1.0     0.888218     0.541058     0.362657    Uiso  ? N
   N22        1.0     0.794336     0.418439     0.116186    Uiso  ? N
   N23        1.0     0.556098     0.539990     0.852009    Uiso  ? N
   N24        1.0     0.457360     0.419977     0.606460    Uiso  ? N
   N25        1.0     0.220913     0.874304     0.362970    Uiso  ? N
   N26        1.0     0.111050     0.762843     0.113000    Uiso  ? N
   N27        1.0     0.888016     0.872427     0.866041    Uiso  ? N
   N28        1.0     0.778570     0.761543     0.613829    Uiso  ? N
   N29        1.0     0.556776     0.873405     0.364946    Uiso  ? N
   N30        1.0     0.436038     0.778068     0.116217    Uiso  ? N
   N31        1.0     0.222856     0.872666     0.862427    Uiso  ? N
   N32        1.0     0.102718     0.775843     0.611430    Uiso  ? N
   N33        1.0     0.887011     0.872978     0.359372    Uiso  ? N
   N34        1.0     0.776607     0.760537     0.111632    Uiso  ? N
   N35        1.0     0.555278     0.872533     0.860503    Uiso  ? N
   N36        1.0     0.443658     0.762754     0.607557    Uiso  ? N
