
#======================================================================
# CRYSTAL DATA
#----------------------------------------------------------------------
data_VESTA_phase_1

_chemical_name_common                  'Al   Hf   Mg   N '
_cell_length_a                         9.453106
_cell_length_b                         9.455632
_cell_length_c                         10.057222
_cell_angle_alpha                      89.980980
_cell_angle_beta                       89.999573
_cell_angle_gamma                      60.012909
_cell_volume                           778.628376
_space_group_name_H-M_alt              'P 1'
_space_group_IT_number                 1

loop_
_space_group_symop_operation_xyz
   'x, y, z'

loop_
   _atom_site_label
   _atom_site_occupancy
   _atom_site_fract_x
   _atom_site_fract_y
   _atom_site_fract_z
   _atom_site_adp_type
   _atom_site_U_iso_or_equiv
   _atom_site_type_symbol
   Al1        1.0     0.111239     0.094480     0.296779    Uiso  ? Al
   Al2        1.0     0.222382     0.205094     0.045861    Uiso  ? Al
   Al3        1.0     0.777832     0.093557     0.794188    Uiso  ? Al
   Al4        1.0     0.889836     0.203549     0.546698    Uiso  ? Al
   Al5        1.0     0.444134     0.094826     0.296812    Uiso  ? Al
   Al6        1.0     0.556099     0.199554     0.044441    Uiso  ? Al
   Al7        1.0     0.112078     0.094547     0.794018    Uiso  ? Al
   Al8        1.0     0.220426     0.206651     0.546254    Uiso  ? Al
   Al9        1.0     0.777973     0.093897     0.296560    Uiso  ? Al
   Al10       1.0     0.894487     0.199932     0.044533    Uiso  ? Al
   Al11       1.0     0.443583     0.095012     0.794586    Uiso  ? Al
   Al12       1.0     0.557161     0.204670     0.546206    Uiso  ? Al
   Al13       1.0     0.111825     0.428295     0.295057    Uiso  ? Al
   Al14       1.0     0.216879     0.538866     0.045563    Uiso  ? Al
   Al15       1.0     0.781572     0.426297     0.789284    Uiso  ? Al
   Al16       1.0     0.890948     0.538077     0.546389    Uiso  ? Al
   Al17       1.0     0.439855     0.424893     0.300379    Uiso  ? Al
   Al18       1.0     0.110707     0.426139     0.794461    Uiso  ? Al
   Al19       1.0     0.784684     0.424326     0.302045    Uiso  ? Al
   Al20       1.0     0.894105     0.538789     0.044763    Uiso  ? Al
   Al21       1.0     0.443835     0.425084     0.789319    Uiso  ? Al
   Al22       1.0     0.556163     0.537189     0.543581    Uiso  ? Al
   Al23       1.0     0.111237     0.760139     0.294978    Uiso  ? Al
   Al24       1.0     0.216678     0.878281     0.044735    Uiso  ? Al
   Al25       1.0     0.778268     0.761256     0.794941    Uiso  ? Al
   Al26       1.0     0.889978     0.872910     0.546202    Uiso  ? Al
   Al27       1.0     0.440771     0.767861     0.302136    Uiso  ? Al
   Al28       1.0     0.555444     0.877855     0.044807    Uiso  ? Al
   Al29       1.0     0.109692     0.763064     0.794607    Uiso  ? Al
   Al30       1.0     0.218480     0.873888     0.546382    Uiso  ? Al
   Al31       1.0     0.778390     0.761135     0.296835    Uiso  ? Al
   Al32       1.0     0.888546     0.872500     0.045601    Uiso  ? Al
   Al33       1.0     0.442341     0.764982     0.789960    Uiso  ? Al
   Al34       1.0     0.556578     0.873154     0.546011    Uiso  ? Al
   Hf1        1.0     0.556036     0.539362     0.053004    Uiso  ? Hf
   Mg1        1.0     0.219764     0.540154     0.547295    Uiso  ? Mg
   N1         1.0     0.222159     0.205511     0.353989    Uiso  ? N
   N2         1.0     0.111143     0.094982     0.105619    Uiso  ? N
   N3         1.0     0.888691     0.206025     0.853762    Uiso  ? N
   N4         1.0     0.777673     0.093871     0.604499    Uiso  ? N
   N5         1.0     0.556660     0.203485     0.355016    Uiso  ? N
   N6         1.0     0.444043     0.094559     0.105621    Uiso  ? N
   N7         1.0     0.223112     0.204111     0.856175    Uiso  ? N
   N8         1.0     0.111684     0.094345     0.604535    Uiso  ? N
   N9         1.0     0.889862     0.203483     0.355978    Uiso  ? N
   N10        1.0     0.777618     0.095299     0.104525    Uiso  ? N
   N11        1.0     0.555814     0.204768     0.854858    Uiso  ? N
   N12        1.0     0.444204     0.094428     0.604550    Uiso  ? N
   N13        1.0     0.220079     0.540100     0.342621    Uiso  ? N
   N14        1.0     0.110908     0.426097     0.103236    Uiso  ? N
   N15        1.0     0.887170     0.539462     0.855329    Uiso  ? N
   N16        1.0     0.777719     0.428012     0.600158    Uiso  ? N
   N17        1.0     0.555789     0.538901     0.345586    Uiso  ? N
   N18        1.0     0.437237     0.417344     0.107465    Uiso  ? N
   N19        1.0     0.222669     0.538683     0.853761    Uiso  ? N
   N20        1.0     0.103739     0.419835     0.609239    Uiso  ? N
   N21        1.0     0.889857     0.539843     0.355215    Uiso  ? N
   N22        1.0     0.796916     0.417714     0.110306    Uiso  ? N
   N23        1.0     0.556155     0.539771     0.846471    Uiso  ? N
   N24        1.0     0.458829     0.420320     0.604208    Uiso  ? N
   N25        1.0     0.220060     0.873411     0.355271    Uiso  ? N
   N26        1.0     0.111111     0.762440     0.102284    Uiso  ? N
   N27        1.0     0.887430     0.872804     0.856270    Uiso  ? N
   N28        1.0     0.777931     0.761236     0.604644    Uiso  ? N
   N29        1.0     0.556591     0.873221     0.355736    Uiso  ? N
   N30        1.0     0.434829     0.780474     0.110450    Uiso  ? N
   N31        1.0     0.223556     0.872562     0.855240    Uiso  ? N
   N32        1.0     0.103192     0.776269     0.609191    Uiso  ? N
   N33        1.0     0.888768     0.872405     0.353686    Uiso  ? N
   N34        1.0     0.777087     0.760643     0.104759    Uiso  ? N
   N35        1.0     0.555299     0.872020     0.854147    Uiso  ? N
   N36        1.0     0.444406     0.761302     0.600326    Uiso  ? N
