
#======================================================================
# CRYSTAL DATA
#----------------------------------------------------------------------
data_VESTA_phase_1

_chemical_name_common                  'Al   Hf   Mg   N                      '
_cell_length_a                         9.512301
_cell_length_b                         9.514953
_cell_length_c                         9.900023
_cell_angle_alpha                      90.017181
_cell_angle_beta                       89.997406
_cell_angle_gamma                      60.015026
_cell_volume                           776.112716
_space_group_name_H-M_alt              'P 1'
_space_group_IT_number                 1

loop_
_space_group_symop_operation_xyz
   'x, y, z'

loop_
   _atom_site_label
   _atom_site_occupancy
   _atom_site_fract_x
   _atom_site_fract_y
   _atom_site_fract_z
   _atom_site_adp_type
   _atom_site_U_iso_or_equiv
   _atom_site_type_symbol
   Al1        1.0     0.112340     0.094561     0.384256    Uiso  ? Al
   Al2        1.0     0.222330     0.205192     0.132019    Uiso  ? Al
   Al3        1.0     0.777977     0.094005     0.882025    Uiso  ? Al
   Al4        1.0     0.889926     0.203320     0.631098    Uiso  ? Al
   Al5        1.0     0.443330     0.095194     0.383766    Uiso  ? Al
   Al6        1.0     0.555856     0.199731     0.133923    Uiso  ? Al
   Al7        1.0     0.111100     0.094445     0.881860    Uiso  ? Al
   Al8        1.0     0.220516     0.206321     0.632720    Uiso  ? Al
   Al9        1.0     0.777840     0.093370     0.383865    Uiso  ? Al
   Al10       1.0     0.894497     0.199989     0.134309    Uiso  ? Al
   Al11       1.0     0.444383     0.094590     0.881748    Uiso  ? Al
   Al12       1.0     0.557593     0.204208     0.631969    Uiso  ? Al
   Al13       1.0     0.110705     0.425801     0.384126    Uiso  ? Al
   Al14       1.0     0.216923     0.538693     0.132428    Uiso  ? Al
   Al15       1.0     0.786441     0.423368     0.875888    Uiso  ? Al
   Al16       1.0     0.890720     0.538359     0.631886    Uiso  ? Al
   Al17       1.0     0.444488     0.425461     0.388703    Uiso  ? Al
   Al18       1.0     0.111844     0.428513     0.882589    Uiso  ? Al
   Al19       1.0     0.780601     0.426854     0.388347    Uiso  ? Al
   Al20       1.0     0.894199     0.538548     0.133558    Uiso  ? Al
   Al21       1.0     0.438837     0.424171     0.876422    Uiso  ? Al
   Al22       1.0     0.556499     0.537336     0.636433    Uiso  ? Al
   Al23       1.0     0.109461     0.763343     0.383736    Uiso  ? Al
   Al24       1.0     0.216732     0.878167     0.133611    Uiso  ? Al
   Al25       1.0     0.778186     0.761230     0.881738    Uiso  ? Al
   Al26       1.0     0.889632     0.873208     0.632696    Uiso  ? Al
   Al27       1.0     0.442787     0.763995     0.387698    Uiso  ? Al
   Al28       1.0     0.555326     0.877779     0.134018    Uiso  ? Al
   Al29       1.0     0.111323     0.759970     0.882655    Uiso  ? Al
   Al30       1.0     0.218320     0.874191     0.631877    Uiso  ? Al
   Al31       1.0     0.778422     0.761232     0.383179    Uiso  ? Al
   Al32       1.0     0.888661     0.872389     0.132112    Uiso  ? Al
   Al33       1.0     0.440054     0.769638     0.875774    Uiso  ? Al
   Al34       1.0     0.556797     0.873221     0.631777    Uiso  ? Al
   Hf1        1.0     0.555841     0.539122     0.119395    Uiso  ? Hf
   Mg1        1.0     0.219489     0.540419     0.628700    Uiso  ? Mg
   N1         1.0     0.223140     0.204129     0.324206    Uiso  ? N
   N2         1.0     0.110947     0.094907     0.075272    Uiso  ? N
   N3         1.0     0.890093     0.203094     0.824232    Uiso  ? N
   N4         1.0     0.777761     0.093660     0.576002    Uiso  ? N
   N5         1.0     0.555699     0.204849     0.326038    Uiso  ? N
   N6         1.0     0.444280     0.094288     0.075212    Uiso  ? N
   N7         1.0     0.222329     0.205235     0.827229    Uiso  ? N
   N8         1.0     0.111862     0.094385     0.576141    Uiso  ? N
   N9         1.0     0.888761     0.206010     0.327436    Uiso  ? N
   N10        1.0     0.777530     0.095562     0.076292    Uiso  ? N
   N11        1.0     0.556941     0.202886     0.825406    Uiso  ? N
   N12        1.0     0.444001     0.094633     0.576192    Uiso  ? N
   N13        1.0     0.222673     0.538624     0.327429    Uiso  ? N
   N14        1.0     0.110800     0.426236     0.076994    Uiso  ? N
   N15        1.0     0.889784     0.540190     0.825316    Uiso  ? N
   N16        1.0     0.777184     0.428390     0.580735    Uiso  ? N
   N17        1.0     0.556136     0.539727     0.330282    Uiso  ? N
   N18        1.0     0.436370     0.416548     0.072262    Uiso  ? N
   N19        1.0     0.219637     0.540338     0.836500    Uiso  ? N
   N20        1.0     0.103599     0.419357     0.572065    Uiso  ? N
   N21        1.0     0.887258     0.539394     0.325507    Uiso  ? N
   N22        1.0     0.798322     0.416821     0.070173    Uiso  ? N
   N23        1.0     0.555930     0.539069     0.838176    Uiso  ? N
   N24        1.0     0.459646     0.420483     0.577300    Uiso  ? N
   N25        1.0     0.223609     0.872550     0.325605    Uiso  ? N
   N26        1.0     0.111331     0.762263     0.077905    Uiso  ? N
   N27        1.0     0.888486     0.872556     0.827496    Uiso  ? N
   N28        1.0     0.778170     0.761333     0.575940    Uiso  ? N
   N29        1.0     0.555254     0.872062     0.327054    Uiso  ? N
   N30        1.0     0.434187     0.781858     0.070019    Uiso  ? N
   N31        1.0     0.219855     0.873713     0.825237    Uiso  ? N
   N32        1.0     0.102615     0.776996     0.571883    Uiso  ? N
   N33        1.0     0.887437     0.872764     0.323924    Uiso  ? N
   N34        1.0     0.776865     0.760540     0.076015    Uiso  ? N
   N35        1.0     0.556781     0.873439     0.824467    Uiso  ? N
   N36        1.0     0.444731     0.760651     0.580607    Uiso  ? N
