
#======================================================================
# CRYSTAL DATA
#----------------------------------------------------------------------
data_VESTA_phase_1

_chemical_name_common                  'Al   Hf   Mg   N                      '
_cell_length_a                         9.453917
_cell_length_b                         9.456451
_cell_length_c                         10.056999
_cell_angle_alpha                      90.019600
_cell_angle_beta                       90.000710
_cell_angle_gamma                      60.013226
_cell_volume                           778.747809
_space_group_name_H-M_alt              'P 1'
_space_group_IT_number                 1

loop_
_space_group_symop_operation_xyz
   'x, y, z'

loop_
   _atom_site_label
   _atom_site_occupancy
   _atom_site_fract_x
   _atom_site_fract_y
   _atom_site_fract_z
   _atom_site_adp_type
   _atom_site_U_iso_or_equiv
   _atom_site_type_symbol
   Al1        1.0     0.112072     0.094529     0.394323    Uiso  ? Al
   Al2        1.0     0.222392     0.205084     0.142483    Uiso  ? Al
   Al3        1.0     0.777973     0.093892     0.891776    Uiso  ? Al
   Al4        1.0     0.889828     0.203534     0.641642    Uiso  ? Al
   Al5        1.0     0.443580     0.095003     0.393754    Uiso  ? Al
   Al6        1.0     0.556103     0.199553     0.143886    Uiso  ? Al
   Al7        1.0     0.111246     0.094467     0.891567    Uiso  ? Al
   Al8        1.0     0.220417     0.206635     0.642090    Uiso  ? Al
   Al9        1.0     0.777824     0.093547     0.394147    Uiso  ? Al
   Al10       1.0     0.894498     0.199923     0.143797    Uiso  ? Al
   Al11       1.0     0.444136     0.094823     0.891525    Uiso  ? Al
   Al12       1.0     0.557154     0.204668     0.642130    Uiso  ? Al
   Al13       1.0     0.110704     0.426123     0.393883    Uiso  ? Al
   Al14       1.0     0.216883     0.538861     0.142767    Uiso  ? Al
   Al15       1.0     0.784693     0.424314     0.886277    Uiso  ? Al
   Al16       1.0     0.890939     0.538067     0.641954    Uiso  ? Al
   Al17       1.0     0.443839     0.425076     0.399002    Uiso  ? Al
   Al18       1.0     0.111830     0.428288     0.893272    Uiso  ? Al
   Al19       1.0     0.781570     0.426285     0.399053    Uiso  ? Al
   Al20       1.0     0.894119     0.538772     0.143570    Uiso  ? Al
   Al21       1.0     0.439850     0.424895     0.887950    Uiso  ? Al
   Al22       1.0     0.556159     0.537181     0.644749    Uiso  ? Al
   Al23       1.0     0.109686     0.763052     0.393734    Uiso  ? Al
   Al24       1.0     0.216694     0.878259     0.143598    Uiso  ? Al
   Al25       1.0     0.778390     0.761128     0.891510    Uiso  ? Al
   Al26       1.0     0.889961     0.872903     0.642140    Uiso  ? Al
   Al27       1.0     0.442337     0.764973     0.398377    Uiso  ? Al
   Al28       1.0     0.555453     0.877841     0.143525    Uiso  ? Al
   Al29       1.0     0.111237     0.760130     0.893352    Uiso  ? Al
   Al30       1.0     0.218466     0.873881     0.641963    Uiso  ? Al
   Al31       1.0     0.778259     0.761243     0.393397    Uiso  ? Al
   Al32       1.0     0.888555     0.872491     0.142739    Uiso  ? Al
   Al33       1.0     0.440774     0.767856     0.886187    Uiso  ? Al
   Al34       1.0     0.556566     0.873152     0.642330    Uiso  ? Al
   Hf1        1.0     0.556050     0.539354     0.135298    Uiso  ? Hf
   Mg1        1.0     0.219767     0.540138     0.641024    Uiso  ? Mg
   N1         1.0     0.223109     0.204095     0.332179    Uiso  ? N
   N2         1.0     0.111157     0.094967     0.082734    Uiso  ? N
   N3         1.0     0.889871     0.203468     0.832367    Uiso  ? N
   N4         1.0     0.777663     0.093861     0.583848    Uiso  ? N
   N5         1.0     0.555809     0.204759     0.333480    Uiso  ? N
   N6         1.0     0.444053     0.094551     0.082725    Uiso  ? N
   N7         1.0     0.222161     0.205499     0.834363    Uiso  ? N
   N8         1.0     0.111672     0.094330     0.583816    Uiso  ? N
   N9         1.0     0.888687     0.206012     0.334582    Uiso  ? N
   N10        1.0     0.777623     0.095293     0.083819    Uiso  ? N
   N11        1.0     0.556658     0.203486     0.833328    Uiso  ? N
   N12        1.0     0.444194     0.094425     0.583801    Uiso  ? N
   N13        1.0     0.222665     0.538670     0.334586    Uiso  ? N
   N14        1.0     0.110921     0.426082     0.085106    Uiso  ? N
   N15        1.0     0.889860     0.539838     0.833130    Uiso  ? N
   N16        1.0     0.777712     0.428001     0.588190    Uiso  ? N
   N17        1.0     0.556157     0.539765     0.341851    Uiso  ? N
   N18        1.0     0.437241     0.417340     0.080874    Uiso  ? N
   N19        1.0     0.220081     0.540093     0.845711    Uiso  ? N
   N20        1.0     0.103726     0.419822     0.579115    Uiso  ? N
   N21        1.0     0.887171     0.539446     0.333021    Uiso  ? N
   N22        1.0     0.796932     0.417697     0.078027    Uiso  ? N
   N23        1.0     0.555794     0.538893     0.842752    Uiso  ? N
   N24        1.0     0.458833     0.420313     0.584122    Uiso  ? N
   N25        1.0     0.223555     0.872545     0.333110    Uiso  ? N
   N26        1.0     0.111115     0.762433     0.086057    Uiso  ? N
   N27        1.0     0.888763     0.872400     0.834663    Uiso  ? N
   N28        1.0     0.777919     0.761222     0.583706    Uiso  ? N
   N29        1.0     0.555291     0.872013     0.334199    Uiso  ? N
   N30        1.0     0.434840     0.780462     0.077885    Uiso  ? N
   N31        1.0     0.220059     0.873403     0.833075    Uiso  ? N
   N32        1.0     0.103176     0.776262     0.579162    Uiso  ? N
   N33        1.0     0.887425     0.872792     0.332083    Uiso  ? N
   N34        1.0     0.777097     0.760631     0.083591    Uiso  ? N
   N35        1.0     0.556592     0.873220     0.832609    Uiso  ? N
   N36        1.0     0.444393     0.761294     0.588023    Uiso  ? N
