
#======================================================================
# CRYSTAL DATA
#----------------------------------------------------------------------
data_VESTA_phase_1

_chemical_name_common                  'Al   Hf   Mg   N                      '
_cell_length_a                         9.454241
_cell_length_b                         9.456781
_cell_length_c                         10.056155
_cell_angle_alpha                      89.980614
_cell_angle_beta                       89.999405
_cell_angle_gamma                      60.013187
_cell_volume                           778.736036
_space_group_name_H-M_alt              'P 1'
_space_group_IT_number                 1

loop_
_space_group_symop_operation_xyz
   'x, y, z'

loop_
   _atom_site_label
   _atom_site_occupancy
   _atom_site_fract_x
   _atom_site_fract_y
   _atom_site_fract_z
   _atom_site_adp_type
   _atom_site_U_iso_or_equiv
   _atom_site_type_symbol
   Al1        1.0     0.111245     0.094470     0.320868    Uiso  ? Al
   Al2        1.0     0.222392     0.205087     0.069954    Uiso  ? Al
   Al3        1.0     0.777825     0.093549     0.818284    Uiso  ? Al
   Al4        1.0     0.889827     0.203540     0.570799    Uiso  ? Al
   Al5        1.0     0.444138     0.094825     0.320910    Uiso  ? Al
   Al6        1.0     0.556101     0.199555     0.068547    Uiso  ? Al
   Al7        1.0     0.112075     0.094533     0.818105    Uiso  ? Al
   Al8        1.0     0.220418     0.206638     0.570337    Uiso  ? Al
   Al9        1.0     0.777972     0.093899     0.320659    Uiso  ? Al
   Al10       1.0     0.894500     0.199924     0.068632    Uiso  ? Al
   Al11       1.0     0.443578     0.095008     0.818675    Uiso  ? Al
   Al12       1.0     0.557155     0.204672     0.570309    Uiso  ? Al
   Al13       1.0     0.111830     0.428295     0.319162    Uiso  ? Al
   Al14       1.0     0.216882     0.538863     0.069664    Uiso  ? Al
   Al15       1.0     0.781563     0.426293     0.813399    Uiso  ? Al
   Al16       1.0     0.890937     0.538071     0.570483    Uiso  ? Al
   Al17       1.0     0.439840     0.424895     0.324499    Uiso  ? Al
   Al18       1.0     0.110705     0.426123     0.818547    Uiso  ? Al
   Al19       1.0     0.784705     0.424312     0.326158    Uiso  ? Al
   Al20       1.0     0.894119     0.538776     0.068860    Uiso  ? Al
   Al21       1.0     0.443845     0.425081     0.813450    Uiso  ? Al
   Al22       1.0     0.556161     0.537187     0.567685    Uiso  ? Al
   Al23       1.0     0.111238     0.760131     0.319083    Uiso  ? Al
   Al24       1.0     0.216692     0.878264     0.068833    Uiso  ? Al
   Al25       1.0     0.778261     0.761248     0.819032    Uiso  ? Al
   Al26       1.0     0.889961     0.872908     0.570287    Uiso  ? Al
   Al27       1.0     0.440768     0.767871     0.326248    Uiso  ? Al
   Al28       1.0     0.555454     0.877845     0.068904    Uiso  ? Al
   Al29       1.0     0.109684     0.763058     0.818698    Uiso  ? Al
   Al30       1.0     0.218469     0.873884     0.570473    Uiso  ? Al
   Al31       1.0     0.778388     0.761132     0.320925    Uiso  ? Al
   Al32       1.0     0.888554     0.872494     0.069697    Uiso  ? Al
   Al33       1.0     0.442341     0.764969     0.814076    Uiso  ? Al
   Al34       1.0     0.556566     0.873155     0.570109    Uiso  ? Al
   Hf1        1.0     0.556048     0.539354     0.077188    Uiso  ? Hf
   Mg1        1.0     0.219769     0.540142     0.571431    Uiso  ? Mg
   N1         1.0     0.222161     0.205503     0.378054    Uiso  ? N
   N2         1.0     0.111156     0.094970     0.129689    Uiso  ? N
   N3         1.0     0.888690     0.206013     0.877836    Uiso  ? N
   N4         1.0     0.777664     0.093863     0.628573    Uiso  ? N
   N5         1.0     0.556659     0.203488     0.379100    Uiso  ? N
   N6         1.0     0.444054     0.094552     0.129698    Uiso  ? N
   N7         1.0     0.223110     0.204098     0.880244    Uiso  ? N
   N8         1.0     0.111675     0.094334     0.628603    Uiso  ? N
   N9         1.0     0.889871     0.203471     0.380061    Uiso  ? N
   N10        1.0     0.777622     0.095298     0.128604    Uiso  ? N
   N11        1.0     0.555810     0.204759     0.878942    Uiso  ? N
   N12        1.0     0.444192     0.094430     0.628618    Uiso  ? N
   N13        1.0     0.220076     0.540099     0.366728    Uiso  ? N
   N14        1.0     0.110920     0.426087     0.127316    Uiso  ? N
   N15        1.0     0.887172     0.539452     0.879400    Uiso  ? N
   N16        1.0     0.777708     0.428009     0.624244    Uiso  ? N
   N17        1.0     0.555794     0.538898     0.369654    Uiso  ? N
   N18        1.0     0.437231     0.417335     0.131559    Uiso  ? N
   N19        1.0     0.222664     0.538674     0.877832    Uiso  ? N
   N20        1.0     0.103726     0.419822     0.633304    Uiso  ? N
   N21        1.0     0.889860     0.539843     0.379295    Uiso  ? N
   N22        1.0     0.796947     0.417692     0.134397    Uiso  ? N
   N23        1.0     0.556158     0.539769     0.870615    Uiso  ? N
   N24        1.0     0.458841     0.420318     0.628311    Uiso  ? N
   N25        1.0     0.220059     0.873407     0.379350    Uiso  ? N
   N26        1.0     0.111117     0.762434     0.126366    Uiso  ? N
   N27        1.0     0.887425     0.872796     0.880340    Uiso  ? N
   N28        1.0     0.777921     0.761227     0.628713    Uiso  ? N
   N29        1.0     0.556592     0.873224     0.379818    Uiso  ? N
   N30        1.0     0.434834     0.780479     0.134538    Uiso  ? N
   N31        1.0     0.223553     0.872551     0.879311    Uiso  ? N
   N32        1.0     0.103173     0.776271     0.633259    Uiso  ? N
   N33        1.0     0.888762     0.872405     0.377754    Uiso  ? N
   N34        1.0     0.777096     0.760634     0.128832    Uiso  ? N
   N35        1.0     0.555293     0.872019     0.878219    Uiso  ? N
   N36        1.0     0.444397     0.761293     0.624410    Uiso  ? N
