
#======================================================================
# CRYSTAL DATA
#----------------------------------------------------------------------
data_VESTA_phase_1

_chemical_name_common                  'Al   Hf   Mg   N                      '
_cell_length_a                         9.453910
_cell_length_b                         9.456444
_cell_length_c                         10.057017
_cell_angle_alpha                      90.019447
_cell_angle_beta                       90.000687
_cell_angle_gamma                      60.013138
_cell_volume                           778.747347
_space_group_name_H-M_alt              'P 1'
_space_group_IT_number                 1

loop_
_space_group_symop_operation_xyz
   'x, y, z'

loop_
   _atom_site_label
   _atom_site_occupancy
   _atom_site_fract_x
   _atom_site_fract_y
   _atom_site_fract_z
   _atom_site_adp_type
   _atom_site_U_iso_or_equiv
   _atom_site_type_symbol
   Al1        1.0     0.112072     0.094527     0.401463    Uiso  ? Al
   Al2        1.0     0.222392     0.205083     0.149624    Uiso  ? Al
   Al3        1.0     0.777973     0.093891     0.898917    Uiso  ? Al
   Al4        1.0     0.889828     0.203532     0.648782    Uiso  ? Al
   Al5        1.0     0.443580     0.095001     0.400894    Uiso  ? Al
   Al6        1.0     0.556102     0.199552     0.151025    Uiso  ? Al
   Al7        1.0     0.111246     0.094465     0.898709    Uiso  ? Al
   Al8        1.0     0.220417     0.206632     0.649231    Uiso  ? Al
   Al9        1.0     0.777824     0.093546     0.401286    Uiso  ? Al
   Al10       1.0     0.894498     0.199922     0.150936    Uiso  ? Al
   Al11       1.0     0.444136     0.094821     0.898666    Uiso  ? Al
   Al12       1.0     0.557154     0.204666     0.649270    Uiso  ? Al
   Al13       1.0     0.110704     0.426121     0.401024    Uiso  ? Al
   Al14       1.0     0.216883     0.538859     0.149907    Uiso  ? Al
   Al15       1.0     0.784692     0.424313     0.893412    Uiso  ? Al
   Al16       1.0     0.890939     0.538065     0.649094    Uiso  ? Al
   Al17       1.0     0.443839     0.425073     0.406137    Uiso  ? Al
   Al18       1.0     0.111831     0.428286     0.900413    Uiso  ? Al
   Al19       1.0     0.781571     0.426283     0.406190    Uiso  ? Al
   Al20       1.0     0.894119     0.538770     0.150710    Uiso  ? Al
   Al21       1.0     0.439850     0.424894     0.895084    Uiso  ? Al
   Al22       1.0     0.556158     0.537180     0.651882    Uiso  ? Al
   Al23       1.0     0.109686     0.763050     0.400875    Uiso  ? Al
   Al24       1.0     0.216694     0.878257     0.150738    Uiso  ? Al
   Al25       1.0     0.778390     0.761126     0.898651    Uiso  ? Al
   Al26       1.0     0.889961     0.872901     0.649281    Uiso  ? Al
   Al27       1.0     0.442337     0.764971     0.405513    Uiso  ? Al
   Al28       1.0     0.555453     0.877838     0.150664    Uiso  ? Al
   Al29       1.0     0.111237     0.760128     0.900491    Uiso  ? Al
   Al30       1.0     0.218466     0.873880     0.649104    Uiso  ? Al
   Al31       1.0     0.778259     0.761241     0.400538    Uiso  ? Al
   Al32       1.0     0.888555     0.872488     0.149881    Uiso  ? Al
   Al33       1.0     0.440774     0.767853     0.893323    Uiso  ? Al
   Al34       1.0     0.556566     0.873151     0.649470    Uiso  ? Al
   Hf1        1.0     0.556050     0.539352     0.142434    Uiso  ? Hf
   Mg1        1.0     0.219767     0.540136     0.648160    Uiso  ? Mg
   N1         1.0     0.223108     0.204094     0.339319    Uiso  ? N
   N2         1.0     0.111158     0.094966     0.089875    Uiso  ? N
   N3         1.0     0.889871     0.203465     0.839507    Uiso  ? N
   N4         1.0     0.777663     0.093859     0.590987    Uiso  ? N
   N5         1.0     0.555809     0.204756     0.340618    Uiso  ? N
   N6         1.0     0.444052     0.094550     0.089865    Uiso  ? N
   N7         1.0     0.222161     0.205497     0.841503    Uiso  ? N
   N8         1.0     0.111672     0.094329     0.590955    Uiso  ? N
   N9         1.0     0.888687     0.206010     0.341720    Uiso  ? N
   N10        1.0     0.777623     0.095291     0.090959    Uiso  ? N
   N11        1.0     0.556658     0.203484     0.840467    Uiso  ? N
   N12        1.0     0.444194     0.094423     0.590941    Uiso  ? N
   N13        1.0     0.222665     0.538669     0.341725    Uiso  ? N
   N14        1.0     0.110921     0.426080     0.092246    Uiso  ? N
   N15        1.0     0.889860     0.539837     0.840269    Uiso  ? N
   N16        1.0     0.777713     0.427999     0.595327    Uiso  ? N
   N17        1.0     0.556157     0.539764     0.348987    Uiso  ? N
   N18        1.0     0.437241     0.417338     0.088009    Uiso  ? N
   N19        1.0     0.220080     0.540092     0.852847    Uiso  ? N
   N20        1.0     0.103725     0.419820     0.586255    Uiso  ? N
   N21        1.0     0.887171     0.539445     0.340160    Uiso  ? N
   N22        1.0     0.796932     0.417696     0.085163    Uiso  ? N
   N23        1.0     0.555794     0.538892     0.849885    Uiso  ? N
   N24        1.0     0.458833     0.420310     0.591257    Uiso  ? N
   N25        1.0     0.223554     0.872543     0.340248    Uiso  ? N
   N26        1.0     0.111115     0.762431     0.093196    Uiso  ? N
   N27        1.0     0.888762     0.872399     0.841803    Uiso  ? N
   N28        1.0     0.777919     0.761221     0.590846    Uiso  ? N
   N29        1.0     0.555291     0.872011     0.341338    Uiso  ? N
   N30        1.0     0.434840     0.780460     0.085021    Uiso  ? N
   N31        1.0     0.220059     0.873402     0.840214    Uiso  ? N
   N32        1.0     0.103176     0.776261     0.586302    Uiso  ? N
   N33        1.0     0.887425     0.872790     0.339224    Uiso  ? N
   N34        1.0     0.777098     0.760630     0.090732    Uiso  ? N
   N35        1.0     0.556592     0.873218     0.839749    Uiso  ? N
   N36        1.0     0.444393     0.761294     0.595160    Uiso  ? N
