
#======================================================================
# CRYSTAL DATA
#----------------------------------------------------------------------
data_VESTA_phase_1

_chemical_name_common                  'Al   Hf   Mg   N                      '
_cell_length_a                         9.667351
_cell_length_b                         9.671417
_cell_length_c                         9.449598
_cell_angle_alpha                      90.016090
_cell_angle_beta                       89.994530
_cell_angle_gamma                      60.022148
_cell_volume                           765.311827
_space_group_name_H-M_alt              'P 1'
_space_group_IT_number                 1

loop_
_space_group_symop_operation_xyz
   'x, y, z'

loop_
   _atom_site_label
   _atom_site_occupancy
   _atom_site_fract_x
   _atom_site_fract_y
   _atom_site_fract_z
   _atom_site_adp_type
   _atom_site_U_iso_or_equiv
   _atom_site_type_symbol
   Al1        1.0     0.112806     0.094632     0.379431    Uiso  ? Al
   Al2        1.0     0.222125     0.205638     0.126989    Uiso  ? Al
   Al3        1.0     0.778022     0.094128     0.878808    Uiso  ? Al
   Al4        1.0     0.890509     0.202115     0.626233    Uiso  ? Al
   Al5        1.0     0.442833     0.095599     0.379259    Uiso  ? Al
   Al6        1.0     0.555372     0.200840     0.129489    Uiso  ? Al
   Al7        1.0     0.110837     0.094469     0.878585    Uiso  ? Al
   Al8        1.0     0.220861     0.205413     0.629763    Uiso  ? Al
   Al9        1.0     0.777837     0.093060     0.378719    Uiso  ? Al
   Al10       1.0     0.893913     0.200806     0.130816    Uiso  ? Al
   Al11       1.0     0.444848     0.094061     0.878295    Uiso  ? Al
   Al12       1.0     0.558789     0.202195     0.628105    Uiso  ? Al
   Al13       1.0     0.111055     0.425567     0.380730    Uiso  ? Al
   Al14       1.0     0.217612     0.538423     0.124344    Uiso  ? Al
   Al15       1.0     0.787661     0.422575     0.869044    Uiso  ? Al
   Al16       1.0     0.890388     0.539335     0.628214    Uiso  ? Al
   Al17       1.0     0.444213     0.425801     0.386481    Uiso  ? Al
   Al18       1.0     0.111659     0.428410     0.876656    Uiso  ? Al
   Al19       1.0     0.780321     0.427167     0.384916    Uiso  ? Al
   Al20       1.0     0.894041     0.537888     0.128905    Uiso  ? Al
   Al21       1.0     0.438860     0.423501     0.866348    Uiso  ? Al
   Al22       1.0     0.557112     0.537816     0.632596    Uiso  ? Al
   Al23       1.0     0.109419     0.763175     0.379885    Uiso  ? Al
   Al24       1.0     0.217309     0.877454     0.129098    Uiso  ? Al
   Al25       1.0     0.777670     0.761463     0.878591    Uiso  ? Al
   Al26       1.0     0.888718     0.873742     0.629790    Uiso  ? Al
   Al27       1.0     0.442782     0.763680     0.384391    Uiso  ? Al
   Al28       1.0     0.554964     0.877203     0.130468    Uiso  ? Al
   Al29       1.0     0.111155     0.760408     0.876981    Uiso  ? Al
   Al30       1.0     0.217467     0.875346     0.628145    Uiso  ? Al
   Al31       1.0     0.778755     0.761093     0.378065    Uiso  ? Al
   Al32       1.0     0.889087     0.872178     0.126730    Uiso  ? Al
   Al33       1.0     0.439711     0.771097     0.869013    Uiso  ? Al
   Al34       1.0     0.557479     0.873684     0.626886    Uiso  ? Al
   Hf1        1.0     0.555533     0.538819     0.109487    Uiso  ? Hf
   Mg1        1.0     0.218187     0.541261     0.621886    Uiso  ? Mg
   N1         1.0     0.223091     0.204463     0.328113    Uiso  ? N
   N2         1.0     0.110580     0.094891     0.080509    Uiso  ? N
   N3         1.0     0.890467     0.202296     0.827982    Uiso  ? N
   N4         1.0     0.778000     0.093131     0.579799    Uiso  ? N
   N5         1.0     0.555241     0.205455     0.331043    Uiso  ? N
   N6         1.0     0.444658     0.093912     0.080305    Uiso  ? N
   N7         1.0     0.222825     0.204391     0.832661    Uiso  ? N
   N8         1.0     0.112080     0.094533     0.580132    Uiso  ? N
   N9         1.0     0.888711     0.206316     0.332946    Uiso  ? N
   N10        1.0     0.777497     0.095927     0.081440    Uiso  ? N
   N11        1.0     0.557729     0.201365     0.829878    Uiso  ? N
   N12        1.0     0.443653     0.094875     0.580476    Uiso  ? N
   N13        1.0     0.222844     0.538457     0.331819    Uiso  ? N
   N14        1.0     0.110429     0.426190     0.080323    Uiso  ? N
   N15        1.0     0.889318     0.541082     0.829943    Uiso  ? N
   N16        1.0     0.777488     0.428262     0.586969    Uiso  ? N
   N17        1.0     0.555990     0.539668     0.334090    Uiso  ? N
   N18        1.0     0.436875     0.416258     0.074625    Uiso  ? N
   N19        1.0     0.219160     0.540697     0.841008    Uiso  ? N
   N20        1.0     0.103732     0.418894     0.578614    Uiso  ? N
   N21        1.0     0.887536     0.538997     0.330216    Uiso  ? N
   N22        1.0     0.798152     0.416549     0.073970    Uiso  ? N
   N23        1.0     0.556266     0.539676     0.843244    Uiso  ? N
   N24        1.0     0.459466     0.420326     0.586339    Uiso  ? N
   N25        1.0     0.223843     0.872340     0.330396    Uiso  ? N
   N26        1.0     0.111357     0.762620     0.081295    Uiso  ? N
   N27        1.0     0.887716     0.872861     0.833200    Uiso  ? N
   N28        1.0     0.778603     0.761473     0.579825    Uiso  ? N
   N29        1.0     0.554983     0.872056     0.332532    Uiso  ? N
   N30        1.0     0.434265     0.781803     0.073855    Uiso  ? N
   N31        1.0     0.219552     0.874452     0.829755    Uiso  ? N
   N32        1.0     0.101937     0.777558     0.578017    Uiso  ? N
   N33        1.0     0.887685     0.872575     0.327426    Uiso  ? N
   N34        1.0     0.776510     0.760436     0.081162    Uiso  ? N
   N35        1.0     0.557243     0.873797     0.828231    Uiso  ? N
   N36        1.0     0.444588     0.760852     0.586919    Uiso  ? N
