
#======================================================================
# CRYSTAL DATA
#----------------------------------------------------------------------
data_VESTA_phase_1

_chemical_name_common                  'Al   Hf   Mg   N                      '
_cell_length_a                         9.453914
_cell_length_b                         9.456448
_cell_length_c                         10.057010
_cell_angle_alpha                      89.980507
_cell_angle_beta                       89.999283
_cell_angle_gamma                      60.013199
_cell_volume                           778.747863
_space_group_name_H-M_alt              'P 1'
_space_group_IT_number                 1

loop_
_space_group_symop_operation_xyz
   'x, y, z'

loop_
   _atom_site_label
   _atom_site_occupancy
   _atom_site_fract_x
   _atom_site_fract_y
   _atom_site_fract_z
   _atom_site_adp_type
   _atom_site_U_iso_or_equiv
   _atom_site_type_symbol
   Al1        1.0     0.111246     0.094474     0.306483    Uiso  ? Al
   Al2        1.0     0.222393     0.205090     0.055566    Uiso  ? Al
   Al3        1.0     0.777824     0.093554     0.803897    Uiso  ? Al
   Al4        1.0     0.889827     0.203543     0.556407    Uiso  ? Al
   Al5        1.0     0.444137     0.094830     0.306524    Uiso  ? Al
   Al6        1.0     0.556103     0.199559     0.054158    Uiso  ? Al
   Al7        1.0     0.112073     0.094536     0.803719    Uiso  ? Al
   Al8        1.0     0.220417     0.206643     0.555956    Uiso  ? Al
   Al9        1.0     0.777973     0.093901     0.306273    Uiso  ? Al
   Al10       1.0     0.894500     0.199928     0.054247    Uiso  ? Al
   Al11       1.0     0.443580     0.095011     0.804290    Uiso  ? Al
   Al12       1.0     0.557153     0.204676     0.555919    Uiso  ? Al
   Al13       1.0     0.111830     0.428295     0.304772    Uiso  ? Al
   Al14       1.0     0.216884     0.538868     0.055278    Uiso  ? Al
   Al15       1.0     0.781569     0.426293     0.798998    Uiso  ? Al
   Al16       1.0     0.890939     0.538073     0.556095    Uiso  ? Al
   Al17       1.0     0.439850     0.424901     0.310097    Uiso  ? Al
   Al18       1.0     0.110705     0.426129     0.804164    Uiso  ? Al
   Al19       1.0     0.784695     0.424321     0.311765    Uiso  ? Al
   Al20       1.0     0.894119     0.538781     0.054474    Uiso  ? Al
   Al21       1.0     0.443839     0.425084     0.799047    Uiso  ? Al
   Al22       1.0     0.556159     0.537189     0.553297    Uiso  ? Al
   Al23       1.0     0.111237     0.760138     0.304691    Uiso  ? Al
   Al24       1.0     0.216693     0.878268     0.054446    Uiso  ? Al
   Al25       1.0     0.778260     0.761251     0.804647    Uiso  ? Al
   Al26       1.0     0.889962     0.872909     0.555906    Uiso  ? Al
   Al27       1.0     0.440773     0.767864     0.311855    Uiso  ? Al
   Al28       1.0     0.555454     0.877849     0.054520    Uiso  ? Al
   Al29       1.0     0.109685     0.763059     0.804313    Uiso  ? Al
   Al30       1.0     0.218467     0.873887     0.556085    Uiso  ? Al
   Al31       1.0     0.778390     0.761134     0.306540    Uiso  ? Al
   Al32       1.0     0.888554     0.872498     0.055309    Uiso  ? Al
   Al33       1.0     0.442338     0.764979     0.799674    Uiso  ? Al
   Al34       1.0     0.556565     0.873158     0.555718    Uiso  ? Al
   Hf1        1.0     0.556050     0.539361     0.062752    Uiso  ? Hf
   Mg1        1.0     0.219767     0.540145     0.557023    Uiso  ? Mg
   N1         1.0     0.222161     0.205507     0.363684    Uiso  ? N
   N2         1.0     0.111157     0.094974     0.115314    Uiso  ? N
   N3         1.0     0.888688     0.206018     0.863462    Uiso  ? N
   N4         1.0     0.777663     0.093868     0.614197    Uiso  ? N
   N5         1.0     0.556658     0.203494     0.364721    Uiso  ? N
   N6         1.0     0.444054     0.094558     0.115323    Uiso  ? N
   N7         1.0     0.223109     0.204102     0.865868    Uiso  ? N
   N8         1.0     0.111673     0.094337     0.614229    Uiso  ? N
   N9         1.0     0.889870     0.203477     0.365682    Uiso  ? N
   N10        1.0     0.777623     0.095301     0.114229    Uiso  ? N
   N11        1.0     0.555809     0.204765     0.864565    Uiso  ? N
   N12        1.0     0.444194     0.094432     0.614244    Uiso  ? N
   N13        1.0     0.220081     0.540101     0.352335    Uiso  ? N
   N14        1.0     0.110921     0.426089     0.112939    Uiso  ? N
   N15        1.0     0.887171     0.539455     0.865025    Uiso  ? N
   N16        1.0     0.777711     0.428009     0.609861    Uiso  ? N
   N17        1.0     0.555795     0.538901     0.355293    Uiso  ? N
   N18        1.0     0.437241     0.417346     0.117173    Uiso  ? N
   N19        1.0     0.222665     0.538677     0.863461    Uiso  ? N
   N20        1.0     0.103726     0.419829     0.618932    Uiso  ? N
   N21        1.0     0.889861     0.539844     0.364918    Uiso  ? N
   N22        1.0     0.796934     0.417703     0.120016    Uiso  ? N
   N23        1.0     0.556157     0.539772     0.856200    Uiso  ? N
   N24        1.0     0.458833     0.420321     0.613927    Uiso  ? N
   N25        1.0     0.220060     0.873409     0.364972    Uiso  ? N
   N26        1.0     0.111116     0.762440     0.111987    Uiso  ? N
   N27        1.0     0.887424     0.872799     0.865964    Uiso  ? N
   N28        1.0     0.777919     0.761230     0.614339    Uiso  ? N
   N29        1.0     0.556592     0.873226     0.365439    Uiso  ? N
   N30        1.0     0.434840     0.780471     0.120158    Uiso  ? N
   N31        1.0     0.223554     0.872553     0.864935    Uiso  ? N
   N32        1.0     0.103176     0.776269     0.618886    Uiso  ? N
   N33        1.0     0.888764     0.872407     0.363383    Uiso  ? N
   N34        1.0     0.777097     0.760639     0.114457    Uiso  ? N
   N35        1.0     0.555292     0.872021     0.863846    Uiso  ? N
   N36        1.0     0.444394     0.761301     0.610027    Uiso  ? N
