
#======================================================================
# CRYSTAL DATA
#----------------------------------------------------------------------
data_VESTA_phase_1

_chemical_name_common                  'Al   Hf   Mg   N                      '
_cell_length_a                         9.761666
_cell_length_b                         9.766498
_cell_length_c                         9.158424
_cell_angle_alpha                      90.014420
_cell_angle_beta                       89.993881
_cell_angle_gamma                      60.025188
_cell_volume                           756.352673
_space_group_name_H-M_alt              'P 1'
_space_group_IT_number                 1

loop_
_space_group_symop_operation_xyz
   'x, y, z'

loop_
   _atom_site_label
   _atom_site_occupancy
   _atom_site_fract_x
   _atom_site_fract_y
   _atom_site_fract_z
   _atom_site_adp_type
   _atom_site_U_iso_or_equiv
   _atom_site_type_symbol
   Al1        1.0     0.112951     0.094686     0.375164    Uiso  ? Al
   Al2        1.0     0.221952     0.206008     0.122782    Uiso  ? Al
   Al3        1.0     0.777967     0.094263     0.875510    Uiso  ? Al
   Al4        1.0     0.890874     0.201448     0.622245    Uiso  ? Al
   Al5        1.0     0.442618     0.095774     0.375213    Uiso  ? Al
   Al6        1.0     0.555242     0.201390     0.125310    Uiso  ? Al
   Al7        1.0     0.110777     0.094487     0.875277    Uiso  ? Al
   Al8        1.0     0.221129     0.204854     0.626533    Uiso  ? Al
   Al9        1.0     0.777863     0.092915     0.374335    Uiso  ? Al
   Al10       1.0     0.893500     0.201259     0.127162    Uiso  ? Al
   Al11       1.0     0.444991     0.093840     0.874834    Uiso  ? Al
   Al12       1.0     0.559295     0.201147     0.624503    Uiso  ? Al
   Al13       1.0     0.111386     0.425668     0.377562    Uiso  ? Al
   Al14       1.0     0.217878     0.538438     0.116977    Uiso  ? Al
   Al15       1.0     0.787043     0.422814     0.863118    Uiso  ? Al
   Al16       1.0     0.890151     0.539930     0.624812    Uiso  ? Al
   Al17       1.0     0.443319     0.425643     0.383839    Uiso  ? Al
   Al18       1.0     0.111474     0.428126     0.871350    Uiso  ? Al
   Al19       1.0     0.781124     0.426811     0.382028    Uiso  ? Al
   Al20       1.0     0.893972     0.537577     0.124618    Uiso  ? Al
   Al21       1.0     0.439709     0.423644     0.858319    Uiso  ? Al
   Al22       1.0     0.557321     0.538069     0.626343    Uiso  ? Al
   Al23       1.0     0.109553     0.762742     0.376475    Uiso  ? Al
   Al24       1.0     0.217577     0.876912     0.124912    Uiso  ? Al
   Al25       1.0     0.777368     0.761543     0.875454    Uiso  ? Al
   Al26       1.0     0.888151     0.873981     0.626638    Uiso  ? Al
   Al27       1.0     0.442321     0.764448     0.381595    Uiso  ? Al
   Al28       1.0     0.554853     0.876810     0.126793    Uiso  ? Al
   Al29       1.0     0.111022     0.760858     0.871908    Uiso  ? Al
   Al30       1.0     0.217085     0.875997     0.624707    Uiso  ? Al
   Al31       1.0     0.778928     0.761033     0.373617    Uiso  ? Al
   Al32       1.0     0.889453     0.872027     0.122333    Uiso  ? Al
   Al33       1.0     0.440109     0.770636     0.863179    Uiso  ? Al
   Al34       1.0     0.557795     0.873976     0.622852    Uiso  ? Al
   Hf1        1.0     0.555383     0.538683     0.106160    Uiso  ? Hf
   Mg1        1.0     0.217699     0.541559     0.617408    Uiso  ? Mg
   N1         1.0     0.223002     0.204734     0.331787    Uiso  ? N
   N2         1.0     0.110462     0.094895     0.084888    Uiso  ? N
   N3         1.0     0.890534     0.202141     0.831589    Uiso  ? N
   N4         1.0     0.778113     0.092935     0.583288    Uiso  ? N
   N5         1.0     0.555120     0.205563     0.335189    Uiso  ? N
   N6         1.0     0.444760     0.093774     0.084555    Uiso  ? N
   N7         1.0     0.223113     0.203881     0.836945    Uiso  ? N
   N8         1.0     0.112091     0.094650     0.583603    Uiso  ? N
   N9         1.0     0.888709     0.206370     0.337321    Uiso  ? N
   N10        1.0     0.777537     0.096001     0.085746    Uiso  ? N
   N11        1.0     0.557897     0.200979     0.833986    Uiso  ? N
   N12        1.0     0.443510     0.094971     0.584165    Uiso  ? N
   N13        1.0     0.222713     0.538479     0.335335    Uiso  ? N
   N14        1.0     0.110247     0.426084     0.083524    Uiso  ? N
   N15        1.0     0.888861     0.541473     0.834054    Uiso  ? N
   N16        1.0     0.778192     0.427841     0.591838    Uiso  ? N
   N17        1.0     0.555963     0.539694     0.340839    Uiso  ? N
   N18        1.0     0.437729     0.416685     0.078606    Uiso  ? N
   N19        1.0     0.219439     0.540589     0.846424    Uiso  ? N
   N20        1.0     0.104042     0.418967     0.584175    Uiso  ? N
   N21        1.0     0.887838     0.538785     0.334247    Uiso  ? N
   N22        1.0     0.797008     0.416985     0.077903    Uiso  ? N
   N23        1.0     0.556367     0.539996     0.844375    Uiso  ? N
   N24        1.0     0.458694     0.420138     0.592895    Uiso  ? N
   N25        1.0     0.223772     0.872256     0.334467    Uiso  ? N
   N26        1.0     0.111241     0.762922     0.084577    Uiso  ? N
   N27        1.0     0.887250     0.873015     0.837777    Uiso  ? N
   N28        1.0     0.778747     0.761541     0.583255    Uiso  ? N
   N29        1.0     0.554888     0.872118     0.336897    Uiso  ? N
   N30        1.0     0.434800     0.780725     0.077830    Uiso  ? N
   N31        1.0     0.219698     0.874727     0.833785    Uiso  ? N
   N32        1.0     0.101925     0.777276     0.583379    Uiso  ? N
   N33        1.0     0.887918     0.872453     0.330859    Uiso  ? N
   N34        1.0     0.776401     0.760436     0.085586    Uiso  ? N
   N35        1.0     0.557356     0.873839     0.831848    Uiso  ? N
   N36        1.0     0.444210     0.761556     0.591804    Uiso  ? N
