
#======================================================================
# CRYSTAL DATA
#----------------------------------------------------------------------
data_VESTA_phase_1

_chemical_name_common                  'Al   Hf   Mg   N                      '
_cell_length_a                         9.453908
_cell_length_b                         9.456443
_cell_length_c                         10.057019
_cell_angle_alpha                      89.980560
_cell_angle_beta                       89.999306
_cell_angle_gamma                      60.013145
_cell_volume                           778.747318
_space_group_name_H-M_alt              'P 1'
_space_group_IT_number                 1

loop_
_space_group_symop_operation_xyz
   'x, y, z'

loop_
   _atom_site_label
   _atom_site_occupancy
   _atom_site_fract_x
   _atom_site_fract_y
   _atom_site_fract_z
   _atom_site_adp_type
   _atom_site_U_iso_or_equiv
   _atom_site_type_symbol
   Al1        1.0     0.111246     0.094474     0.309895    Uiso  ? Al
   Al2        1.0     0.222393     0.205091     0.058980    Uiso  ? Al
   Al3        1.0     0.777824     0.093554     0.807318    Uiso  ? Al
   Al4        1.0     0.889828     0.203540     0.559822    Uiso  ? Al
   Al5        1.0     0.444136     0.094829     0.309938    Uiso  ? Al
   Al6        1.0     0.556102     0.199560     0.057579    Uiso  ? Al
   Al7        1.0     0.112072     0.094535     0.807141    Uiso  ? Al
   Al8        1.0     0.220417     0.206641     0.559373    Uiso  ? Al
   Al9        1.0     0.777973     0.093899     0.309687    Uiso  ? Al
   Al10       1.0     0.894498     0.199930     0.057669    Uiso  ? Al
   Al11       1.0     0.443580     0.095009     0.807710    Uiso  ? Al
   Al12       1.0     0.557154     0.204674     0.559335    Uiso  ? Al
   Al13       1.0     0.111831     0.428294     0.308192    Uiso  ? Al
   Al14       1.0     0.216883     0.538867     0.058697    Uiso  ? Al
   Al15       1.0     0.781571     0.426291     0.802415    Uiso  ? Al
   Al16       1.0     0.890939     0.538073     0.559510    Uiso  ? Al
   Al17       1.0     0.439850     0.424902     0.313522    Uiso  ? Al
   Al18       1.0     0.110704     0.426129     0.807580    Uiso  ? Al
   Al19       1.0     0.784693     0.424321     0.315193    Uiso  ? Al
   Al20       1.0     0.894119     0.538778     0.057894    Uiso  ? Al
   Al21       1.0     0.443840     0.425081     0.802468    Uiso  ? Al
   Al22       1.0     0.556159     0.537188     0.556724    Uiso  ? Al
   Al23       1.0     0.111237     0.760136     0.308113    Uiso  ? Al
   Al24       1.0     0.216695     0.878265     0.057867    Uiso  ? Al
   Al25       1.0     0.778259     0.761249     0.808066    Uiso  ? Al
   Al26       1.0     0.889961     0.872909     0.559323    Uiso  ? Al
   Al27       1.0     0.440774     0.767861     0.315282    Uiso  ? Al
   Al28       1.0     0.555453     0.877846     0.057940    Uiso  ? Al
   Al29       1.0     0.109686     0.763058     0.807729    Uiso  ? Al
   Al30       1.0     0.218466     0.873888     0.559501    Uiso  ? Al
   Al31       1.0     0.778391     0.761134     0.309953    Uiso  ? Al
   Al32       1.0     0.888556     0.872497     0.058723    Uiso  ? Al
   Al33       1.0     0.442337     0.764979     0.803092    Uiso  ? Al
   Al34       1.0     0.556566     0.873159     0.559134    Uiso  ? Al
   Hf1        1.0     0.556051     0.539360     0.066172    Uiso  ? Hf
   Mg1        1.0     0.219767     0.540144     0.560445    Uiso  ? Mg
   N1         1.0     0.222161     0.205506     0.367101    Uiso  ? N
   N2         1.0     0.111158     0.094974     0.118730    Uiso  ? N
   N3         1.0     0.888688     0.206018     0.866884    Uiso  ? N
   N4         1.0     0.777663     0.093867     0.617617    Uiso  ? N
   N5         1.0     0.556659     0.203492     0.368138    Uiso  ? N
   N6         1.0     0.444053     0.094558     0.118739    Uiso  ? N
   N7         1.0     0.223109     0.204102     0.869285    Uiso  ? N
   N8         1.0     0.111672     0.094337     0.617650    Uiso  ? N
   N9         1.0     0.889871     0.203473     0.369098    Uiso  ? N
   N10        1.0     0.777624     0.095299     0.117646    Uiso  ? N
   N11        1.0     0.555809     0.204764     0.867987    Uiso  ? N
   N12        1.0     0.444194     0.094431     0.617664    Uiso  ? N
   N13        1.0     0.220080     0.540100     0.355758    Uiso  ? N
   N14        1.0     0.110922     0.426088     0.116359    Uiso  ? N
   N15        1.0     0.887171     0.539453     0.868445    Uiso  ? N
   N16        1.0     0.777713     0.428007     0.613278    Uiso  ? N
   N17        1.0     0.555794     0.538900     0.358720    Uiso  ? N
   N18        1.0     0.437241     0.417346     0.120596    Uiso  ? N
   N19        1.0     0.222665     0.538677     0.866879    Uiso  ? N
   N20        1.0     0.103726     0.419828     0.622349    Uiso  ? N
   N21        1.0     0.889860     0.539845     0.368335    Uiso  ? N
   N22        1.0     0.796933     0.417704     0.123442    Uiso  ? N
   N23        1.0     0.556158     0.539772     0.859618    Uiso  ? N
   N24        1.0     0.458833     0.420318     0.617348    Uiso  ? N
   N25        1.0     0.220059     0.873410     0.368390    Uiso  ? N
   N26        1.0     0.111116     0.762439     0.115408    Uiso  ? N
   N27        1.0     0.887425     0.872798     0.869380    Uiso  ? N
   N28        1.0     0.777919     0.761229     0.617758    Uiso  ? N
   N29        1.0     0.556592     0.873226     0.368855    Uiso  ? N
   N30        1.0     0.434841     0.780469     0.123583    Uiso  ? N
   N31        1.0     0.223554     0.872552     0.868356    Uiso  ? N
   N32        1.0     0.103176     0.776269     0.622302    Uiso  ? N
   N33        1.0     0.888763     0.872407     0.366801    Uiso  ? N
   N34        1.0     0.777098     0.760638     0.117873    Uiso  ? N
   N35        1.0     0.555292     0.872020     0.867267    Uiso  ? N
   N36        1.0     0.444393     0.761302     0.613446    Uiso  ? N
