
#======================================================================
# CRYSTAL DATA
#----------------------------------------------------------------------
data_VESTA_phase_1

_chemical_name_common                  'Al   Hf   Mg   N                      '
_cell_length_a                         9.761542
_cell_length_b                         9.766374
_cell_length_c                         9.158829
_cell_angle_alpha                      89.985596
_cell_angle_beta                       90.006119
_cell_angle_gamma                      60.025017
_cell_volume                           756.365552
_space_group_name_H-M_alt              'P 1'
_space_group_IT_number                 1

loop_
_space_group_symop_operation_xyz
   'x, y, z'

loop_
   _atom_site_label
   _atom_site_occupancy
   _atom_site_fract_x
   _atom_site_fract_y
   _atom_site_fract_z
   _atom_site_adp_type
   _atom_site_U_iso_or_equiv
   _atom_site_type_symbol
   Al1        1.0     0.110776     0.094487     0.333312    Uiso  ? Al
   Al2        1.0     0.221952     0.206007     0.085814    Uiso  ? Al
   Al3        1.0     0.777864     0.092914     0.834255    Uiso  ? Al
   Al4        1.0     0.890874     0.201448     0.586352    Uiso  ? Al
   Al5        1.0     0.444993     0.093839     0.333757    Uiso  ? Al
   Al6        1.0     0.555242     0.201390     0.083278    Uiso  ? Al
   Al7        1.0     0.112952     0.094686     0.833426    Uiso  ? Al
   Al8        1.0     0.221128     0.204855     0.582057    Uiso  ? Al
   Al9        1.0     0.777967     0.094265     0.333082    Uiso  ? Al
   Al10       1.0     0.893500     0.201259     0.081429    Uiso  ? Al
   Al11       1.0     0.442617     0.095775     0.833375    Uiso  ? Al
   Al12       1.0     0.559294     0.201148     0.584086    Uiso  ? Al
   Al13       1.0     0.111474     0.428128     0.337243    Uiso  ? Al
   Al14       1.0     0.217877     0.538438     0.091608    Uiso  ? Al
   Al15       1.0     0.781121     0.426813     0.826565    Uiso  ? Al
   Al16       1.0     0.890151     0.539930     0.583779    Uiso  ? Al
   Al17       1.0     0.439706     0.423644     0.350270    Uiso  ? Al
   Al18       1.0     0.111385     0.425666     0.831032    Uiso  ? Al
   Al19       1.0     0.787046     0.422813     0.345473    Uiso  ? Al
   Al20       1.0     0.893973     0.537576     0.083971    Uiso  ? Al
   Al21       1.0     0.443322     0.425644     0.824753    Uiso  ? Al
   Al22       1.0     0.557321     0.538069     0.582244    Uiso  ? Al
   Al23       1.0     0.111024     0.760856     0.336686    Uiso  ? Al
   Al24       1.0     0.217577     0.876911     0.083677    Uiso  ? Al
   Al25       1.0     0.778929     0.761034     0.834976    Uiso  ? Al
   Al26       1.0     0.888151     0.873981     0.581952    Uiso  ? Al
   Al27       1.0     0.440109     0.770639     0.345411    Uiso  ? Al
   Al28       1.0     0.554852     0.876811     0.081797    Uiso  ? Al
   Al29       1.0     0.109551     0.762744     0.832116    Uiso  ? Al
   Al30       1.0     0.217086     0.875997     0.583883    Uiso  ? Al
   Al31       1.0     0.777367     0.761543     0.333135    Uiso  ? Al
   Al32       1.0     0.889454     0.872027     0.086266    Uiso  ? Al
   Al33       1.0     0.442322     0.764446     0.826998    Uiso  ? Al
   Al34       1.0     0.557796     0.873976     0.585743    Uiso  ? Al
   Hf1        1.0     0.555383     0.538683     0.102440    Uiso  ? Hf
   Mg1        1.0     0.217700     0.541557     0.591188    Uiso  ? Mg
   N1         1.0     0.223112     0.203881     0.371658    Uiso  ? N
   N2         1.0     0.110461     0.094894     0.123717    Uiso  ? N
   N3         1.0     0.888709     0.206370     0.871284    Uiso  ? N
   N4         1.0     0.778113     0.092934     0.625317    Uiso  ? N
   N5         1.0     0.557897     0.200979     0.374620    Uiso  ? N
   N6         1.0     0.444762     0.093774     0.124051    Uiso  ? N
   N7         1.0     0.223002     0.204734     0.876822    Uiso  ? N
   N8         1.0     0.112093     0.094649     0.625003    Uiso  ? N
   N9         1.0     0.890534     0.202140     0.377019    Uiso  ? N
   N10        1.0     0.777536     0.096003     0.122860    Uiso  ? N
   N11        1.0     0.555119     0.205563     0.873415    Uiso  ? N
   N12        1.0     0.443509     0.094972     0.624438    Uiso  ? N
   N13        1.0     0.219438     0.540589     0.362191    Uiso  ? N
   N14        1.0     0.110248     0.426086     0.125083    Uiso  ? N
   N15        1.0     0.887837     0.538784     0.874359    Uiso  ? N
   N16        1.0     0.778191     0.427843     0.616768    Uiso  ? N
   N17        1.0     0.556367     0.539996     0.364226    Uiso  ? N
   N18        1.0     0.437727     0.416684     0.130003    Uiso  ? N
   N19        1.0     0.222713     0.538479     0.873269    Uiso  ? N
   N20        1.0     0.104041     0.418966     0.624434    Uiso  ? N
   N21        1.0     0.888862     0.541474     0.374552    Uiso  ? N
   N22        1.0     0.797011     0.416983     0.130706    Uiso  ? N
   N23        1.0     0.555963     0.539694     0.867776    Uiso  ? N
   N24        1.0     0.458697     0.420138     0.615715    Uiso  ? N
   N25        1.0     0.219698     0.874727     0.374821    Uiso  ? N
   N26        1.0     0.111244     0.762920     0.124031    Uiso  ? N
   N27        1.0     0.887919     0.872453     0.877751    Uiso  ? N
   N28        1.0     0.778748     0.761542     0.625352    Uiso  ? N
   N29        1.0     0.557357     0.873839     0.376760    Uiso  ? N
   N30        1.0     0.434799     0.780728     0.130777    Uiso  ? N
   N31        1.0     0.223772     0.872255     0.874137    Uiso  ? N
   N32        1.0     0.101924     0.777278     0.625226    Uiso  ? N
   N33        1.0     0.887249     0.873015     0.370826    Uiso  ? N
   N34        1.0     0.776400     0.760436     0.123019    Uiso  ? N
   N35        1.0     0.554887     0.872119     0.871707    Uiso  ? N
   N36        1.0     0.444210     0.761554     0.616803    Uiso  ? N
