# generated using pymatgen
data_Al36N35O
_symmetry_space_group_name_H-M   'P 1'
_cell_length_a   9.35183733
_cell_length_b   9.35177394
_cell_length_c   9.97980657
_cell_angle_alpha   89.99941277
_cell_angle_beta   90.00017080
_cell_angle_gamma   59.99993050
_symmetry_Int_Tables_number   1
_chemical_formula_structural   Al36N35O
_chemical_formula_sum   'Al36 N35 O1'
_cell_volume   755.86353654
_cell_formula_units_Z   1
loop_
 _symmetry_equiv_pos_site_id
 _symmetry_equiv_pos_as_xyz
  1  'x, y, z'
loop_
 _atom_site_type_symbol
 _atom_site_label
 _atom_site_symmetry_multiplicity
 _atom_site_fract_x
 _atom_site_fract_y
 _atom_site_fract_z
 _atom_site_occupancy
  Al  Al0  1  0.10724247  0.09038224  0.41519584  1
  Al  Al1  1  0.22215303  0.20529353  0.15490506  1
  Al  Al2  1  0.77785716  0.09395729  0.91322835  1
  Al  Al3  1  0.88824896  0.20584916  0.66389394  1
  Al  Al4  1  0.45195408  0.09039602  0.41519479  1
  Al  Al5  1  0.55595002  0.20599830  0.16269826  1
  Al  Al6  1  0.11059149  0.09371964  0.91378448  1
  Al  Al7  1  0.22214771  0.20535568  0.66634954  1
  Al  Al8  1  0.77777628  0.09405124  0.41348456  1
  Al  Al9  1  0.88766134  0.20599186  0.16269680  1
  Al  Al10  1  0.44535877  0.09373826  0.91377480  1
  Al  Al11  1  0.55555352  0.20584345  0.66388423  1
  Al  Al12  1  0.10721306  0.43515092  0.41518568  1
  Al  Al13  1  0.22287186  0.53908146  0.16268897  1
  Al  Al14  1  0.77756030  0.42761891  0.91319303  1
  Al  Al15  1  0.88824737  0.53875508  0.66387269  1
  Al  Al16  1  0.44489605  0.42805860  0.41420340  1
  Al  Al17  1  0.55550670  0.53860100  0.16278394  1
  Al  Al18  1  0.11056513  0.42852968  0.91377018  1
  Al  Al19  1  0.22265597  0.53874380  0.66387241  1
  Al  Al20  1  0.77663500  0.42805649  0.41420624  1
  Al  Al21  1  0.88764361  0.53909861  0.16269035  1
  Al  Al22  1  0.44448856  0.42761647  0.91318223  1
  Al  Al23  1  0.55549241  0.53866909  0.66396205  1
  Al  Al24  1  0.11088451  0.76094009  0.41347676  1
  Al  Al25  1  0.22288410  0.87077448  0.16270285  1
  Al  Al26  1  0.77786045  0.76103267  0.91320690  1
  Al  Al27  1  0.88881294  0.87203112  0.66352743  1
  Al  Al28  1  0.44492501  0.75975731  0.41420902  1
  Al  Al29  1  0.55594892  0.87078064  0.16269630  1
  Al  Al30  1  0.11078967  0.76101516  0.91321586  1
  Al  Al31  1  0.22266245  0.87143204  0.66389062  1
  Al  Al32  1  0.77776224  0.76095875  0.41347521  1
  Al  Al33  1  0.88882964  0.87195928  0.16306214  1
  Al  Al34  1  0.44449500  0.76068678  0.91320509  1
  Al  Al35  1  0.55555464  0.87145113  0.66388527  1
  O  O36  1  0.22212908  0.20532101  0.35327142  1
  N  N37  1  0.11121207  0.09431693  0.10640882  1
  N  N38  1  0.88927450  0.20502377  0.85456808  1
  N  N39  1  0.77760919  0.09443361  0.60399750  1
  N  N40  1  0.55402591  0.20596355  0.35404270  1
  N  N41  1  0.44405703  0.09433211  0.10640660  1
  N  N42  1  0.22216501  0.20533489  0.85658510  1
  N  N43  1  0.11195963  0.09515143  0.60316691  1
  N  N44  1  0.88961692  0.20595446  0.35404684  1
  N  N45  1  0.77770775  0.09419511  0.10450419  1
  N  N46  1  0.55537779  0.20502598  0.85455760  1
  N  N47  1  0.44252401  0.09516390  0.60316210  1
  N  N48  1  0.22279956  0.53718795  0.35403355  1
  N  N49  1  0.11119684  0.42720555  0.10639784  1
  N  N50  1  0.88924289  0.53853278  0.85455315  1
  N  N51  1  0.77770450  0.42756598  0.60450298  1
  N  N52  1  0.55548978  0.53860352  0.35403916  1
  N  N53  1  0.44437861  0.42750294  0.10421797  1
  N  N54  1  0.22188649  0.53852131  0.85455347  1
  N  N55  1  0.11195174  0.42573614  0.60314847  1
  N  N56  1  0.88956965  0.53720661  0.35403287  1
  N  N57  1  0.77772476  0.42750681  0.10422337  1
  N  N58  1  0.55551282  0.53864248  0.85446057  1
  N  N59  1  0.44437556  0.42756597  0.60450076  1
  N  N60  1  0.22283126  0.87274088  0.35404611  1
  N  N61  1  0.11105238  0.76084529  0.10450045  1
  N  N62  1  0.88883492  0.87201166  0.85428889  1
  N  N63  1  0.77761245  0.76082781  0.60399352  1
  N  N64  1  0.55401228  0.87275999  0.35404146  1
  N  N65  1  0.44439134  0.76083092  0.10422708  1
  N  N66  1  0.22190496  0.87239397  0.85457251  1
  N  N67  1  0.11121322  0.76081916  0.60399296  1
  N  N68  1  0.88881099  0.87197524  0.35421995  1
  N  N69  1  0.77770896  0.76085078  0.10449586  1
  N  N70  1  0.55536161  0.87241032  0.85457092  1
  N  N71  1  0.44438149  0.76088766  0.60450599  1
