# generated using pymatgen
data_Al36N35O
_symmetry_space_group_name_H-M   'P 1'
_cell_length_a   9.66015807
_cell_length_b   9.66015811
_cell_length_c   9.07289514
_cell_angle_alpha   90.00001409
_cell_angle_beta   89.99998014
_cell_angle_gamma   60.00000400
_symmetry_Int_Tables_number   1
_chemical_formula_structural   Al36N35O
_chemical_formula_sum   'Al36 N35 O1'
_cell_volume   733.23807505
_cell_formula_units_Z   1
loop_
 _symmetry_equiv_pos_site_id
 _symmetry_equiv_pos_as_xyz
  1  'x, y, z'
loop_
 _atom_site_type_symbol
 _atom_site_label
 _atom_site_symmetry_multiplicity
 _atom_site_fract_x
 _atom_site_fract_y
 _atom_site_fract_z
 _atom_site_occupancy
  Al  Al0  1  0.10886107  0.09210914  0.33914745  1
  Al  Al1  1  0.22213392  0.20538208  0.07436118  1
  Al  Al2  1  0.77777186  0.09410605  0.83596810  1
  Al  Al3  1  0.88625697  0.20687413  0.58442860  1
  Al  Al4  1  0.44867969  0.09210904  0.33914746  1
  Al  Al5  1  0.55449180  0.20530019  0.08598519  1
  Al  Al6  1  0.10903429  0.09228239  0.83049900  1
  Al  Al7  1  0.22213395  0.20538210  0.60261550  1
  Al  Al8  1  0.77791602  0.09381771  0.33423370  1
  Al  Al9  1  0.88985780  0.20530023  0.08598519  1
  Al  Al10  1  0.44833339  0.09228222  0.83049899  1
  Al  Al11  1  0.55651876  0.20687421  0.58442861  1
  Al  Al12  1  0.10886098  0.43192782  0.33914748  1
  Al  Al13  1  0.22205215  0.53773992  0.08598518  1
  Al  Al14  1  0.77809759  0.42740001  0.83629703  1
  Al  Al15  1  0.88625688  0.53976673  0.58442864  1
  Al  Al16  1  0.44516256  0.42841060  0.33336793  1
  Al  Al17  1  0.55546722  0.53871524  0.08327816  1
  Al  Al18  1  0.10903411  0.43158159  0.83049897  1
  Al  Al19  1  0.22362616  0.53976687  0.58442861  1
  Al  Al20  1  0.77607654  0.42841060  0.33336800  1
  Al  Al21  1  0.88985769  0.53773983  0.08598514  1
  Al  Al22  1  0.44415202  0.42740004  0.83629711  1
  Al  Al23  1  0.55546723  0.53871523  0.58676728  1
  Al  Al24  1  0.11056966  0.76116412  0.33423369  1
  Al  Al25  1  0.22205222  0.87310587  0.08598516  1
  Al  Al26  1  0.77777176  0.76101985  0.83596806  1
  Al  Al27  1  0.88880054  0.87204860  0.58589851  1
  Al  Al28  1  0.44516257  0.75932456  0.33336803  1
  Al  Al29  1  0.55449172  0.87310576  0.08598514  1
  Al  Al30  1  0.11085801  0.76101997  0.83596810  1
  Al  Al31  1  0.22362607  0.86950508  0.58442862  1
  Al  Al32  1  0.77791595  0.76116403  0.33423373  1
  Al  Al33  1  0.88880054  0.87204861  0.08436115  1
  Al  Al34  1  0.44415200  0.76134559  0.83629699  1
  Al  Al35  1  0.55651862  0.86950499  0.58442864  1
  O  O36  1  0.22213395  0.20538210  0.38261995  1
  N  N37  1  0.11354393  0.09679202  0.12857612  1
  N  N38  1  0.89023780  0.20443048  0.87402261  1
  N  N39  1  0.77753252  0.09458482  0.62394321  1
  N  N40  1  0.55491104  0.20651599  0.37310683  1
  N  N41  1  0.43931395  0.09679192  0.12857613  1
  N  N42  1  0.22213394  0.20538217  0.86240302  1
  N  N43  1  0.11072860  0.09397674  0.61736732  1
  N  N44  1  0.88822279  0.20651597  0.37310682  1
  N  N45  1  0.77762527  0.09439929  0.12319808  1
  N  N46  1  0.55498157  0.20443048  0.87402264  1
  N  N47  1  0.44494467  0.09397665  0.61736733  1
  N  N48  1  0.22326791  0.53815920  0.37310683  1
  N  N49  1  0.11354381  0.42256214  0.12857613  1
  N  N50  1  0.89023766  0.53822959  0.87402257  1
  N  N51  1  0.77781941  0.42753917  0.62469592  1
  N  N52  1  0.55546722  0.53871526  0.37456530  1
  N  N53  1  0.44444518  0.42769326  0.12242502  1
  N  N54  1  0.22118241  0.53822971  0.87402263  1
  N  N55  1  0.11072853  0.42819284  0.61736730  1
  N  N56  1  0.88822271  0.53815912  0.37310687  1
  N  N57  1  0.77751125  0.42769328  0.12242507  1
  N  N58  1  0.55546722  0.53871527  0.87271023  1
  N  N59  1  0.44429113  0.42753920  0.62469599  1
  N  N60  1  0.22326790  0.87147090  0.37310684  1
  N  N61  1  0.11115119  0.76087342  0.12319806  1
  N  N62  1  0.88880053  0.87204862  0.87311473  1
  N  N63  1  0.77753242  0.76078055  0.62394320  1
  N  N64  1  0.55491100  0.87147082  0.37310687  1
  N  N65  1  0.44444522  0.76075929  0.12242510  1
  N  N66  1  0.22118243  0.87348592  0.87402258  1
  N  N67  1  0.11133673  0.76078065  0.62394322  1
  N  N68  1  0.88880054  0.87204863  0.37407180  1
  N  N69  1  0.77762519  0.76087333  0.12319809  1
  N  N70  1  0.55498145  0.87348578  0.87402257  1
  N  N71  1  0.44429111  0.76106746  0.62469589  1
