# generated using pymatgen
data_Al36N35O
_symmetry_space_group_name_H-M   'P 1'
_cell_length_a   9.70733787
_cell_length_b   9.70733757
_cell_length_c   8.92195388
_cell_angle_alpha   90.00001112
_cell_angle_beta   89.99998587
_cell_angle_gamma   60.00000507
_symmetry_Int_Tables_number   1
_chemical_formula_structural   Al36N35O
_chemical_formula_sum   'Al36 N35 O1'
_cell_volume   728.09978976
_cell_formula_units_Z   1
loop_
 _symmetry_equiv_pos_site_id
 _symmetry_equiv_pos_as_xyz
  1  'x, y, z'
loop_
 _atom_site_type_symbol
 _atom_site_label
 _atom_site_symmetry_multiplicity
 _atom_site_fract_x
 _atom_site_fract_y
 _atom_site_fract_z
 _atom_site_occupancy
  Al  Al0  1  0.10904402  0.09229191  0.34245618  1
  Al  Al1  1  0.22213396  0.20538201  0.07559094  1
  Al  Al2  1  0.77778701  0.09407584  0.83880185  1
  Al  Al3  1  0.88622950  0.20690432  0.58697164  1
  Al  Al4  1  0.44831399  0.09229188  0.34245616  1
  Al  Al5  1  0.55440356  0.20527456  0.08887152  1
  Al  Al6  1  0.10895904  0.09220689  0.83271282  1
  Al  Al7  1  0.22213391  0.20538220  0.60555157  1
  Al  Al8  1  0.77790732  0.09383515  0.33688492  1
  Al  Al9  1  0.88997175  0.20527457  0.08887152  1
  Al  Al10  1  0.44848412  0.09220679  0.83271283  1
  Al  Al11  1  0.55651606  0.20690450  0.58697167  1
  Al  Al12  1  0.10904385  0.43156215  0.34245618  1
  Al  Al13  1  0.22202642  0.53765178  0.08887148  1
  Al  Al14  1  0.77812783  0.42738489  0.83913151  1
  Al  Al15  1  0.88622938  0.53976398  0.58697170  1
  Al  Al16  1  0.44515694  0.42840511  0.33601062  1
  Al  Al17  1  0.55546716  0.53871528  0.08589205  1
  Al  Al18  1  0.10895879  0.43173234  0.83271281  1
  Al  Al19  1  0.22365640  0.53976420  0.58697168  1
  Al  Al20  1  0.77608759  0.42840511  0.33601070  1
  Al  Al21  1  0.88997158  0.53765166  0.08887146  1
  Al  Al22  1  0.44413683  0.42738497  0.83913159  1
  Al  Al23  1  0.55546714  0.53871531  0.58956987  1
  Al  Al24  1  0.11058721  0.76115535  0.33688491  1
  Al  Al25  1  0.22202653  0.87321974  0.08887151  1
  Al  Al26  1  0.77778686  0.76103494  0.83880175  1
  Al  Al27  1  0.88880062  0.87204854  0.58864070  1
  Al  Al28  1  0.44515699  0.75933564  0.33601072  1
  Al  Al29  1  0.55440352  0.87321961  0.08887146  1
  Al  Al30  1  0.11082790  0.76103502  0.83880183  1
  Al  Al31  1  0.22365630  0.86947753  0.58697164  1
  Al  Al32  1  0.77790725  0.76115530  0.33688501  1
  Al  Al33  1  0.88880065  0.87204855  0.08708654  1
  Al  Al34  1  0.44413679  0.76137588  0.83913147  1
  Al  Al35  1  0.55651584  0.86947744  0.58697171  1
  O  O36  1  0.22213399  0.20538214  0.38070614  1
  N  N37  1  0.11369303  0.09694122  0.12642394  1
  N  N38  1  0.89034804  0.20437105  0.87136698  1
  N  N39  1  0.77752319  0.09460344  0.62127720  1
  N  N40  1  0.55498234  0.20650300  0.37030827  1
  N  N41  1  0.43901571  0.09694105  0.12642392  1
  N  N42  1  0.22213397  0.20538215  0.85933268  1
  N  N43  1  0.11084699  0.09409523  0.61419333  1
  N  N44  1  0.88816443  0.20650309  0.37030825  1
  N  N45  1  0.77760501  0.09443980  0.12041213  1
  N  N46  1  0.55493080  0.20437097  0.87136698  1
  N  N47  1  0.44470788  0.09409507  0.61419336  1
  N  N48  1  0.22325495  0.53823037  0.37030826  1
  N  N49  1  0.11369286  0.42226393  0.12642390  1
  N  N50  1  0.89034787  0.53817878  0.87136693  1
  N  N51  1  0.77780954  0.42754407  0.62210322  1
  N  N52  1  0.55546727  0.53871523  0.37184903  1
  N  N53  1  0.44443709  0.42768503  0.11961193  1
  N  N54  1  0.22112292  0.53817883  0.87136697  1
  N  N55  1  0.11084693  0.42795594  0.61419338  1
  N  N56  1  0.88816436  0.53823037  0.37030830  1
  N  N57  1  0.77752753  0.42768513  0.11961199  1
  N  N58  1  0.55546728  0.53871523  0.87000674  1
  N  N59  1  0.44429612  0.42754406  0.62210328  1
  N  N60  1  0.22325495  0.87141263  0.37030825  1
  N  N61  1  0.11119160  0.76085320  0.12041215  1
  N  N62  1  0.88880045  0.87204865  0.87040503  1
  N  N63  1  0.77752306  0.76077124  0.62127713  1
  N  N64  1  0.55498229  0.87141251  0.37030830  1
  N  N65  1  0.44443712  0.76077560  0.11961201  1
  N  N66  1  0.22112291  0.87359630  0.87136696  1
  N  N67  1  0.11135526  0.76077138  0.62127717  1
  N  N68  1  0.88880045  0.87204869  0.37134020  1
  N  N69  1  0.77760493  0.76085309  0.12041220  1
  N  N70  1  0.55493064  0.87359611  0.87136693  1
  N  N71  1  0.44429607  0.76105759  0.62210319  1
