# generated using pymatgen
data_Al36N35O
_symmetry_space_group_name_H-M   'P 1'
_cell_length_a   9.79428239
_cell_length_b   9.79428108
_cell_length_c   8.64103068
_cell_angle_alpha   90.00000365
_cell_angle_beta   89.99999761
_cell_angle_gamma   60.00000830
_symmetry_Int_Tables_number   1
_chemical_formula_structural   Al36N35O
_chemical_formula_sum   'Al36 N35 O1'
_cell_volume   717.86271966
_cell_formula_units_Z   1
loop_
 _symmetry_equiv_pos_site_id
 _symmetry_equiv_pos_as_xyz
  1  'x, y, z'
loop_
 _atom_site_type_symbol
 _atom_site_label
 _atom_site_symmetry_multiplicity
 _atom_site_fract_x
 _atom_site_fract_y
 _atom_site_fract_z
 _atom_site_occupancy
  Al  Al0  1  0.10920186  0.09244978  0.34859367  1
  Al  Al1  1  0.22213393  0.20538210  0.07893604  1
  Al  Al2  1  0.77783551  0.09397884  0.84539752  1
  Al  Al3  1  0.88652580  0.20678504  0.59334986  1
  Al  Al4  1  0.44799835  0.09244962  0.34859369  1
  Al  Al5  1  0.55440531  0.20540070  0.09545060  1
  Al  Al6  1  0.10907086  0.09231878  0.83885990  1
  Al  Al7  1  0.22213396  0.20538215  0.60983365  1
  Al  Al8  1  0.77786121  0.09392741  0.34353376  1
  Al  Al9  1  0.88984379  0.20540079  0.09545065  1
  Al  Al10  1  0.44826037  0.09231865  0.83885988  1
  Al  Al11  1  0.55633902  0.20678522  0.59334992  1
  Al  Al12  1  0.10920157  0.43124658  0.34859370  1
  Al  Al13  1  0.22215258  0.53765354  0.09545057  1
  Al  Al14  1  0.77806729  0.42741519  0.84560165  1
  Al  Al15  1  0.88652563  0.53958692  0.59334995  1
  Al  Al16  1  0.44507543  0.42832368  0.34276588  1
  Al  Al17  1  0.55546714  0.53871527  0.09255748  1
  Al  Al18  1  0.10907058  0.43150863  0.83885988  1
  Al  Al19  1  0.22353715  0.53958717  0.59334992  1
  Al  Al20  1  0.77625041  0.42832376  0.34276597  1
  Al  Al21  1  0.88984358  0.53765350  0.09545054  1
  Al  Al22  1  0.44416707  0.42741525  0.84560174  1
  Al  Al23  1  0.55546714  0.53871527  0.59602024  1
  Al  Al24  1  0.11067940  0.76110929  0.34353378  1
  Al  Al25  1  0.22215279  0.87309175  0.09545063  1
  Al  Al26  1  0.77783539  0.76108354  0.84539738  1
  Al  Al27  1  0.88880064  0.87204854  0.59509332  1
  Al  Al28  1  0.44507559  0.75949851  0.34276598  1
  Al  Al29  1  0.55440535  0.87309160  0.09545056  1
  Al  Al30  1  0.11073084  0.76108360  0.84539749  1
  Al  Al31  1  0.22353703  0.86977382  0.59334986  1
  Al  Al32  1  0.77786114  0.76110926  0.34353390  1
  Al  Al33  1  0.88880065  0.87204857  0.09389272  1
  Al  Al34  1  0.44416705  0.76131540  0.84560162  1
  Al  Al35  1  0.55633878  0.86977369  0.59334995  1
  O  O36  1  0.22213398  0.20538215  0.37515572  1
  N  N37  1  0.11376952  0.09701773  0.12064370  1
  N  N38  1  0.89040385  0.20434050  0.86484383  1
  N  N39  1  0.77753079  0.09458827  0.61464830  1
  N  N40  1  0.55501678  0.20633248  0.36388407  1
  N  N41  1  0.43886274  0.09701749  0.12064369  1
  N  N42  1  0.22213397  0.20538214  0.85476559  1
  N  N43  1  0.11124467  0.09449293  0.60798985  1
  N  N44  1  0.88830050  0.20633262  0.36388404  1
  N  N45  1  0.77754485  0.09456017  0.11397013  1
  N  N46  1  0.55490557  0.20434041  0.86484380  1
  N  N47  1  0.44391249  0.09449274  0.60798987  1
  N  N48  1  0.22308450  0.53826478  0.36388409  1
  N  N49  1  0.11376933  0.42211091  0.12064368  1
  N  N50  1  0.89040365  0.53815352  0.86484375  1
  N  N51  1  0.77774074  0.42757843  0.61553262  1
  N  N52  1  0.55546730  0.53871513  0.36503717  1
  N  N53  1  0.44438356  0.42763156  0.11321216  1
  N  N54  1  0.22109242  0.53815357  0.86484379  1
  N  N55  1  0.11124454  0.42716067  0.60798988  1
  N  N56  1  0.88830036  0.53826481  0.36388416  1
  N  N57  1  0.77763450  0.42763169  0.11321223  1
  N  N58  1  0.55546732  0.53871519  0.86377853  1
  N  N59  1  0.44433050  0.42757843  0.61553267  1
  N  N60  1  0.22308457  0.87154863  0.36388406  1
  N  N61  1  0.11131194  0.76079309  0.11397014  1
  N  N62  1  0.88880049  0.87204866  0.86402810  1
  N  N63  1  0.77753066  0.76077884  0.61464827  1
  N  N64  1  0.55501677  0.87154847  0.36388416  1
  N  N65  1  0.44438366  0.76088255  0.11321225  1
  N  N66  1  0.22109245  0.87365200  0.86484381  1
  N  N67  1  0.11134006  0.76077900  0.61464830  1
  N  N68  1  0.88880050  0.87204868  0.36460620  1
  N  N69  1  0.77754478  0.76079298  0.11397020  1
  N  N70  1  0.55490546  0.87365177  0.86484376  1
  N  N71  1  0.44433044  0.76098879  0.61553261  1
