# generated using pymatgen
data_Al36N35O
_symmetry_space_group_name_H-M   'P 1'
_cell_length_a   9.35406433
_cell_length_b   9.35406423
_cell_length_c   9.97316808
_cell_angle_alpha   89.99999225
_cell_angle_beta   90.00000153
_cell_angle_gamma   60.00000424
_symmetry_Int_Tables_number   1
_chemical_formula_structural   Al36N35O
_chemical_formula_sum   'Al36 N35 O1'
_cell_volume   755.72621668
_cell_formula_units_Z   1
loop_
 _symmetry_equiv_pos_site_id
 _symmetry_equiv_pos_as_xyz
  1  'x, y, z'
loop_
 _atom_site_type_symbol
 _atom_site_label
 _atom_site_symmetry_multiplicity
 _atom_site_fract_x
 _atom_site_fract_y
 _atom_site_fract_z
 _atom_site_occupancy
  Al  Al0  1  0.10723340  0.09047217  0.38878934  1
  Al  Al1  1  0.22213653  0.20537458  0.12849561  1
  Al  Al2  1  0.77782584  0.09399567  0.88686973  1
  Al  Al3  1  0.88824809  0.20586923  0.63751919  1
  Al  Al4  1  0.45194201  0.09047175  0.38878937  1
  Al  Al5  1  0.55593420  0.20609076  0.13634740  1
  Al  Al6  1  0.11053275  0.09377085  0.88744411  1
  Al  Al7  1  0.22213623  0.20537477  0.64002913  1
  Al  Al8  1  0.77776834  0.09411053  0.38712769  1
  Al  Al9  1  0.88762325  0.20609078  0.13634734  1
  Al  Al10  1  0.44534373  0.09377113  0.88744425  1
  Al  Al11  1  0.55553047  0.20586907  0.63751914  1
  Al  Al12  1  0.10723316  0.43518044  0.38878933  1
  Al  Al13  1  0.22285262  0.53917219  0.13634737  1
  Al  Al14  1  0.77752727  0.42767915  0.88684030  1
  Al  Al15  1  0.88824798  0.53876860  0.63751924  1
  Al  Al16  1  0.44489740  0.42813588  0.38785297  1
  Al  Al17  1  0.55546996  0.53870804  0.13642696  1
  Al  Al18  1  0.11053292  0.42858208  0.88744421  1
  Al  Al19  1  0.22263071  0.53876873  0.63751907  1
  Al  Al20  1  0.77661317  0.42813612  0.38785292  1
  Al  Al21  1  0.88762314  0.53917196  0.13634734  1
  Al  Al22  1  0.44444083  0.42767910  0.88684029  1
  Al  Al23  1  0.55546980  0.53870807  0.63761778  1
  Al  Al24  1  0.11087232  0.76100673  0.38712765  1
  Al  Al25  1  0.22285261  0.87086128  0.13634734  1
  Al  Al26  1  0.77782592  0.76106435  0.88686970  1
  Al  Al27  1  0.88880317  0.87204131  0.63718290  1
  Al  Al28  1  0.44489746  0.75985197  0.38785290  1
  Al  Al29  1  0.55593410  0.87086100  0.13634737  1
  Al  Al30  1  0.11075757  0.76106412  0.88686966  1
  Al  Al31  1  0.22263080  0.87148645  0.63751906  1
  Al  Al32  1  0.77776839  0.76100694  0.38712768  1
  Al  Al33  1  0.88880333  0.87204126  0.13671198  1
  Al  Al34  1  0.44444078  0.76076571  0.88684027  1
  Al  Al35  1  0.55553042  0.87148619  0.63751918  1
  O  O36  1  0.22213656  0.20537476  0.32693103  1
  N  N37  1  0.11117480  0.09441282  0.08016605  1
  N  N38  1  0.88922682  0.20508445  0.82830729  1
  N  N39  1  0.77760189  0.09444392  0.57774431  1
  N  N40  1  0.55402452  0.20604570  0.32778293  1
  N  N41  1  0.44406022  0.09441284  0.08016626  1
  N  N42  1  0.22213634  0.20537472  0.83037366  1
  N  N43  1  0.11195609  0.09519454  0.57687139  1
  N  N44  1  0.88957702  0.20604591  0.32778286  1
  N  N45  1  0.77768828  0.09427147  0.07825124  1
  N  N46  1  0.55533619  0.20508449  0.82830722  1
  N  N47  1  0.44249683  0.09519444  0.57687147  1
  N  N48  1  0.22280726  0.53726287  0.32778290  1
  N  N49  1  0.11117481  0.42729827  0.08016618  1
  N  N50  1  0.88922686  0.53857446  0.82830734  1
  N  N51  1  0.77768497  0.42760044  0.57825420  1
  N  N52  1  0.55546932  0.53870802  0.32778664  1
  N  N53  1  0.44435714  0.42759530  0.07796819  1
  N  N54  1  0.22184621  0.53857452  0.82830715  1
  N  N55  1  0.11195601  0.42573526  0.57687141  1
  N  N56  1  0.88957681  0.53726291  0.32778287  1
  N  N57  1  0.77769534  0.42759529  0.07796818  1
  N  N58  1  0.55546962  0.53870803  0.82822190  1
  N  N59  1  0.44436203  0.42760038  0.57825423  1
  N  N60  1  0.22280734  0.87281563  0.32778286  1
  N  N61  1  0.11103347  0.76092627  0.07825116  1
  N  N62  1  0.88880325  0.87204133  0.82805133  1
  N  N63  1  0.77760183  0.76084005  0.57774429  1
  N  N64  1  0.55402453  0.87281527  0.32778289  1
  N  N65  1  0.44435710  0.76093351  0.07796817  1
  N  N66  1  0.22184619  0.87246507  0.82830714  1
  N  N67  1  0.11120567  0.76084014  0.57774426  1
  N  N68  1  0.88880318  0.87204133  0.32797282  1
  N  N69  1  0.77768822  0.76092618  0.07825118  1
  N  N70  1  0.55533615  0.87246511  0.82830726  1
  N  N71  1  0.44436204  0.76092337  0.57825415  1
