# generated using pymatgen
data_Al36N35O
_symmetry_space_group_name_H-M   'P 1'
_cell_length_a   9.35168513
_cell_length_b   9.35168549
_cell_length_c   9.97942053
_cell_angle_alpha   90.00000008
_cell_angle_beta   89.99999884
_cell_angle_gamma   59.99999961
_symmetry_Int_Tables_number   1
_chemical_formula_structural   Al36N35O
_chemical_formula_sum   'Al36 N35 O1'
_cell_volume   755.81537539
_cell_formula_units_Z   1
loop_
 _symmetry_equiv_pos_site_id
 _symmetry_equiv_pos_as_xyz
  1  'x, y, z'
loop_
 _atom_site_type_symbol
 _atom_site_label
 _atom_site_symmetry_multiplicity
 _atom_site_fract_x
 _atom_site_fract_y
 _atom_site_fract_z
 _atom_site_occupancy
  Al  Al0  1  0.10721521  0.09049820  0.31163832  1
  Al  Al1  1  0.22212491  0.20540763  0.06047220  1
  Al  Al2  1  0.77781526  0.09402709  0.81359294  1
  Al  Al3  1  0.88762240  0.20611796  0.56412312  1
  Al  Al4  1  0.45194431  0.09049779  0.31163832  1
  Al  Al5  1  0.55552722  0.20590590  0.06293904  1
  Al  Al6  1  0.11052912  0.09381139  0.81304782  1
  Al  Al7  1  0.22212520  0.20540747  0.57193048  1
  Al  Al8  1  0.77775517  0.09414702  0.31334244  1
  Al  Al9  1  0.88822471  0.20590605  0.06293899  1
  Al  Al10  1  0.44531708  0.09381165  0.81304767  1
  Al  Al11  1  0.55591807  0.20611796  0.56412307  1
  Al  Al12  1  0.10721498  0.43522697  0.31163836  1
  Al  Al13  1  0.22262332  0.53880968  0.06293911  1
  Al  Al14  1  0.77751080  0.42771459  0.81362041  1
  Al  Al15  1  0.88762227  0.53920004  0.56412312  1
  Al  Al16  1  0.44488352  0.42816625  0.31261564  1
  Al  Al17  1  0.55545847  0.53874091  0.06285555  1
  Al  Al18  1  0.11052927  0.42859961  0.81304773  1
  Al  Al19  1  0.22283560  0.53920029  0.56412309  1
  Al  Al20  1  0.77660686  0.42816647  0.31261569  1
  Al  Al21  1  0.88822460  0.53880953  0.06293894  1
  Al  Al22  1  0.44443209  0.42771455  0.81362043  1
  Al  Al23  1  0.55545865  0.53874089  0.56403170  1
  Al  Al24  1  0.11086456  0.76103781  0.31334248  1
  Al  Al25  1  0.22262341  0.87150725  0.06293910  1
  Al  Al26  1  0.77781532  0.76109792  0.81359298  1
  Al  Al27  1  0.88879197  0.87207414  0.56375064  1
  Al  Al28  1  0.44488358  0.75988989  0.31261570  1
  Al  Al29  1  0.55552717  0.87150699  0.06293899  1
  Al  Al30  1  0.11074479  0.76109771  0.81359301  1
  Al  Al31  1  0.22283560  0.87090460  0.56412311  1
  Al  Al32  1  0.77775522  0.76103802  0.31334243  1
  Al  Al33  1  0.88879182  0.87207418  0.06328859  1
  Al  Al34  1  0.44443204  0.76079342  0.81362044  1
  Al  Al35  1  0.55591797  0.87090432  0.56412310  1
  O  O36  1  0.22212521  0.20540762  0.37356168  1
  N  N37  1  0.11193390  0.09521652  0.12366249  1
  N  N38  1  0.88920786  0.20512249  0.87224999  1
  N  N39  1  0.77767783  0.09430261  0.62230570  1
  N  N40  1  0.55400431  0.20607414  0.37277694  1
  N  N41  1  0.44250725  0.09521641  0.12366242  1
  N  N42  1  0.22212504  0.20540759  0.87023437  1
  N  N43  1  0.11116783  0.09444999  0.62041565  1
  N  N44  1  0.88957896  0.20607432  0.37277699  1
  N  N45  1  0.77759018  0.09447754  0.12282002  1
  N  N46  1  0.55532735  0.20512252  0.87225005  1
  N  N47  1  0.44404026  0.09445002  0.62041545  1
  N  N48  1  0.22279144  0.53728690  0.37277696  1
  N  N49  1  0.11193383  0.42578983  0.12366250  1
  N  N50  1  0.88920789  0.53860977  0.87224994  1
  N  N51  1  0.77768369  0.42762831  0.62258650  1
  N  N52  1  0.55545796  0.53874089  0.37276740  1
  N  N53  1  0.44434979  0.42763234  0.12230968  1
  N  N54  1  0.22184006  0.53860986  0.87225012  1
  N  N55  1  0.11116782  0.42732250  0.62041552  1
  N  N56  1  0.88957873  0.53728695  0.37277698  1
  N  N57  1  0.77767547  0.42763237  0.12230973  1
  N  N58  1  0.55545831  0.53874088  0.87234372  1
  N  N59  1  0.44434599  0.42762836  0.62258647  1
  N  N60  1  0.22279151  0.87286180  0.37277699  1
  N  N61  1  0.11119509  0.76087262  0.12282007  1
  N  N62  1  0.88879192  0.87207419  0.87251344  1
  N  N63  1  0.77767777  0.76095990  0.62230576  1
  N  N64  1  0.55400433  0.87286144  0.37277696  1
  N  N65  1  0.44434979  0.76095803  0.12230973  1
  N  N66  1  0.22184003  0.87249030  0.87225012  1
  N  N67  1  0.11102038  0.76096002  0.62230576  1
  N  N68  1  0.88879181  0.87207420  0.37258455  1
  N  N69  1  0.77759011  0.76087252  0.12282003  1
  N  N70  1  0.55532730  0.87249032  0.87225000  1
  N  N71  1  0.44434595  0.76096600  0.62258650  1
