# generated using pymatgen
data_Al36N35O
_symmetry_space_group_name_H-M   'P 1'
_cell_length_a   9.35168044
_cell_length_b   9.35168092
_cell_length_c   9.97943203
_cell_angle_alpha   89.99999870
_cell_angle_beta   90.00000073
_cell_angle_gamma   60.00000155
_symmetry_Int_Tables_number   1
_chemical_formula_structural   Al36N35O
_chemical_formula_sum   'Al36 N35 O1'
_cell_volume   755.81551242
_cell_formula_units_Z   1
loop_
 _symmetry_equiv_pos_site_id
 _symmetry_equiv_pos_as_xyz
  1  'x, y, z'
loop_
 _atom_site_type_symbol
 _atom_site_label
 _atom_site_symmetry_multiplicity
 _atom_site_fract_x
 _atom_site_fract_y
 _atom_site_fract_z
 _atom_site_occupancy
  Al  Al0  1  0.10723309  0.09044710  0.39705909  1
  Al  Al1  1  0.22214286  0.20535620  0.13676563  1
  Al  Al2  1  0.77783287  0.09397592  0.89510457  1
  Al  Al3  1  0.88824269  0.20585466  0.64575872  1
  Al  Al4  1  0.45196164  0.09044668  0.39705911  1
  Al  Al5  1  0.55593562  0.20606662  0.14457433  1
  Al  Al6  1  0.11054694  0.09376028  0.89564946  1
  Al  Al7  1  0.22214258  0.20535637  0.64822475  1
  Al  Al8  1  0.77777284  0.09409579  0.39535529  1
  Al  Al9  1  0.88764026  0.20606664  0.14457426  1
  Al  Al10  1  0.44533442  0.09376055  0.89564961  1
  Al  Al11  1  0.55554474  0.20585450  0.64575867  1
  Al  Al12  1  0.10723284  0.43517535  0.39705907  1
  Al  Al13  1  0.22285321  0.53914890  0.14457431  1
  Al  Al14  1  0.77752870  0.42766322  0.89507709  1
  Al  Al15  1  0.88824257  0.53875814  0.64575878  1
  Al  Al16  1  0.44490109  0.42811486  0.39608215  1
  Al  Al17  1  0.55547631  0.53868965  0.14466573  1
  Al  Al18  1  0.11054710  0.42854803  0.89564957  1
  Al  Al19  1  0.22264086  0.53875827  0.64575861  1
  Al  Al20  1  0.77662477  0.42811510  0.39608211  1
  Al  Al21  1  0.88764014  0.53914866  0.14457427  1
  Al  Al22  1  0.44444963  0.42766317  0.89507707  1
  Al  Al23  1  0.55547614  0.53868968  0.64584223  1
  Al  Al24  1  0.11088231  0.76098650  0.39535526  1
  Al  Al25  1  0.22285321  0.87085353  0.14457428  1
  Al  Al26  1  0.77783295  0.76104662  0.89510454  1
  Al  Al27  1  0.88880951  0.87202291  0.64540923  1
  Al  Al28  1  0.44490117  0.75983883  0.39608209  1
  Al  Al29  1  0.55593555  0.87085325  0.14457430  1
  Al  Al30  1  0.11076256  0.76104639  0.89510450  1
  Al  Al31  1  0.22264097  0.87145629  0.64575860  1
  Al  Al32  1  0.77777290  0.76098671  0.39535529  1
  Al  Al33  1  0.88880968  0.87202285  0.14494699  1
  Al  Al34  1  0.44444959  0.76074239  0.89507706  1
  Al  Al35  1  0.55554470  0.87145604  0.64575871  1
  O  O36  1  0.22214290  0.20535636  0.33513485  1
  N  N37  1  0.11118525  0.09439851  0.08828140  1
  N  N38  1  0.88922520  0.20507132  0.83644728  1
  N  N39  1  0.77760787  0.09442627  0.58587721  1
  N  N40  1  0.55402215  0.20602302  0.33592017  1
  N  N41  1  0.44405839  0.09439853  0.08828161  1
  N  N42  1  0.22214270  0.20535632  0.83846243  1
  N  N43  1  0.11195140  0.09516510  0.58503425  1
  N  N44  1  0.88959633  0.20602323  0.33592010  1
  N  N45  1  0.77769553  0.09425129  0.08639162  1
  N  N46  1  0.55534523  0.20507136  0.83644721  1
  N  N47  1  0.44252527  0.09516499  0.58503432  1
  N  N48  1  0.22280930  0.53723576  0.33592015  1
  N  N49  1  0.11118528  0.42727164  0.08828154  1
  N  N50  1  0.88922526  0.53855873  0.83644732  1
  N  N51  1  0.77769289  0.42758124  0.58638754  1
  N  N52  1  0.55547566  0.53868960  0.33592984  1
  N  N53  1  0.44436382  0.42757719  0.08611079  1
  N  N54  1  0.22185782  0.53855880  0.83644714  1
  N  N55  1  0.11195134  0.42573891  0.58503425  1
  N  N56  1  0.88959611  0.53723581  0.33592012  1
  N  N57  1  0.77770109  0.42757717  0.08611077  1
  N  N58  1  0.55547596  0.53868962  0.83635360  1
  N  N59  1  0.44436761  0.42758119  0.58638757  1
  N  N60  1  0.22280937  0.87281023  0.33592011  1
  N  N61  1  0.11103803  0.76090877  0.08639154  1
  N  N62  1  0.88880958  0.87202295  0.83618393  1
  N  N63  1  0.77760781  0.76082128  0.58587720  1
  N  N64  1  0.55402216  0.87280987  0.33592014  1
  N  N65  1  0.44436377  0.76091448  0.08611077  1
  N  N66  1  0.22185780  0.87243873  0.83644714  1
  N  N67  1  0.11121275  0.76082137  0.58587717  1
  N  N68  1  0.88880950  0.87202295  0.33611276  1
  N  N69  1  0.77769547  0.76090867  0.08639154  1
  N  N70  1  0.55534517  0.87243877  0.83644725  1
  N  N71  1  0.44436761  0.76090652  0.58638750  1
