# generated using pymatgen
data_Al36N35O
_symmetry_space_group_name_H-M   'P 1'
_cell_length_a   9.55929864
_cell_length_b   9.55929940
_cell_length_c   9.38760607
_cell_angle_alpha   90.00001710
_cell_angle_beta   89.99997034
_cell_angle_gamma   60.00000343
_symmetry_Int_Tables_number   1
_chemical_formula_structural   Al36N35O
_chemical_formula_sum   'Al36 N35 O1'
_cell_volume   742.91238361
_cell_formula_units_Z   1
loop_
 _symmetry_equiv_pos_site_id
 _symmetry_equiv_pos_as_xyz
  1  'x, y, z'
loop_
 _atom_site_type_symbol
 _atom_site_label
 _atom_site_symmetry_multiplicity
 _atom_site_fract_x
 _atom_site_fract_y
 _atom_site_fract_z
 _atom_site_occupancy
  Al  Al0  1  0.10832011  0.09156807  0.33271479  1
  Al  Al1  1  0.22213392  0.20538209  0.07275348  1
  Al  Al2  1  0.77776497  0.09411981  0.83121052  1
  Al  Al3  1  0.88657895  0.20667140  0.58042582  1
  Al  Al4  1  0.44976171  0.09156801  0.33271482  1
  Al  Al5  1  0.55478999  0.20545447  0.08103236  1
  Al  Al6  1  0.10945680  0.09270483  0.82740122  1
  Al  Al7  1  0.22213392  0.20538209  0.59543694  1
  Al  Al8  1  0.77790578  0.09383817  0.33000335  1
  Al  Al9  1  0.88940534  0.20545448  0.08103235  1
  Al  Al10  1  0.44748836  0.09270471  0.82740119  1
  Al  Al11  1  0.55639949  0.20667137  0.58042580  1
  Al  Al12  1  0.10831998  0.43300986  0.33271484  1
  Al  Al13  1  0.22220639  0.53803813  0.08103233  1
  Al  Al14  1  0.77797026  0.42746381  0.83145714  1
  Al  Al15  1  0.88657891  0.53964765  0.58042579  1
  Al  Al16  1  0.44511501  0.42836316  0.32920756  1
  Al  Al17  1  0.55546723  0.53871532  0.07917838  1
  Al  Al18  1  0.10945663  0.43073655  0.82740117  1
  Al  Al19  1  0.22342325  0.53964766  0.58042578  1
  Al  Al20  1  0.77617165  0.42836312  0.32920759  1
  Al  Al21  1  0.88940529  0.53803807  0.08103232  1
  Al  Al22  1  0.44421564  0.42746380  0.83145719  1
  Al  Al23  1  0.55546724  0.53871532  0.58196679  1
  Al  Al24  1  0.11059019  0.76115384  0.33000333  1
  Al  Al25  1  0.22220647  0.87265337  0.08103234  1
  Al  Al26  1  0.77776486  0.76101292  0.83121048  1
  Al  Al27  1  0.88880058  0.87204850  0.58129434  1
  Al  Al28  1  0.44511501  0.75941972  0.32920759  1
  Al  Al29  1  0.55478996  0.87265331  0.08103234  1
  Al  Al30  1  0.11087183  0.76101302  0.83121050  1
  Al  Al31  1  0.22342334  0.86982697  0.58042582  1
  Al  Al32  1  0.77790569  0.76115374  0.33000332  1
  Al  Al33  1  0.88880056  0.87204852  0.08000193  1
  Al  Al34  1  0.44421572  0.76121830  0.83145710  1
  Al  Al35  1  0.55639957  0.86982691  0.58042580  1
  O  O36  1  0.22213391  0.20538203  0.38493089  1
  N  N37  1  0.11308307  0.09633124  0.13174269  1
  N  N38  1  0.88991600  0.20462425  0.87829376  1
  N  N39  1  0.77756974  0.09451035  0.62823834  1
  N  N40  1  0.55466957  0.20642658  0.37788681  1
  N  N41  1  0.44023553  0.09633123  0.13174272  1
  N  N42  1  0.22213391  0.20538209  0.86950545  1
  N  N43  1  0.11070334  0.09395152  0.62333033  1
  N  N44  1  0.88855372  0.20642648  0.37788682  1
  N  N45  1  0.77763694  0.09437592  0.12792260  1
  N  N46  1  0.55510953  0.20462430  0.87829379  1
  N  N47  1  0.44499499  0.09395150  0.62333033  1
  N  N48  1  0.22317853  0.53791766  0.37788679  1
  N  N49  1  0.11308311  0.42348366  0.13174271  1
  N  N50  1  0.88991597  0.53835750  0.87829376  1
  N  N51  1  0.77779326  0.42755219  0.62881390  1
  N  N52  1  0.55546724  0.53871522  0.37888634  1
  N  N53  1  0.44443621  0.42768418  0.12725602  1
  N  N54  1  0.22137624  0.53835762  0.87829380  1
  N  N55  1  0.11070341  0.42824305  0.62333030  1
  N  N56  1  0.88855371  0.53791753  0.37788678  1
  N  N57  1  0.77752933  0.42768414  0.12725604  1
  N  N58  1  0.55546721  0.53871521  0.87735359  1
  N  N59  1  0.44430427  0.42755223  0.62881394  1
  N  N60  1  0.22317836  0.87180192  0.37788681  1
  N  N61  1  0.11112777  0.76088511  0.12792257  1
  N  N62  1  0.88880050  0.87204871  0.87769196  1
  N  N63  1  0.77756970  0.76081788  0.62823836  1
  N  N64  1  0.55466942  0.87180189  0.37788679  1
  N  N65  1  0.44443613  0.76077737  0.12725605  1
  N  N66  1  0.22137615  0.87316420  0.87829375  1
  N  N67  1  0.11126218  0.76081794  0.62823836  1
  N  N68  1  0.88880051  0.87204872  0.37847696  1
  N  N69  1  0.77763690  0.76088504  0.12792257  1
  N  N70  1  0.55510936  0.87316415  0.87829376  1
  N  N71  1  0.44430418  0.76104132  0.62881388  1
