# generated using pymatgen
data_Al36N35O
_symmetry_space_group_name_H-M   'P 1'
_cell_length_a   9.83424779
_cell_length_b   9.83424874
_cell_length_c   8.51360225
_cell_angle_alpha   89.99999870
_cell_angle_beta   89.99999756
_cell_angle_gamma   60.00001170
_symmetry_Int_Tables_number   1
_chemical_formula_structural   Al36N35O
_chemical_formula_sum   'Al36 N35 O1'
_cell_volume   713.06049236
_cell_formula_units_Z   1
loop_
 _symmetry_equiv_pos_site_id
 _symmetry_equiv_pos_as_xyz
  1  'x, y, z'
loop_
 _atom_site_type_symbol
 _atom_site_label
 _atom_site_symmetry_multiplicity
 _atom_site_fract_x
 _atom_site_fract_y
 _atom_site_fract_z
 _atom_site_occupancy
  Al  Al0  1  0.10915073  0.09239857  0.35747713  1
  Al  Al1  1  0.22213401  0.20538204  0.09726696  1
  Al  Al2  1  0.77786995  0.09390995  0.85956767  1
  Al  Al3  1  0.88954062  0.20557630  0.60959709  1
  Al  Al4  1  0.44810071  0.09239830  0.35747707  1
  Al  Al5  1  0.55616298  0.20662231  0.11147021  1
  Al  Al6  1  0.10923456  0.09248241  0.86569565  1
  Al  Al7  1  0.22213397  0.20538199  0.62745913  1
  Al  Al8  1  0.77783515  0.09397952  0.36110276  1
  Al  Al9  1  0.88686466  0.20662221  0.11147026  1
  Al  Al10  1  0.44793301  0.09248221  0.86569569  1
  Al  Al11  1  0.55453298  0.20557614  0.60959714  1
  Al  Al12  1  0.10915040  0.43134871  0.35747706  1
  Al  Al13  1  0.22337444  0.53941091  0.11147019  1
  Al  Al14  1  0.77797819  0.42745961  0.85949509  1
  Al  Al15  1  0.88954039  0.53778098  0.60959719  1
  Al  Al16  1  0.44500699  0.42825487  0.36168953  1
  Al  Al17  1  0.55546724  0.53871511  0.10903577  1
  Al  Al18  1  0.10923431  0.43118100  0.86569570  1
  Al  Al19  1  0.22232821  0.53778097  0.60959716  1
  Al  Al20  1  0.77638764  0.42825501  0.36168945  1
  Al  Al21  1  0.88686447  0.53941072  0.11147016  1
  Al  Al22  1  0.44421179  0.42745963  0.85949500  1
  Al  Al23  1  0.55546724  0.53871512  0.61194852  1
  Al  Al24  1  0.11073164  0.76108306  0.36110274  1
  Al  Al25  1  0.22337433  0.87011260  0.11147025  1
  Al  Al26  1  0.77786984  0.76111777  0.85956782  1
  Al  Al27  1  0.88880061  0.87204854  0.61066104  1
  Al  Al28  1  0.44500717  0.75963545  0.36168944  1
  Al  Al29  1  0.55616275  0.87011245  0.11147017  1
  Al  Al30  1  0.11066207  0.76111786  0.85956770  1
  Al  Al31  1  0.22232842  0.87278851  0.60959709  1
  Al  Al32  1  0.77783509  0.76108301  0.36110262  1
  Al  Al33  1  0.88880059  0.87204851  0.10988569  1
  Al  Al34  1  0.44421178  0.76122602  0.85949511  1
  Al  Al35  1  0.55453300  0.87278833  0.60959718  1
  O  O36  1  0.22213398  0.20538199  0.33756472  1
  N  N37  1  0.11152055  0.09476845  0.10364096  1
  N  N38  1  0.89032227  0.20438420  0.84776333  1
  N  N39  1  0.77750912  0.09463162  0.59840231  1
  N  N40  1  0.55498474  0.20618428  0.34844268  1
  N  N41  1  0.44336099  0.09476834  0.10364093  1
  N  N42  1  0.22213400  0.20538201  0.85536402  1
  N  N43  1  0.11365845  0.09690631  0.59182413  1
  N  N44  1  0.88848071  0.20618437  0.34844270  1
  N  N45  1  0.77754318  0.09456347  0.09806299  1
  N  N46  1  0.55494338  0.20438416  0.84776333  1
  N  N47  1  0.43908517  0.09690613  0.59182410  1
  N  N48  1  0.22293638  0.53823271  0.34844265  1
  N  N49  1  0.11152041  0.42660897  0.10364092  1
  N  N50  1  0.89032206  0.53819125  0.84776339  1
  N  N51  1  0.77771751  0.42759007  0.59908737  1
  N  N52  1  0.55546722  0.53871508  0.34784094  1
  N  N53  1  0.44435964  0.42760747  0.09723452  1
  N  N54  1  0.22113627  0.53819133  0.84776334  1
  N  N55  1  0.11365822  0.42233315  0.59182410  1
  N  N56  1  0.88848052  0.53823271  0.34844257  1
  N  N57  1  0.77768250  0.42760743  0.09723456  1
  N  N58  1  0.55546725  0.53871513  0.84849247  1
  N  N59  1  0.44434208  0.42758997  0.59908741  1
  N  N60  1  0.22293649  0.87172860  0.34844268  1
  N  N61  1  0.11131561  0.76079109  0.09806299  1
  N  N62  1  0.88880059  0.87204850  0.84838850  1
  N  N63  1  0.77750905  0.76075699  0.59840226  1
  N  N64  1  0.55498475  0.87172846  0.34844258  1
  N  N65  1  0.44435959  0.76093034  0.09723457  1
  N  N66  1  0.22113633  0.87357017  0.84776334  1
  N  N67  1  0.11138372  0.76075705  0.59840230  1
  N  N68  1  0.88880061  0.87204852  0.34813599  1
  N  N69  1  0.77754305  0.76079097  0.09806299  1
  N  N70  1  0.55494329  0.87357000  0.84776339  1
  N  N71  1  0.44434221  0.76096534  0.59908736  1
