# generated using pymatgen
data_Al36N35O
_symmetry_space_group_name_H-M   'P 1'
_cell_length_a   9.61072959
_cell_length_b   9.61072995
_cell_length_c   9.22872010
_cell_angle_alpha   90.00001649
_cell_angle_beta   89.99997460
_cell_angle_gamma   60.00000310
_symmetry_Int_Tables_number   1
_chemical_formula_structural   Al36N35O
_chemical_formula_sum   'Al36 N35 O1'
_cell_volume   738.21837637
_cell_formula_units_Z   1
loop_
 _symmetry_equiv_pos_site_id
 _symmetry_equiv_pos_as_xyz
  1  'x, y, z'
loop_
 _atom_site_type_symbol
 _atom_site_label
 _atom_site_symmetry_multiplicity
 _atom_site_fract_x
 _atom_site_fract_y
 _atom_site_fract_z
 _atom_site_occupancy
  Al  Al0  1  0.10861555  0.09186362  0.33586941  1
  Al  Al1  1  0.22213392  0.20538206  0.07341581  1
  Al  Al2  1  0.77776427  0.09412124  0.83344895  1
  Al  Al3  1  0.88637910  0.20679225  0.58226710  1
  Al  Al4  1  0.44917071  0.09186357  0.33586943  1
  Al  Al5  1  0.55462354  0.20536259  0.08338004  1
  Al  Al6  1  0.10920613  0.09245424  0.82875653  1
  Al  Al7  1  0.22213394  0.20538205  0.59918239  1
  Al  Al8  1  0.77791661  0.09381653  0.33196143  1
  Al  Al9  1  0.88966367  0.20536260  0.08338003  1
  Al  Al10  1  0.44798967  0.09245411  0.82875650  1
  Al  Al11  1  0.55647849  0.20679230  0.58226710  1
  Al  Al12  1  0.10861550  0.43241884  0.33586944  1
  Al  Al13  1  0.22211456  0.53787164  0.08338004  1
  Al  Al14  1  0.77804696  0.42742535  0.83374589  1
  Al  Al15  1  0.88637903  0.53972651  0.58226712  1
  Al  Al16  1  0.44514814  0.42839617  0.33112589  1
  Al  Al17  1  0.55546723  0.53871525  0.08106529  1
  Al  Al18  1  0.10920600  0.43123785  0.82875649  1
  Al  Al19  1  0.22354425  0.53972660  0.58226709  1
  Al  Al20  1  0.77610544  0.42839613  0.33112595  1
  Al  Al21  1  0.88966359  0.53787155  0.08338001  1
  Al  Al22  1  0.44417733  0.42742537  0.83374595  1
  Al  Al23  1  0.55546724  0.53871524  0.58424128  1
  Al  Al24  1  0.11056848  0.76116471  0.33196142  1
  Al  Al25  1  0.22211458  0.87291174  0.08338001  1
  Al  Al26  1  0.77776417  0.76101226  0.83344894  1
  Al  Al27  1  0.88880055  0.87204860  0.58346317  1
  Al  Al28  1  0.44514810  0.75935347  0.33112598  1
  Al  Al29  1  0.55462346  0.87291166  0.08338001  1
  Al  Al30  1  0.11087319  0.76101237  0.83344896  1
  Al  Al31  1  0.22354420  0.86962720  0.58226711  1
  Al  Al32  1  0.77791654  0.76116462  0.33196144  1
  Al  Al33  1  0.88880054  0.87204861  0.08202071  1
  Al  Al34  1  0.44417733  0.76129497  0.83374586  1
  Al  Al35  1  0.55647841  0.86962713  0.58226712  1
  O  O36  1  0.22213393  0.20538206  0.38401793  1
  N  N37  1  0.11333757  0.09658567  0.13032551  1
  N  N38  1  0.89008817  0.20451779  0.87631291  1
  N  N39  1  0.77754795  0.09455393  0.62624253  1
  N  N40  1  0.55480436  0.20648844  0.37562500  1
  N  N41  1  0.43972664  0.09658560  0.13032554  1
  N  N42  1  0.22213393  0.20538216  0.86585058  1
  N  N43  1  0.11067879  0.09392692  0.62043482  1
  N  N44  1  0.88835705  0.20648839  0.37562499  1
  N  N45  1  0.77763527  0.09437927  0.12569057  1
  N  N46  1  0.55504387  0.20451779  0.87631293  1
  N  N47  1  0.44504425  0.09392684  0.62043481  1
  N  N48  1  0.22324035  0.53805251  0.37562499  1
  N  N49  1  0.11333749  0.42297481  0.13032553  1
  N  N50  1  0.89008807  0.53829190  0.87631288  1
  N  N51  1  0.77781157  0.42754311  0.62690922  1
  N  N52  1  0.55546722  0.53871528  0.37688843  1
  N  N53  1  0.44444464  0.42769271  0.12496539  1
  N  N54  1  0.22126971  0.53829202  0.87631293  1
  N  N55  1  0.11067874  0.42829240  0.62043478  1
  N  N56  1  0.88835698  0.53805241  0.37562501  1
  N  N57  1  0.77751237  0.42769272  0.12496542  1
  N  N58  1  0.55546721  0.53871528  0.87514949  1
  N  N59  1  0.44429505  0.42754313  0.62690927  1
  N  N60  1  0.22324030  0.87160517  0.37562501  1
  N  N61  1  0.11113118  0.76088341  0.12569055  1
  N  N62  1  0.88880052  0.87204862  0.87552983  1
  N  N63  1  0.77754788  0.76079600  0.62624254  1
  N  N64  1  0.55480429  0.87160510  0.37562501  1
  N  N65  1  0.44444465  0.76076041  0.12496545  1
  N  N66  1  0.22126972  0.87333630  0.87631289  1
  N  N67  1  0.11130583  0.76079609  0.62624255  1
  N  N68  1  0.88880053  0.87204862  0.37643088  1
  N  N69  1  0.77763520  0.76088332  0.12569056  1
  N  N70  1  0.55504376  0.87333620  0.87631288  1
  N  N71  1  0.44429505  0.76105962  0.62690919  1
