# generated using pymatgen
data_Al36N35O
_symmetry_space_group_name_H-M   'P 1'
_cell_length_a   9.35409960
_cell_length_b   9.35410210
_cell_length_c   9.97307385
_cell_angle_alpha   89.99999964
_cell_angle_beta   89.99999655
_cell_angle_gamma   60.00000530
_symmetry_Int_Tables_number   1
_chemical_formula_structural   Al36N35O
_chemical_formula_sum   'Al36 N35 O1'
_cell_volume   755.72499426
_cell_formula_units_Z   1
loop_
 _symmetry_equiv_pos_site_id
 _symmetry_equiv_pos_as_xyz
  1  'x, y, z'
loop_
 _atom_site_type_symbol
 _atom_site_label
 _atom_site_symmetry_multiplicity
 _atom_site_fract_x
 _atom_site_fract_y
 _atom_site_fract_z
 _atom_site_occupancy
  Al  Al0  1  0.10722823  0.09048644  0.31990874  1
  Al  Al1  1  0.22213126  0.20538923  0.06866888  1
  Al  Al2  1  0.77782100  0.09400987  0.82182892  1
  Al  Al3  1  0.88761833  0.20610505  0.57235129  1
  Al  Al4  1  0.45193740  0.09048601  0.31990873  1
  Al  Al5  1  0.55552562  0.20588344  0.07117934  1
  Al  Al6  1  0.11052778  0.09378530  0.82125430  1
  Al  Al7  1  0.22213154  0.20538907  0.58020095  1
  Al  Al8  1  0.77776341  0.09412488  0.32157107  1
  Al  Al9  1  0.88824305  0.20588360  0.07117929  1
  Al  Al10  1  0.44533879  0.09378555  0.82125416  1
  Al  Al11  1  0.55592935  0.20610504  0.57235124  1
  Al  Al12  1  0.10722798  0.43519526  0.31990877  1
  Al  Al13  1  0.22262561  0.53878334  0.07117941  1
  Al  Al14  1  0.77752237  0.42769356  0.82185837  1
  Al  Al15  1  0.88761820  0.53918658  0.57235129  1
  Al  Al16  1  0.44489228  0.42815023  0.32084580  1
  Al  Al17  1  0.55546481  0.53872252  0.07108098  1
  Al  Al18  1  0.11052793  0.42859655  0.82125420  1
  Al  Al19  1  0.22284741  0.53918683  0.57235126  1
  Al  Al20  1  0.77660844  0.42815046  0.32084585  1
  Al  Al21  1  0.88824294  0.53878320  0.07117924  1
  Al  Al22  1  0.44443582  0.42769352  0.82185839  1
  Al  Al23  1  0.55546498  0.53872250  0.57227175  1
  Al  Al24  1  0.11086718  0.76102127  0.32157111  1
  Al  Al25  1  0.22262571  0.87150086  0.07117940  1
  Al  Al26  1  0.77782107  0.76107891  0.82182896  1
  Al  Al27  1  0.88879832  0.87205574  0.57198680  1
  Al  Al28  1  0.44489234  0.75986669  0.32084586  1
  Al  Al29  1  0.55552557  0.87150059  0.07117929  1
  Al  Al30  1  0.11075234  0.76107870  0.82182899  1
  Al  Al31  1  0.22284740  0.87087581  0.57235129  1
  Al  Al32  1  0.77776345  0.76102147  0.32157106  1
  Al  Al33  1  0.88879816  0.87205578  0.07151569  1
  Al  Al34  1  0.44443577  0.76078023  0.82185840  1
  Al  Al35  1  0.55592926  0.87087551  0.57235126  1
  O  O36  1  0.22213155  0.20538924  0.38176597  1
  N  N37  1  0.11195116  0.09520898  0.13182568  1
  N  N38  1  0.88922184  0.20509910  0.88039032  1
  N  N39  1  0.77768321  0.09428614  0.63044634  1
  N  N40  1  0.55401936  0.20606030  0.38091470  1
  N  N41  1  0.44249183  0.09520887  0.13182561  1
  N  N42  1  0.22213135  0.20538921  0.87832364  1
  N  N43  1  0.11117009  0.09442747  0.62853141  1
  N  N44  1  0.88957207  0.20606049  0.38091475  1
  N  N45  1  0.77759685  0.09445852  0.13095355  1
  N  N46  1  0.55533101  0.20509914  0.88039038  1
  N  N47  1  0.44405480  0.09442750  0.62853120  1
  N  N48  1  0.22280231  0.53727726  0.38091472  1
  N  N49  1  0.11195110  0.42574961  0.13182569  1
  N  N50  1  0.88922188  0.53858874  0.88039027  1
  N  N51  1  0.77769028  0.42760975  0.63072934  1
  N  N52  1  0.55546429  0.53872252  0.38091107  1
  N  N53  1  0.44435713  0.42761487  0.13044363  1
  N  N54  1  0.22184136  0.53858884  0.88039044  1
  N  N55  1  0.11117010  0.42731222  0.62853127  1
  N  N56  1  0.88957184  0.53727728  0.38091474  1
  N  N57  1  0.77767989  0.42761490  0.13044367  1
  N  N58  1  0.55546462  0.53872251  0.88047590  1
  N  N59  1  0.44435223  0.42760979  0.63072932  1
  N  N60  1  0.22280237  0.87283020  0.38091475  1
  N  N61  1  0.11120087  0.76085448  0.13095360  1
  N  N62  1  0.88879824  0.87205582  0.88064651  1
  N  N63  1  0.77768314  0.76094047  0.63044640  1
  N  N64  1  0.55401938  0.87282983  0.38091472  1
  N  N65  1  0.44435713  0.76093765  0.13044369  1
  N  N66  1  0.22184134  0.87247960  0.88039045  1
  N  N67  1  0.11102873  0.76094059  0.63044640  1
  N  N68  1  0.88879815  0.87205584  0.38072485  1
  N  N69  1  0.77759678  0.76085437  0.13095356  1
  N  N70  1  0.55533095  0.87247962  0.88039033  1
  N  N71  1  0.44435218  0.76094781  0.63072934  1
