# generated using pymatgen
data_Al36N35O
_symmetry_space_group_name_H-M   'P 1'
_cell_length_a   9.35166557
_cell_length_b   9.35166605
_cell_length_c   9.97946020
_cell_angle_alpha   90.00000159
_cell_angle_beta   90.00000108
_cell_angle_gamma   60.00000050
_symmetry_Int_Tables_number   1
_chemical_formula_structural   Al36N35O
_chemical_formula_sum   'Al36 N35 O1'
_cell_volume   755.81523432
_cell_formula_units_Z   1
loop_
 _symmetry_equiv_pos_site_id
 _symmetry_equiv_pos_as_xyz
  1  'x, y, z'
loop_
 _atom_site_type_symbol
 _atom_site_label
 _atom_site_symmetry_multiplicity
 _atom_site_fract_x
 _atom_site_fract_y
 _atom_site_fract_z
 _atom_site_occupancy
  Al  Al0  1  0.10720731  0.09052398  0.30048934  1
  Al  Al1  1  0.22211624  0.20543265  0.04932825  1
  Al  Al2  1  0.77780650  0.09405246  0.80243827  1
  Al  Al3  1  0.88761415  0.20614268  0.55296899  1
  Al  Al4  1  0.45193418  0.09052360  0.30048933  1
  Al  Al5  1  0.55551818  0.20593109  0.05178660  1
  Al  Al6  1  0.11052048  0.09383639  0.80189940  1
  Al  Al7  1  0.22211657  0.20543254  0.56079107  1
  Al  Al8  1  0.77774667  0.09417177  0.30218712  1
  Al  Al9  1  0.88821629  0.20593124  0.05178661  1
  Al  Al10  1  0.44530853  0.09383666  0.80189930  1
  Al  Al11  1  0.55590940  0.20614268  0.55296897  1
  Al  Al12  1  0.10720708  0.43525053  0.30048937  1
  Al  Al13  1  0.22261483  0.53883429  0.05178665  1
  Al  Al14  1  0.77750243  0.42773951  0.80246582  1
  Al  Al15  1  0.88761402  0.53922504  0.55296901  1
  Al  Al16  1  0.44487469  0.42819113  0.30146256  1
  Al  Al17  1  0.55544982  0.53876595  0.05170186  1
  Al  Al18  1  0.11052060  0.42862473  0.80189933  1
  Al  Al19  1  0.22282660  0.53922531  0.55296895  1
  Al  Al20  1  0.77659857  0.42819137  0.30146264  1
  Al  Al21  1  0.88821618  0.53883418  0.05178652  1
  Al  Al22  1  0.44442334  0.42773949  0.80246581  1
  Al  Al23  1  0.55545000  0.53876595  0.55287637  1
  Al  Al24  1  0.11085566  0.76106296  0.30218712  1
  Al  Al25  1  0.22261493  0.87153249  0.05178666  1
  Al  Al26  1  0.77780654  0.76112278  0.80243825  1
  Al  Al27  1  0.88878336  0.87209918  0.55259493  1
  Al  Al28  1  0.44487477  0.75991532  0.30146259  1
  Al  Al29  1  0.55551813  0.87153225  0.05178653  1
  Al  Al30  1  0.11073653  0.76112258  0.80243828  1
  Al  Al31  1  0.22282662  0.87093003  0.55296892  1
  Al  Al32  1  0.77774670  0.76106321  0.30218708  1
  Al  Al33  1  0.88878321  0.87209919  0.05213285  1
  Al  Al34  1  0.44442328  0.76081871  0.80246580  1
  Al  Al35  1  0.55590930  0.87092976  0.55296897  1
  O  O36  1  0.22211657  0.20543269  0.36241678  1
  N  N37  1  0.11192461  0.09524089  0.11251483  1
  N  N38  1  0.88919807  0.20514811  0.86109910  1
  N  N39  1  0.77766930  0.09432751  0.61115240  1
  N  N40  1  0.55399634  0.20609926  0.36162510  1
  N  N41  1  0.44249982  0.09524082  0.11251475  1
  N  N42  1  0.22211642  0.20543262  0.85908918  1
  N  N43  1  0.11115820  0.09447404  0.60926780  1
  N  N44  1  0.88956954  0.20609945  0.36162512  1
  N  N45  1  0.77758172  0.09450215  0.11166731  1
  N  N46  1  0.55531936  0.20514815  0.86109911  1
  N  N47  1  0.44403366  0.09447407  0.60926773  1
  N  N48  1  0.22278290  0.53731259  0.36162507  1
  N  N49  1  0.11192454  0.42581609  0.11251483  1
  N  N50  1  0.88919807  0.53863543  0.86109901  1
  N  N51  1  0.77767473  0.42765351  0.61143313  1
  N  N52  1  0.55544930  0.53876597  0.36161449  1
  N  N53  1  0.44434142  0.42765764  0.11115869  1
  N  N54  1  0.22183202  0.53863551  0.86109913  1
  N  N55  1  0.11115817  0.42734954  0.60926776  1
  N  N56  1  0.88956934  0.53731267  0.36162511  1
  N  N57  1  0.77766626  0.42765768  0.11115880  1
  N  N58  1  0.55544968  0.53876593  0.86119109  1
  N  N59  1  0.44433750  0.42765355  0.61143306  1
  N  N60  1  0.22278297  0.87288608  0.36162504  1
  N  N61  1  0.11118607  0.76089779  0.11166731  1
  N  N62  1  0.88878329  0.87209923  0.86135961  1
  N  N63  1  0.77766921  0.76098504  0.61115239  1
  N  N64  1  0.55399633  0.87288580  0.36162506  1
  N  N65  1  0.44434143  0.76098250  0.11115874  1
  N  N66  1  0.22183199  0.87251416  0.86109915  1
  N  N67  1  0.11101160  0.76098516  0.61115239  1
  N  N68  1  0.88878315  0.87209926  0.36143078  1
  N  N69  1  0.77758167  0.76089778  0.11166726  1
  N  N70  1  0.55531928  0.87251418  0.86109901  1
  N  N71  1  0.44433746  0.76099075  0.61143307  1
