# generated using pymatgen
data_Al36N35O
_symmetry_space_group_name_H-M   'P 1'
_cell_length_a   9.50598682
_cell_length_b   9.50598555
_cell_length_c   9.54785595
_cell_angle_alpha   89.99998225
_cell_angle_beta   90.00002923
_cell_angle_gamma   60.00001086
_symmetry_Int_Tables_number   1
_chemical_formula_structural   Al36N35O
_chemical_formula_sum   'Al36 N35 O1'
_cell_volume   747.18973147
_cell_formula_units_Z   1
loop_
 _symmetry_equiv_pos_site_id
 _symmetry_equiv_pos_as_xyz
  1  'x, y, z'
loop_
 _atom_site_type_symbol
 _atom_site_label
 _atom_site_symmetry_multiplicity
 _atom_site_fract_x
 _atom_site_fract_y
 _atom_site_fract_z
 _atom_site_occupancy
  Al  Al0  1  0.10799226  0.09124090  0.37895073  1
  Al  Al1  1  0.22213427  0.20538130  0.11705518  1
  Al  Al2  1  0.77777274  0.09410420  0.87947717  1
  Al  Al3  1  0.88909862  0.20556899  0.62978050  1
  Al  Al4  1  0.45041664  0.09124083  0.37895071  1
  Al  Al5  1  0.55628701  0.20652516  0.12985329  1
  Al  Al6  1  0.10975882  0.09300712  0.88235602  1
  Al  Al7  1  0.22213408  0.20538175  0.63635726  1
  Al  Al8  1  0.77788108  0.09388753  0.38039279  1
  Al  Al9  1  0.88683751  0.20652523  0.12985327  1
  Al  Al10  1  0.44688390  0.09300703  0.88235603  1
  Al  Al11  1  0.55498214  0.20556898  0.62978049  1
  Al  Al12  1  0.10799273  0.43366431  0.37895094  1
  Al  Al13  1  0.22327773  0.53953461  0.12985317  1
  Al  Al14  1  0.77786633  0.42751533  0.87929013  1
  Al  Al15  1  0.88909859  0.53822980  0.62978045  1
  Al  Al16  1  0.44506836  0.42831537  0.38115171  1
  Al  Al17  1  0.55546736  0.53871504  0.12878131  1
  Al  Al18  1  0.10975911  0.43013153  0.88235587  1
  Al  Al19  1  0.22232141  0.53822980  0.62978044  1
  Al  Al20  1  0.77626606  0.42831535  0.38115171  1
  Al  Al21  1  0.88683740  0.53953467  0.12985316  1
  Al  Al22  1  0.44426807  0.42751529  0.87929011  1
  Al  Al23  1  0.55546740  0.53871499  0.63113970  1
  Al  Al24  1  0.11063924  0.76112931  0.38039277  1
  Al  Al25  1  0.22327748  0.87008579  0.12985323  1
  Al  Al26  1  0.77777274  0.76102081  0.87947705  1
  Al  Al27  1  0.88880036  0.87204892  0.63044180  1
  Al  Al28  1  0.44506798  0.75951379  0.38115160  1
  Al  Al29  1  0.55628659  0.87008578  0.12985324  1
  Al  Al30  1  0.11085604  0.76102090  0.87947704  1
  Al  Al31  1  0.22232111  0.87234686  0.62978054  1
  Al  Al32  1  0.77788113  0.76112922  0.38039277  1
  Al  Al33  1  0.88880032  0.87204904  0.12934050  1
  Al  Al34  1  0.44426784  0.76111408  0.87929007  1
  Al  Al35  1  0.55498184  0.87234685  0.62978054  1
  O  O36  1  0.22213389  0.20538196  0.32330935  1
  N  N37  1  0.11079677  0.09404445  0.08270270  1
  N  N38  1  0.88973312  0.20474249  0.82868912  1
  N  N39  1  0.77763283  0.09438409  0.57878303  1
  N  N40  1  0.55451286  0.20633637  0.32879306  1
  N  N41  1  0.44480847  0.09404444  0.08270270  1
  N  N42  1  0.22213383  0.20538208  0.83553419  1
  N  N43  1  0.11279034  0.09603799  0.57581186  1
  N  N44  1  0.88880058  0.20633626  0.32879305  1
  N  N45  1  0.77759868  0.09445240  0.07871819  1
  N  N46  1  0.55517411  0.20474257  0.82868909  1
  N  N47  1  0.44082140  0.09603800  0.57581186  1
  N  N48  1  0.22308812  0.53776125  0.32879293  1
  N  N49  1  0.11079636  0.42805705  0.08270271  1
  N  N50  1  0.88973304  0.53842234  0.82868916  1
  N  N51  1  0.77756195  0.42766806  0.57939165  1
  N  N52  1  0.55546712  0.53871548  0.32809065  1
  N  N53  1  0.44431506  0.42756369  0.07823292  1
  N  N54  1  0.22149435  0.53842245  0.82868912  1
  N  N55  1  0.11279009  0.42406966  0.57581178  1
  N  N56  1  0.88880051  0.53776113  0.32879294  1
  N  N57  1  0.77777094  0.42756364  0.07823293  1
  N  N58  1  0.55546715  0.53871538  0.82935676  1
  N  N59  1  0.44441965  0.42766813  0.57939164  1
  N  N60  1  0.22308848  0.87204805  0.32879300  1
  N  N61  1  0.11120477  0.76084624  0.07871823  1
  N  N62  1  0.88880077  0.87204819  0.82906746  1
  N  N63  1  0.77763277  0.76088042  0.57878291  1
  N  N64  1  0.55451314  0.87204805  0.32879302  1
  N  N65  1  0.44431544  0.76101872  0.07823292  1
  N  N66  1  0.22149459  0.87298079  0.82868908  1
  N  N67  1  0.11113649  0.76088049  0.57878290  1
  N  N68  1  0.88880082  0.87204810  0.32844309  1
  N  N69  1  0.77759877  0.76084617  0.07871823  1
  N  N70  1  0.55517429  0.87298077  0.82868909  1
  N  N71  1  0.44441989  0.76080980  0.57939164  1
