# generated using pymatgen
data_Al36N35O
_symmetry_space_group_name_H-M   'P 1'
_cell_length_a   9.35181516
_cell_length_b   9.35181558
_cell_length_c   9.97909279
_cell_angle_alpha   89.99999691
_cell_angle_beta   90.00000079
_cell_angle_gamma   60.00000174
_symmetry_Int_Tables_number   1
_chemical_formula_structural   Al36N35O
_chemical_formula_sum   'Al36 N35 O1'
_cell_volume   755.81159122
_cell_formula_units_Z   1
loop_
 _symmetry_equiv_pos_site_id
 _symmetry_equiv_pos_as_xyz
  1  'x, y, z'
loop_
 _atom_site_type_symbol
 _atom_site_label
 _atom_site_symmetry_multiplicity
 _atom_site_fract_x
 _atom_site_fract_y
 _atom_site_fract_z
 _atom_site_occupancy
  Al  Al0  1  0.10723136  0.09045751  0.39303861  1
  Al  Al1  1  0.22213974  0.20536523  0.13273635  1
  Al  Al2  1  0.77782884  0.09398683  0.89108622  1
  Al  Al3  1  0.88824150  0.20586377  0.64173997  1
  Al  Al4  1  0.45195580  0.09045709  0.39303861  1
  Al  Al5  1  0.55593108  0.20607509  0.14055662  1
  Al  Al6  1  0.11054505  0.09377053  0.89162503  1
  Al  Al7  1  0.22213947  0.20536540  0.64420114  1
  Al  Al8  1  0.77776971  0.09410492  0.39133993  1
  Al  Al9  1  0.88763918  0.20607509  0.14055655  1
  Al  Al10  1  0.44532886  0.09377080  0.89162521  1
  Al  Al11  1  0.55553959  0.20586363  0.64173993  1
  Al  Al12  1  0.10723112  0.43518162  0.39303859  1
  Al  Al13  1  0.22284951  0.53915651  0.14055659  1
  Al  Al14  1  0.77752686  0.42767159  0.89105937  1
  Al  Al15  1  0.88824139  0.53876513  0.64174005  1
  Al  Al16  1  0.44489726  0.42812317  0.39206379  1
  Al  Al17  1  0.55547319  0.53869866  0.14064843  1
  Al  Al18  1  0.11054520  0.42855461  0.89162517  1
  Al  Al19  1  0.22263783  0.53876527  0.64173986  1
  Al  Al20  1  0.77662312  0.42812340  0.39206375  1
  Al  Al21  1  0.88763904  0.53915624  0.14055655  1
  Al  Al22  1  0.44444586  0.42767158  0.89105934  1
  Al  Al23  1  0.55547300  0.53869870  0.64182370  1
  Al  Al24  1  0.11087929  0.76099549  0.39133990  1
  Al  Al25  1  0.22284951  0.87086460  0.14055656  1
  Al  Al26  1  0.77782891  0.76105470  0.89108620  1
  Al  Al27  1  0.88880640  0.87203195  0.64139409  1
  Al  Al28  1  0.44489735  0.75984928  0.39206373  1
  Al  Al29  1  0.55593098  0.87086428  0.14055659  1
  Al  Al30  1  0.11076133  0.76105451  0.89108614  1
  Al  Al31  1  0.22263794  0.87146724  0.64173983  1
  Al  Al32  1  0.77776978  0.76099569  0.39133997  1
  Al  Al33  1  0.88880657  0.87203190  0.14093015  1
  Al  Al34  1  0.44444582  0.76075270  0.89105933  1
  Al  Al35  1  0.55553955  0.87146700  0.64173998  1
  O  O36  1  0.22213981  0.20536538  0.33111524  1
  N  N37  1  0.11118039  0.09440578  0.08426750  1
  N  N38  1  0.88921896  0.20508104  0.83243372  1
  N  N39  1  0.77760541  0.09443395  0.58186348  1
  N  N40  1  0.55402148  0.20603228  0.33190771  1
  N  N41  1  0.44405881  0.09440579  0.08426771  1
  N  N42  1  0.22213961  0.20536535  0.83444528  1
  N  N43  1  0.11194671  0.09517256  0.58101499  1
  N  N44  1  0.88959056  0.20603251  0.33190764  1
  N  N45  1  0.77769283  0.09425947  0.08238242  1
  N  N46  1  0.55534457  0.20508107  0.83243368  1
  N  N47  1  0.44252531  0.09517244  0.58101506  1
  N  N48  1  0.22280643  0.53724724  0.33190770  1
  N  N49  1  0.11118040  0.42728421  0.08426765  1
  N  N50  1  0.88921900  0.53857022  0.83243380  1
  N  N51  1  0.77768761  0.42759135  0.58237129  1
  N  N52  1  0.55547256  0.53869864  0.33191793  1
  N  N53  1  0.44436129  0.42758685  0.08210226  1
  N  N54  1  0.22185537  0.53857029  0.83243360  1
  N  N55  1  0.11194662  0.42575110  0.58101500  1
  N  N56  1  0.88959032  0.53724728  0.33190764  1
  N  N57  1  0.77769674  0.42758682  0.08210226  1
  N  N58  1  0.55547285  0.53869866  0.83234129  1
  N  N59  1  0.44436554  0.42759129  0.58237130  1
  N  N60  1  0.22280653  0.87281657  0.33190766  1
  N  N61  1  0.11103405  0.76091824  0.08238235  1
  N  N62  1  0.88880646  0.87203198  0.83217350  1
  N  N63  1  0.77760536  0.76083098  0.58186348  1
  N  N64  1  0.55402151  0.87281620  0.33190767  1
  N  N65  1  0.44436126  0.76092229  0.08210225  1
  N  N66  1  0.22185538  0.87244462  0.83243356  1
  N  N67  1  0.11120827  0.76083108  0.58186343  1
  N  N68  1  0.88880638  0.87203198  0.33210192  1
  N  N69  1  0.77769277  0.76091814  0.08238235  1
  N  N70  1  0.55534453  0.87244465  0.83243373  1
  N  N71  1  0.44436557  0.76091340  0.58237122  1
