# generated using pymatgen
data_Al36N35O
_symmetry_space_group_name_H-M   'P 1'
_cell_length_a   9.35168989
_cell_length_b   9.35169053
_cell_length_c   9.97941224
_cell_angle_alpha   90.00000254
_cell_angle_beta   90.00000069
_cell_angle_gamma   60.00000082
_symmetry_Int_Tables_number   1
_chemical_formula_structural   Al36N35O
_chemical_formula_sum   'Al36 N35 O1'
_cell_volume   755.81554866
_cell_formula_units_Z   1
loop_
 _symmetry_equiv_pos_site_id
 _symmetry_equiv_pos_as_xyz
  1  'x, y, z'
loop_
 _atom_site_type_symbol
 _atom_site_label
 _atom_site_symmetry_multiplicity
 _atom_site_fract_x
 _atom_site_fract_y
 _atom_site_fract_z
 _atom_site_occupancy
  Al  Al0  1  0.10723869  0.09042976  0.40465926  1
  Al  Al1  1  0.22214875  0.20533916  0.14436834  1
  Al  Al2  1  0.77783877  0.09395890  0.90270464  1
  Al  Al3  1  0.88824840  0.20583771  0.65335856  1
  Al  Al4  1  0.45196806  0.09042934  0.40465930  1
  Al  Al5  1  0.55594160  0.20604961  0.15217486  1
  Al  Al6  1  0.11055275  0.09374310  0.90325005  1
  Al  Al7  1  0.22214844  0.20533929  0.65582610  1
  Al  Al8  1  0.77777875  0.09407865  0.40295526  1
  Al  Al9  1  0.88764606  0.20604958  0.15217481  1
  Al  Al10  1  0.44534058  0.09374336  0.90325019  1
  Al  Al11  1  0.55555065  0.20583756  0.65335853  1
  Al  Al12  1  0.10723842  0.43515887  0.40465925  1
  Al  Al13  1  0.22285911  0.53913196  0.15217485  1
  Al  Al14  1  0.77753456  0.42764616  0.90267728  1
  Al  Al15  1  0.88824827  0.53874109  0.65335865  1
  Al  Al16  1  0.44490706  0.42809791  0.40368192  1
  Al  Al17  1  0.55548223  0.53867257  0.15226609  1
  Al  Al18  1  0.11055289  0.42853119  0.90325015  1
  Al  Al19  1  0.22264687  0.53874122  0.65335850  1
  Al  Al20  1  0.77663046  0.42809811  0.40368184  1
  Al  Al21  1  0.88764589  0.53913170  0.15217482  1
  Al  Al22  1  0.44445558  0.42764613  0.90267728  1
  Al  Al23  1  0.55548205  0.53867258  0.65344185  1
  Al  Al24  1  0.11088807  0.76096950  0.40295525  1
  Al  Al25  1  0.22285914  0.87083633  0.15217485  1
  Al  Al26  1  0.77783883  0.76102951  0.90270464  1
  Al  Al27  1  0.88881537  0.87200584  0.65300912  1
  Al  Al28  1  0.44490715  0.75982154  0.40368186  1
  Al  Al29  1  0.55594149  0.87083607  0.15217486  1
  Al  Al30  1  0.11076851  0.76102932  0.90270460  1
  Al  Al31  1  0.22264699  0.87143903  0.65335847  1
  Al  Al32  1  0.77777880  0.76096970  0.40295529  1
  Al  Al33  1  0.88881553  0.87200580  0.15254702  1
  Al  Al34  1  0.44445554  0.76072523  0.90267727  1
  Al  Al35  1  0.55555060  0.87143877  0.65335861  1
  O  O36  1  0.22214876  0.20533932  0.34273697  1
  N  N37  1  0.11119133  0.09438155  0.09588297  1
  N  N38  1  0.88923124  0.20505419  0.84404829  1
  N  N39  1  0.77761378  0.09440911  0.59347832  1
  N  N40  1  0.55402780  0.20600570  0.34352184  1
  N  N41  1  0.44406401  0.09438160  0.09588315  1
  N  N42  1  0.22214864  0.20533924  0.84606469  1
  N  N43  1  0.11195750  0.09514821  0.59263638  1
  N  N44  1  0.88960269  0.20600588  0.34352177  1
  N  N45  1  0.77770141  0.09423428  0.09399284  1
  N  N46  1  0.55535109  0.20505424  0.84404826  1
  N  N47  1  0.44253070  0.09514811  0.59263647  1
  N  N48  1  0.22281492  0.53721850  0.34352184  1
  N  N49  1  0.11119131  0.42725432  0.09588309  1
  N  N50  1  0.88923126  0.53854157  0.84404838  1
  N  N51  1  0.77769890  0.42756408  0.59398857  1
  N  N52  1  0.55548155  0.53867251  0.34353116  1
  N  N53  1  0.44436961  0.42756006  0.09371222  1
  N  N54  1  0.22186371  0.53854166  0.84404823  1
  N  N55  1  0.11195742  0.42572139  0.59263640  1
  N  N56  1  0.88960243  0.53721854  0.34352180  1
  N  N57  1  0.77770720  0.42755997  0.09371216  1
  N  N58  1  0.55548190  0.53867252  0.84395459  1
  N  N59  1  0.44437344  0.42756406  0.59398866  1
  N  N60  1  0.22281500  0.87279362  0.34352182  1
  N  N61  1  0.11104392  0.76089173  0.09399281  1
  N  N62  1  0.88881547  0.87200587  0.84378492  1
  N  N63  1  0.77761370  0.76080424  0.59347836  1
  N  N64  1  0.55402780  0.87279327  0.34352185  1
  N  N65  1  0.44436956  0.76089757  0.09371219  1
  N  N66  1  0.22186368  0.87242176  0.84404819  1
  N  N67  1  0.11121855  0.76080432  0.59347831  1
  N  N68  1  0.88881534  0.87200589  0.34371403  1
  N  N69  1  0.77770130  0.76089159  0.09399282  1
  N  N70  1  0.55535102  0.87242177  0.84404834  1
  N  N71  1  0.44437344  0.76088952  0.59398858  1
