# generated using pymatgen
data_Al36N35O
_symmetry_space_group_name_H-M   'P 1'
_cell_length_a   9.35169030
_cell_length_b   9.35169072
_cell_length_c   9.97941506
_cell_angle_alpha   90.00000205
_cell_angle_beta   90.00000081
_cell_angle_gamma   60.00000051
_symmetry_Int_Tables_number   1
_chemical_formula_structural   Al36N35O
_chemical_formula_sum   'Al36 N35 O1'
_cell_volume   755.81580780
_cell_formula_units_Z   1
loop_
 _symmetry_equiv_pos_site_id
 _symmetry_equiv_pos_as_xyz
  1  'x, y, z'
loop_
 _atom_site_type_symbol
 _atom_site_label
 _atom_site_symmetry_multiplicity
 _atom_site_fract_x
 _atom_site_fract_y
 _atom_site_fract_z
 _atom_site_occupancy
  Al  Al0  1  0.10720932  0.09051527  0.30404596  1
  Al  Al1  1  0.22211898  0.20542466  0.05287897  1
  Al  Al2  1  0.77780931  0.09404432  0.80600049  1
  Al  Al3  1  0.88761665  0.20613493  0.55653018  1
  Al  Al4  1  0.45193837  0.09051487  0.30404593  1
  Al  Al5  1  0.55552115  0.20592296  0.05534681  1
  Al  Al6  1  0.11052329  0.09382848  0.80545533  1
  Al  Al7  1  0.22211931  0.20542455  0.56433714  1
  Al  Al8  1  0.77774931  0.09416399  0.30574983  1
  Al  Al9  1  0.88821896  0.20592310  0.05534678  1
  Al  Al10  1  0.44531117  0.09382872  0.80545520  1
  Al  Al11  1  0.55591215  0.20613494  0.55653015  1
  Al  Al12  1  0.10720908  0.43524402  0.30404597  1
  Al  Al13  1  0.22261743  0.53882656  0.05534686  1
  Al  Al14  1  0.77750511  0.42773156  0.80602780  1
  Al  Al15  1  0.88761651  0.53921706  0.55653017  1
  Al  Al16  1  0.44487760  0.42818331  0.30502341  1
  Al  Al17  1  0.55545260  0.53875796  0.05526344  1
  Al  Al18  1  0.11052342  0.42861661  0.80545525  1
  Al  Al19  1  0.22282962  0.53921733  0.55653015  1
  Al  Al20  1  0.77660101  0.42818353  0.30502347  1
  Al  Al21  1  0.88821886  0.53882643  0.05534670  1
  Al  Al22  1  0.44442614  0.42773152  0.80602779  1
  Al  Al23  1  0.55545278  0.53875794  0.55643893  1
  Al  Al24  1  0.11085858  0.76105490  0.30574984  1
  Al  Al25  1  0.22261754  0.87152443  0.05534687  1
  Al  Al26  1  0.77780937  0.76111487  0.80600048  1
  Al  Al27  1  0.88878609  0.87209119  0.55615806  1
  Al  Al28  1  0.44487768  0.75990700  0.30502344  1
  Al  Al29  1  0.55552113  0.87152419  0.05534673  1
  Al  Al30  1  0.11073912  0.76111468  0.80600053  1
  Al  Al31  1  0.22282965  0.87092175  0.55653014  1
  Al  Al32  1  0.77774936  0.76105513  0.30574979  1
  Al  Al33  1  0.88878594  0.87209122  0.05569599  1
  Al  Al34  1  0.44442609  0.76081064  0.80602779  1
  Al  Al35  1  0.55591206  0.87092149  0.55653014  1
  O  O36  1  0.22211931  0.20542471  0.36596815  1
  N  N37  1  0.11192800  0.09523356  0.11606929  1
  N  N38  1  0.88920173  0.20513965  0.86465715  1
  N  N39  1  0.77767195  0.09431970  0.61471241  1
  N  N40  1  0.55399843  0.20609114  0.36518347  1
  N  N41  1  0.44250130  0.09523348  0.11606920  1
  N  N42  1  0.22211920  0.20542463  0.86264072  1
  N  N43  1  0.11116184  0.09446691  0.61282231  1
  N  N44  1  0.88957309  0.20609133  0.36518351  1
  N  N45  1  0.77758432  0.09449449  0.11522703  1
  N  N46  1  0.55532165  0.20513969  0.86465718  1
  N  N47  1  0.44403464  0.09446695  0.61282218  1
  N  N48  1  0.22278549  0.53730398  0.36518346  1
  N  N49  1  0.11192794  0.42580682  0.11606927  1
  N  N50  1  0.88920175  0.53862698  0.86465706  1
  N  N51  1  0.77767773  0.42764539  0.61499305  1
  N  N52  1  0.55545208  0.53875797  0.36517417  1
  N  N53  1  0.44434401  0.42764949  0.11471690  1
  N  N54  1  0.22183432  0.53862706  0.86465722  1
  N  N55  1  0.11116182  0.42733980  0.61282224  1
  N  N56  1  0.88957288  0.53730403  0.36518348  1
  N  N57  1  0.77766940  0.42764950  0.11471698  1
  N  N58  1  0.55545245  0.53875793  0.86475080  1
  N  N59  1  0.44434017  0.42764546  0.61499299  1
  N  N60  1  0.22278556  0.87287892  0.36518345  1
  N  N61  1  0.11118909  0.76088971  0.11522705  1
  N  N62  1  0.88878604  0.87209126  0.86492034  1
  N  N63  1  0.77767186  0.76097696  0.61471242  1
  N  N64  1  0.55399843  0.87287860  0.36518344  1
  N  N65  1  0.44434402  0.76097488  0.11471693  1
  N  N66  1  0.22183428  0.87250711  0.86465723  1
  N  N67  1  0.11101451  0.76097710  0.61471243  1
  N  N68  1  0.88878589  0.87209129  0.36499125  1
  N  N69  1  0.77758428  0.76088965  0.11522698  1
  N  N70  1  0.55532159  0.87250711  0.86465709  1
  N  N71  1  0.44434013  0.76098295  0.61499300  1
