# generated using pymatgen
data_Al36N35O
_symmetry_space_group_name_H-M   'P 1'
_cell_length_a   9.61088694
_cell_length_b   9.61088674
_cell_length_c   9.22822826
_cell_angle_alpha   89.99998360
_cell_angle_beta   90.00002212
_cell_angle_gamma   60.00001320
_symmetry_Int_Tables_number   1
_chemical_formula_structural   Al36N35O
_chemical_formula_sum   'Al36 N35 O1'
_cell_volume   738.20323656
_cell_formula_units_Z   1
loop_
 _symmetry_equiv_pos_site_id
 _symmetry_equiv_pos_as_xyz
  1  'x, y, z'
loop_
 _atom_site_type_symbol
 _atom_site_label
 _atom_site_symmetry_multiplicity
 _atom_site_fract_x
 _atom_site_fract_y
 _atom_site_fract_z
 _atom_site_occupancy
  Al  Al0  1  0.10861592  0.09186383  0.37281999  1
  Al  Al1  1  0.22213399  0.20538194  0.10952348  1
  Al  Al2  1  0.77776452  0.09412069  0.87523695  1
  Al  Al3  1  0.88966693  0.20536115  0.62531064  1
  Al  Al4  1  0.44917009  0.09186378  0.37281998  1
  Al  Al5  1  0.55648031  0.20679347  0.12642429  1
  Al  Al6  1  0.10920649  0.09245441  0.87995051  1
  Al  Al7  1  0.22213398  0.20538191  0.63528694  1
  Al  Al8  1  0.77791641  0.09381688  0.37673041  1
  Al  Al9  1  0.88637610  0.20679342  0.12642428  1
  Al  Al10  1  0.44798910  0.09245429  0.87995052  1
  Al  Al11  1  0.55462170  0.20536116  0.62531062  1
  Al  Al12  1  0.10861588  0.43241803  0.37282002  1
  Al  Al13  1  0.22354559  0.53972821  0.12642428  1
  Al  Al14  1  0.77804682  0.42742530  0.87494189  1
  Al  Al15  1  0.88966683  0.53786954  0.62531066  1
  Al  Al16  1  0.44514835  0.42839622  0.37756792  1
  Al  Al17  1  0.55546728  0.53871513  0.12444925  1
  Al  Al18  1  0.10920635  0.43123709  0.87995050  1
  Al  Al19  1  0.22211330  0.53786963  0.62531063  1
  Al  Al20  1  0.77610513  0.42839618  0.37756787  1
  Al  Al21  1  0.88637605  0.53972810  0.12642426  1
  Al  Al22  1  0.44417746  0.42742532  0.87494184  1
  Al  Al23  1  0.55546728  0.53871512  0.62762606  1
  Al  Al24  1  0.11056902  0.76116431  0.37673039  1
  Al  Al25  1  0.22354555  0.86962402  0.12642428  1
  Al  Al26  1  0.77776440  0.76101232  0.87523701  1
  Al  Al27  1  0.88880059  0.87204845  0.62666777  1
  Al  Al28  1  0.44514830  0.75935300  0.37756787  1
  Al  Al29  1  0.55648019  0.86962396  0.12642426  1
  Al  Al30  1  0.11087283  0.76101243  0.87523697  1
  Al  Al31  1  0.22211330  0.87291482  0.62531064  1
  Al  Al32  1  0.77791633  0.76116423  0.37673035  1
  Al  Al33  1  0.88880060  0.87204847  0.12522453  1
  Al  Al34  1  0.44417744  0.76129468  0.87494189  1
  Al  Al35  1  0.55462162  0.87291474  0.62531066  1
  O  O36  1  0.22213398  0.20538195  0.32469792  1
  N  N37  1  0.11067988  0.09392784  0.08829117  1
  N  N38  1  0.89009217  0.20451612  0.83240116  1
  N  N39  1  0.77763477  0.09438021  0.58302411  1
  N  N40  1  0.55480565  0.20648896  0.33308811  1
  N  N41  1  0.44504221  0.09392777  0.08829116  1
  N  N42  1  0.22213400  0.20538201  0.84287233  1
  N  N43  1  0.11333903  0.09658697  0.57838379  1
  N  N44  1  0.88835521  0.20648891  0.33308811  1
  N  N45  1  0.77754838  0.09455303  0.08246639  1
  N  N46  1  0.55504153  0.20451614  0.83240112  1
  N  N47  1  0.43972382  0.09658690  0.57838378  1
  N  N48  1  0.22324107  0.53805358  0.33308811  1
  N  N49  1  0.11067982  0.42829019  0.08829115  1
  N  N50  1  0.89009204  0.53828938  0.83240118  1
  N  N51  1  0.77751372  0.42769191  0.58375009  1
  N  N52  1  0.55546727  0.53871516  0.33182561  1
  N  N53  1  0.44429534  0.42754324  0.08180070  1
  N  N54  1  0.22126825  0.53828949  0.83240113  1
  N  N55  1  0.11333896  0.42297182  0.57838382  1
  N  N56  1  0.88835516  0.53805349  0.33308808  1
  N  N57  1  0.77781111  0.42754322  0.08180074  1
  N  N58  1  0.55546726  0.53871514  0.83356157  1
  N  N59  1  0.44444401  0.42769191  0.58375012  1
  N  N60  1  0.22324102  0.87160314  0.33308811  1
  N  N61  1  0.11130511  0.76079634  0.08246641  1
  N  N62  1  0.88880057  0.87204847  0.83317994  1
  N  N63  1  0.77763469  0.76088263  0.58302408  1
  N  N64  1  0.55480556  0.87160309  0.33308808  1
  N  N65  1  0.44429531  0.76105902  0.08180075  1
  N  N66  1  0.22126822  0.87334010  0.83240116  1
  N  N67  1  0.11113230  0.76088272  0.58302410  1
  N  N68  1  0.88880058  0.87204850  0.33228124  1
  N  N69  1  0.77754828  0.76079624  0.08246642  1
  N  N70  1  0.55504142  0.87334000  0.83240118  1
  N  N71  1  0.44444401  0.76076161  0.58375009  1
