# generated using pymatgen
data_Al36N35O
_symmetry_space_group_name_H-M   'P 1'
_cell_length_a   9.75200661
_cell_length_b   9.75200621
_cell_length_c   8.77762565
_cell_angle_alpha   90.00000838
_cell_angle_beta   89.99999129
_cell_angle_gamma   60.00000701
_symmetry_Int_Tables_number   1
_chemical_formula_structural   Al36N35O
_chemical_formula_sum   'Al36 N35 O1'
_cell_volume   722.92904481
_cell_formula_units_Z   1
loop_
 _symmetry_equiv_pos_site_id
 _symmetry_equiv_pos_as_xyz
  1  'x, y, z'
loop_
 _atom_site_type_symbol
 _atom_site_label
 _atom_site_symmetry_multiplicity
 _atom_site_fract_x
 _atom_site_fract_y
 _atom_site_fract_z
 _atom_site_occupancy
  Al  Al0  1  0.10915950  0.09240748  0.34563496  1
  Al  Al1  1  0.22213395  0.20538205  0.07710139  1
  Al  Al2  1  0.77780796  0.09403394  0.84193699  1
  Al  Al3  1  0.88631523  0.20687856  0.58992916  1
  Al  Al4  1  0.44808298  0.09240735  0.34563495  1
  Al  Al5  1  0.55437118  0.20530670  0.09202267  1
  Al  Al6  1  0.10897374  0.09222170  0.83547185  1
  Al  Al7  1  0.22213394  0.20538219  0.60793057  1
  Al  Al8  1  0.77788736  0.09387509  0.33996351  1
  Al  Al9  1  0.88997194  0.20530678  0.09202271  1
  Al  Al10  1  0.44845461  0.09222154  0.83547185  1
  Al  Al11  1  0.55645608  0.20687870  0.58992920  1
  Al  Al12  1  0.10915928  0.43133115  0.34563496  1
  Al  Al13  1  0.22205859  0.53761936  0.09202264  1
  Al  Al14  1  0.77811439  0.42739160  0.84222811  1
  Al  Al15  1  0.88631510  0.53970398  0.58992923  1
  Al  Al16  1  0.44512833  0.42837645  0.33911356  1
  Al  Al17  1  0.55546719  0.53871525  0.08895425  1
  Al  Al18  1  0.10897348  0.43170281  0.83547184  1
  Al  Al19  1  0.22363065  0.53970419  0.58992921  1
  Al  Al20  1  0.77614483  0.42837651  0.33911364  1
  Al  Al21  1  0.88997175  0.53761930  0.09202262  1
  Al  Al22  1  0.44414359  0.42739167  0.84222820  1
  Al  Al23  1  0.55546717  0.53871527  0.59264566  1
  Al  Al24  1  0.11062708  0.76113543  0.33996353  1
  Al  Al25  1  0.22205874  0.87321997  0.09202269  1
  Al  Al26  1  0.77780783  0.76105593  0.84193686  1
  Al  Al27  1  0.88880057  0.87204858  0.59169277  1
  Al  Al28  1  0.44512844  0.75939285  0.33911366  1
  Al  Al29  1  0.55437117  0.87321981  0.09202263  1
  Al  Al30  1  0.11078592  0.76105602  0.84193697  1
  Al  Al31  1  0.22363052  0.86956331  0.58992916  1
  Al  Al32  1  0.77788730  0.76113538  0.33996363  1
  Al  Al33  1  0.88880060  0.87204860  0.09024141  1
  Al  Al34  1  0.44414355  0.76136243  0.84222808  1
  Al  Al35  1  0.55645585  0.86956319  0.58992923  1
  O  O36  1  0.22213399  0.20538216  0.37825433  1
  N  N37  1  0.11377282  0.09702095  0.12380354  1
  N  N38  1  0.89040940  0.20433747  0.86832235  1
  N  N39  1  0.77752366  0.09460253  0.61819728  1
  N  N40  1  0.55501630  0.20643953  0.36724158  1
  N  N41  1  0.43885620  0.09702078  0.12380352  1
  N  N42  1  0.22213397  0.20538215  0.85677830  1
  N  N43  1  0.11102256  0.09427074  0.61105017  1
  N  N44  1  0.88819396  0.20643960  0.36724156  1
  N  N45  1  0.77757829  0.09449329  0.11734697  1
  N  N46  1  0.55490300  0.20433743  0.86832233  1
  N  N47  1  0.44435677  0.09427060  0.61105020  1
  N  N48  1  0.22319147  0.53826438  0.36724159  1
  N  N49  1  0.11377262  0.42210442  0.12380350  1
  N  N50  1  0.89040920  0.53815101  0.86832229  1
  N  N51  1  0.77778646  0.42755560  0.61907254  1
  N  N52  1  0.55546723  0.53871522  0.36869648  1
  N  N53  1  0.44441527  0.42766330  0.11654960  1
  N  N54  1  0.22108939  0.53815108  0.86832232  1
  N  N55  1  0.11102245  0.42760491  0.61105021  1
  N  N56  1  0.88819386  0.53826437  0.36724164  1
  N  N57  1  0.77757104  0.42766340  0.11654966  1
  N  N58  1  0.55546725  0.53871525  0.86704173  1
  N  N59  1  0.44430761  0.42755563  0.61907260  1
  N  N60  1  0.22319152  0.87144208  0.36724157  1
  N  N61  1  0.11124513  0.76082646  0.11734699  1
  N  N62  1  0.88880051  0.87204863  0.86739146  1
  N  N63  1  0.77752352  0.76077168  0.61819722  1
  N  N64  1  0.55501628  0.87144197  0.36724164  1
  N  N65  1  0.44441535  0.76081910  0.11654968  1
  N  N66  1  0.22108940  0.87365755  0.86832234  1
  N  N67  1  0.11135440  0.76077182  0.61819726  1
  N  N68  1  0.88880052  0.87204867  0.36820321  1
  N  N69  1  0.77757820  0.76082637  0.11734703  1
  N  N70  1  0.55490288  0.87365736  0.86832230  1
  N  N71  1  0.44430756  0.76103452  0.61907252  1
