# generated using pymatgen
data_Al36N35O
_symmetry_space_group_name_H-M   'P 1'
_cell_length_a   9.87311131
_cell_length_b   9.87311051
_cell_length_c   8.39781277
_cell_angle_alpha   89.99999941
_cell_angle_beta   90.00000389
_cell_angle_gamma   60.00001372
_symmetry_Int_Tables_number   1
_chemical_formula_structural   Al36N35O
_chemical_formula_sum   'Al36 N35 O1'
_cell_volume   708.93253966
_cell_formula_units_Z   1
loop_
 _symmetry_equiv_pos_site_id
 _symmetry_equiv_pos_as_xyz
  1  'x, y, z'
loop_
 _atom_site_type_symbol
 _atom_site_label
 _atom_site_symmetry_multiplicity
 _atom_site_fract_x
 _atom_site_fract_y
 _atom_site_fract_z
 _atom_site_occupancy
  Al  Al0  1  0.10895060  0.09219862  0.35336887  1
  Al  Al1  1  0.22213394  0.20538215  0.08538560  1
  Al  Al2  1  0.77791521  0.09381946  0.85273635  1
  Al  Al3  1  0.88745728  0.20636635  0.60144670  1
  Al  Al4  1  0.44850081  0.09219831  0.35336891  1
  Al  Al5  1  0.55488693  0.20588441  0.10275960  1
  Al  Al6  1  0.10947503  0.09272307  0.84878839  1
  Al  Al7  1  0.22213395  0.20538218  0.61368529  1
  Al  Al8  1  0.77781458  0.09402068  0.35191907  1
  Al  Al9  1  0.88887846  0.20588455  0.10275962  1
  Al  Al10  1  0.44745190  0.09272286  0.84878836  1
  Al  Al11  1  0.55582631  0.20636639  0.60144673  1
  Al  Al12  1  0.10895021  0.43174906  0.35336892  1
  Al  Al13  1  0.22263635  0.53813510  0.10275958  1
  Al  Al14  1  0.77782952  0.42753408  0.85271322  1
  Al  Al15  1  0.88745706  0.53907427  0.60144677  1
  Al  Al16  1  0.44492213  0.42817020  0.35167554  1
  Al  Al17  1  0.55546722  0.53871521  0.10123362  1
  Al  Al18  1  0.10947477  0.43070012  0.84878835  1
  Al  Al19  1  0.22311836  0.53907444  0.60144674  1
  Al  Al20  1  0.77655715  0.42817035  0.35167558  1
  Al  Al21  1  0.88887822  0.53813507  0.10275955  1
  Al  Al22  1  0.44428603  0.42753407  0.85271327  1
  Al  Al23  1  0.55546722  0.53871522  0.60332497  1
  Al  Al24  1  0.11077260  0.76106271  0.35191908  1
  Al  Al25  1  0.22263653  0.87212651  0.10275961  1
  Al  Al26  1  0.77791511  0.76116324  0.85273626  1
  Al  Al27  1  0.88880058  0.87204866  0.60253174  1
  Al  Al28  1  0.44492233  0.75980512  0.35167559  1
  Al  Al29  1  0.55488693  0.87212631  0.10275956  1
  Al  Al30  1  0.11057139  0.76116334  0.85273633  1
  Al  Al31  1  0.22311833  0.87070537  0.60144671  1
  Al  Al32  1  0.77781453  0.76106266  0.35191914  1
  Al  Al33  1  0.88880059  0.87204868  0.10226594  1
  Al  Al34  1  0.44428606  0.76107751  0.85271321  1
  Al  Al35  1  0.55582613  0.87070518  0.60144676  1
  O  O36  1  0.22213391  0.20538211  0.36403965  1
  N  N37  1  0.11325428  0.09650235  0.11222389  1
  N  N38  1  0.89014728  0.20447407  0.85678756  1
  N  N39  1  0.77754648  0.09455692  0.60647423  1
  N  N40  1  0.55496156  0.20602270  0.35650409  1
  N  N41  1  0.43989333  0.09650217  0.11222390  1
  N  N42  1  0.22213395  0.20538214  0.85300736  1
  N  N43  1  0.11197633  0.09522443  0.60209188  1
  N  N44  1  0.88866547  0.20602282  0.35650409  1
  N  N45  1  0.77749964  0.09465059  0.10656157  1
  N  N46  1  0.55502854  0.20447402  0.85678754  1
  N  N47  1  0.44244926  0.09522428  0.60209187  1
  N  N48  1  0.22277467  0.53820969  0.35650410  1
  N  N49  1  0.11325406  0.42314153  0.11222391  1
  N  N50  1  0.89014707  0.53827657  0.85678754  1
  N  N51  1  0.77764448  0.42762659  0.60714454  1
  N  N52  1  0.55546719  0.53871514  0.35655441  1
  N  N53  1  0.44432918  0.42757723  0.10594665  1
  N  N54  1  0.22122600  0.53827666  0.85678754  1
  N  N55  1  0.11197615  0.42569749  0.60209187  1
  N  N56  1  0.88866523  0.53820969  0.35650413  1
  N  N57  1  0.77774315  0.42757732  0.10594666  1
  N  N58  1  0.55546722  0.53871519  0.85646864  1
  N  N59  1  0.44437856  0.42762659  0.60714454  1
  N  N60  1  0.22277483  0.87191351  0.35650410  1
  N  N61  1  0.11140249  0.76074779  0.10656157  1
  N  N62  1  0.88880056  0.87204862  0.85647312  1
  N  N63  1  0.77754637  0.76079451  0.60647425  1
  N  N64  1  0.55496158  0.87191330  0.35650413  1
  N  N65  1  0.44432930  0.76099114  0.10594667  1
  N  N66  1  0.22122607  0.87339533  0.85678756  1
  N  N67  1  0.11130884  0.76079462  0.60647423  1
  N  N68  1  0.88880057  0.87204863  0.35647774  1
  N  N69  1  0.77749958  0.76074772  0.10656157  1
  N  N70  1  0.55502846  0.87339515  0.85678754  1
  N  N71  1  0.44437858  0.76089248  0.60714453  1
