# generated using pymatgen
data_Al36N35O
_symmetry_space_group_name_H-M   'P 1'
_cell_length_a   9.35166520
_cell_length_b   9.35166558
_cell_length_c   9.97946907
_cell_angle_alpha   90.00000044
_cell_angle_beta   90.00000011
_cell_angle_gamma   60.00000095
_symmetry_Int_Tables_number   1
_chemical_formula_structural   Al36N35O
_chemical_formula_sum   'Al36 N35 O1'
_cell_volume   755.81584179
_cell_formula_units_Z   1
loop_
 _symmetry_equiv_pos_site_id
 _symmetry_equiv_pos_as_xyz
  1  'x, y, z'
loop_
 _atom_site_type_symbol
 _atom_site_label
 _atom_site_symmetry_multiplicity
 _atom_site_fract_x
 _atom_site_fract_y
 _atom_site_fract_z
 _atom_site_occupancy
  Al  Al0  1  0.10721308  0.09050769  0.30778497  1
  Al  Al1  1  0.22212193  0.20541628  0.05662367  1
  Al  Al2  1  0.77781206  0.09403625  0.80973327  1
  Al  Al3  1  0.88761980  0.20612621  0.56026347  1
  Al  Al4  1  0.45193962  0.09050728  0.30778497  1
  Al  Al5  1  0.55552380  0.20591484  0.05908231  1
  Al  Al6  1  0.11052597  0.09381991  0.80919523  1
  Al  Al7  1  0.22212216  0.20541619  0.56808695  1
  Al  Al8  1  0.77775242  0.09415521  0.30948195  1
  Al  Al9  1  0.88822187  0.20591500  0.05908230  1
  Al  Al10  1  0.44531444  0.09382016  0.80919507  1
  Al  Al11  1  0.55591508  0.20612623  0.56026341  1
  Al  Al12  1  0.10721284  0.43523391  0.30778501  1
  Al  Al13  1  0.22262066  0.53881787  0.05908239  1
  Al  Al14  1  0.77750802  0.42772318  0.80976067  1
  Al  Al15  1  0.88761966  0.53920876  0.56026346  1
  Al  Al16  1  0.44488038  0.42817475  0.30875830  1
  Al  Al17  1  0.55545550  0.53874955  0.05899761  1
  Al  Al18  1  0.11052610  0.42860865  0.80919512  1
  Al  Al19  1  0.22283213  0.53920905  0.56026342  1
  Al  Al20  1  0.77660419  0.42817497  0.30875835  1
  Al  Al21  1  0.88822176  0.53881773  0.05908222  1
  Al  Al22  1  0.44442899  0.42772315  0.80976069  1
  Al  Al23  1  0.55545562  0.53874959  0.56017101  1
  Al  Al24  1  0.11086114  0.76104667  0.30948198  1
  Al  Al25  1  0.22262076  0.87151602  0.05908241  1
  Al  Al26  1  0.77781211  0.76110636  0.80973327  1
  Al  Al27  1  0.88878897  0.87208282  0.55988979  1
  Al  Al28  1  0.44488046  0.75989883  0.30875835  1
  Al  Al29  1  0.55552375  0.87151576  0.05908226  1
  Al  Al30  1  0.11074231  0.76110617  0.80973332  1
  Al  Al31  1  0.22283214  0.87091369  0.56026344  1
  Al  Al32  1  0.77775246  0.76104687  0.30948191  1
  Al  Al33  1  0.88878888  0.87208281  0.05942777  1
  Al  Al34  1  0.44442894  0.76080231  0.80976070  1
  Al  Al35  1  0.55591498  0.87091340  0.56026343  1
  O  O36  1  0.22212221  0.20541627  0.36971147  1
  N  N37  1  0.11193031  0.09522456  0.11981016  1
  N  N38  1  0.88920358  0.20513189  0.86839459  1
  N  N39  1  0.77767486  0.09431123  0.61844727  1
  N  N40  1  0.55400212  0.20608273  0.36891983  1
  N  N41  1  0.44250548  0.09522444  0.11981008  1
  N  N42  1  0.22212208  0.20541627  0.86638424  1
  N  N43  1  0.11116372  0.09445758  0.61656297  1
  N  N44  1  0.88957524  0.20608292  0.36891987  1
  N  N45  1  0.77758748  0.09448565  0.11896236  1
  N  N46  1  0.55532498  0.20513191  0.86839463  1
  N  N47  1  0.44403944  0.09445762  0.61656278  1
  N  N48  1  0.22278841  0.53729633  0.36891983  1
  N  N49  1  0.11193023  0.42579968  0.11981016  1
  N  N50  1  0.88920360  0.53861905  0.86839451  1
  N  N51  1  0.77768047  0.42763707  0.61872781  1
  N  N52  1  0.55545499  0.53874952  0.36890956  1
  N  N53  1  0.44434712  0.42764126  0.11845447  1
  N  N54  1  0.22183779  0.53861915  0.86839469  1
  N  N55  1  0.11116371  0.42733339  0.61656285  1
  N  N56  1  0.88957501  0.53729637  0.36891986  1
  N  N57  1  0.77767192  0.42764128  0.11845454  1
  N  N58  1  0.55545533  0.53874957  0.86848648  1
  N  N59  1  0.44434307  0.42763715  0.61872777  1
  N  N60  1  0.22278848  0.87286973  0.36891984  1
  N  N61  1  0.11119159  0.76088152  0.11896241  1
  N  N62  1  0.88878893  0.87208289  0.86865456  1
  N  N63  1  0.77767477  0.76096865  0.61844730  1
  N  N64  1  0.55400212  0.87286936  0.36891983  1
  N  N65  1  0.44434712  0.76096607  0.11845453  1
  N  N66  1  0.22183776  0.87249770  0.86839472  1
  N  N67  1  0.11101727  0.76096879  0.61844732  1
  N  N68  1  0.88878881  0.87208287  0.36872569  1
  N  N69  1  0.77758740  0.76088144  0.11896234  1
  N  N70  1  0.55532492  0.87249770  0.86839456  1
  N  N71  1  0.44434302  0.76097449  0.61872780  1
