# generated using pymatgen
data_Al36N35O
_symmetry_space_group_name_H-M   'P 1'
_cell_length_a   9.70746194
_cell_length_b   9.70746224
_cell_length_c   8.92152666
_cell_angle_alpha   89.99998890
_cell_angle_beta   90.00001236
_cell_angle_gamma   60.00001318
_symmetry_Int_Tables_number   1
_chemical_formula_structural   Al36N35O
_chemical_formula_sum   'Al36 N35 O1'
_cell_volume   728.08364095
_cell_formula_units_Z   1
loop_
 _symmetry_equiv_pos_site_id
 _symmetry_equiv_pos_as_xyz
  1  'x, y, z'
loop_
 _atom_site_type_symbol
 _atom_site_label
 _atom_site_symmetry_multiplicity
 _atom_site_fract_x
 _atom_site_fract_y
 _atom_site_fract_z
 _atom_site_occupancy
  Al  Al0  1  0.10904424  0.09229210  0.36624598  1
  Al  Al1  1  0.22213402  0.20538201  0.10316030  1
  Al  Al2  1  0.77778785  0.09407406  0.86989393  1
  Al  Al3  1  0.88997033  0.20527671  0.61982772  1
  Al  Al4  1  0.44831356  0.09229197  0.36624598  1
  Al  Al5  1  0.55651541  0.20690576  0.12172183  1
  Al  Al6  1  0.10895796  0.09220584  0.87599173  1
  Al  Al7  1  0.22213398  0.20538194  0.63311109  1
  Al  Al8  1  0.77790540  0.09383893  0.37180955  1
  Al  Al9  1  0.88622878  0.20690565  0.12172185  1
  Al  Al10  1  0.44848623  0.09220566  0.87599173  1
  Al  Al11  1  0.55440281  0.20527663  0.61982773  1
  Al  Al12  1  0.10904408  0.43156151  0.36624600  1
  Al  Al13  1  0.22365788  0.53976332  0.12172182  1
  Al  Al14  1  0.77812002  0.42738866  0.86956579  1
  Al  Al15  1  0.88997016  0.53765071  0.61982778  1
  Al  Al16  1  0.44515532  0.42840319  0.37268507  1
  Al  Al17  1  0.55546725  0.53871513  0.11912949  1
  Al  Al18  1  0.10895774  0.43173423  0.87599172  1
  Al  Al19  1  0.22202874  0.53765076  0.61982774  1
  Al  Al20  1  0.77609109  0.42840323  0.37268499  1
  Al  Al21  1  0.88622867  0.53976314  0.12172180  1
  Al  Al22  1  0.44414086  0.42738870  0.86956570  1
  Al  Al23  1  0.55546725  0.53871512  0.62280305  1
  Al  Al24  1  0.11059107  0.76115329  0.37180953  1
  Al  Al25  1  0.22365776  0.86947672  0.12172185  1
  Al  Al26  1  0.77778771  0.76103563  0.86989403  1
  Al  Al27  1  0.88880059  0.87204848  0.62160565  1
  Al  Al28  1  0.44515537  0.75933894  0.37268498  1
  Al  Al29  1  0.55651519  0.86947663  0.12172181  1
  Al  Al30  1  0.11082621  0.76103574  0.86989396  1
  Al  Al31  1  0.22202883  0.87321822  0.61982773  1
  Al  Al32  1  0.77790532  0.76115322  0.37180946  1
  Al  Al33  1  0.88880057  0.87204846  0.12005666  1
  Al  Al34  1  0.44414082  0.76136787  0.86956580  1
  Al  Al35  1  0.55440275  0.87321808  0.61982777  1
  O  O36  1  0.22213403  0.20538202  0.32800550  1
  N  N37  1  0.11084828  0.09409623  0.09451595  1
  N  N38  1  0.89035251  0.20436808  0.83734376  1
  N  N39  1  0.77760497  0.09443987  0.58829327  1
  N  N40  1  0.55498379  0.20650180  0.33839643  1
  N  N41  1  0.44470552  0.09409612  0.09451591  1
  N  N42  1  0.22213401  0.20538203  0.84937758  1
  N  N43  1  0.11369318  0.09694108  0.58228688  1
  N  N44  1  0.88816422  0.20650180  0.33839644  1
  N  N45  1  0.77752460  0.09460062  0.08743059  1
  N  N46  1  0.55492926  0.20436808  0.83734374  1
  N  N47  1  0.43901564  0.09694096  0.58228689  1
  N  N48  1  0.22325389  0.53823172  0.33839642  1
  N  N49  1  0.11084817  0.42795350  0.09451590  1
  N  N50  1  0.89035231  0.53817708  0.83734380  1
  N  N51  1  0.77753140  0.42768309  0.58909250  1
  N  N52  1  0.55546726  0.53871514  0.33686213  1
  N  N53  1  0.44429584  0.42754371  0.08660671  1
  N  N54  1  0.22112020  0.53817720  0.83734375  1
  N  N55  1  0.11369303  0.42226362  0.58228692  1
  N  N56  1  0.88816415  0.53823167  0.33839638  1
  N  N57  1  0.77781012  0.42754367  0.08660678  1
  N  N58  1  0.55546727  0.53871515  0.83869617  1
  N  N59  1  0.44443516  0.42768305  0.58909256  1
  N  N60  1  0.22325389  0.87141216  0.33839643  1
  N  N61  1  0.11135274  0.76077252  0.08743061  1
  N  N62  1  0.88880058  0.87204847  0.83829792  1
  N  N63  1  0.77760488  0.76085282  0.58829322  1
  N  N64  1  0.55498374  0.87141208  0.33839638  1
  N  N65  1  0.44429579  0.76105800  0.08660679  1
  N  N66  1  0.22112019  0.87360044  0.83734377  1
  N  N67  1  0.11119196  0.76085291  0.58829326  1
  N  N68  1  0.88880059  0.87204851  0.33736919  1
  N  N69  1  0.77752446  0.76077239  0.08743064  1
  N  N70  1  0.55492912  0.87360028  0.83734380  1
  N  N71  1  0.44443521  0.76077926  0.58909249  1
