# generated using pymatgen
data_Al36N35O
_symmetry_space_group_name_H-M   'P 1'
_cell_length_a   9.35181012
_cell_length_b   9.35181255
_cell_length_c   9.97908996
_cell_angle_alpha   90.00000095
_cell_angle_beta   89.99999873
_cell_angle_gamma   60.00000716
_symmetry_Int_Tables_number   1
_chemical_formula_structural   Al36N35O
_chemical_formula_sum   'Al36 N35 O1'
_cell_volume   755.81076656
_cell_formula_units_Z   1
loop_
 _symmetry_equiv_pos_site_id
 _symmetry_equiv_pos_as_xyz
  1  'x, y, z'
loop_
 _atom_site_type_symbol
 _atom_site_label
 _atom_site_symmetry_multiplicity
 _atom_site_fract_x
 _atom_site_fract_y
 _atom_site_fract_z
 _atom_site_occupancy
  Al  Al0  1  0.10721579  0.09048679  0.31566452  1
  Al  Al1  1  0.22212805  0.20539852  0.06450957  1
  Al  Al2  1  0.77781897  0.09401702  0.81760872  1
  Al  Al3  1  0.88762495  0.20610886  0.56814259  1
  Al  Al4  1  0.45195232  0.09048640  0.31566449  1
  Al  Al5  1  0.55553290  0.20589981  0.06696146  1
  Al  Al6  1  0.11053111  0.09380132  0.81707817  1
  Al  Al7  1  0.22212836  0.20539835  0.57595945  1
  Al  Al8  1  0.77775870  0.09413714  0.31736283  1
  Al  Al9  1  0.88822227  0.20589997  0.06696150  1
  Al  Al10  1  0.44532247  0.09380155  0.81707799  1
  Al  Al11  1  0.55592179  0.20610894  0.56814256  1
  Al  Al12  1  0.10721568  0.43522276  0.31566451  1
  Al  Al13  1  0.22262952  0.53880308  0.06696162  1
  Al  Al14  1  0.77751056  0.42770708  0.81763655  1
  Al  Al15  1  0.88762475  0.53919155  0.56814260  1
  Al  Al16  1  0.44488778  0.42815805  0.31664013  1
  Al  Al17  1  0.55546160  0.53873177  0.06687739  1
  Al  Al18  1  0.11053138  0.42859267  0.81707808  1
  Al  Al19  1  0.22283883  0.53919182  0.56814258  1
  Al  Al20  1  0.77660799  0.42815828  0.31664017  1
  Al  Al21  1  0.88822213  0.53880294  0.06696145  1
  Al  Al22  1  0.44443710  0.42770707  0.81763656  1
  Al  Al23  1  0.55546181  0.53873181  0.56804627  1
  Al  Al24  1  0.11086669  0.76102931  0.31736292  1
  Al  Al25  1  0.22262947  0.87149276  0.06696154  1
  Al  Al26  1  0.77781899  0.76108944  0.81760876  1
  Al  Al27  1  0.88879492  0.87206535  0.56776735  1
  Al  Al28  1  0.44488772  0.75987881  0.31664016  1
  Al  Al29  1  0.55553270  0.87149249  0.06696136  1
  Al  Al30  1  0.11074684  0.76108929  0.81760878  1
  Al  Al31  1  0.22283869  0.87089516  0.56814259  1
  Al  Al32  1  0.77775872  0.76102952  0.31736281  1
  Al  Al33  1  0.88879486  0.87206524  0.06730775  1
  Al  Al34  1  0.44443689  0.76078092  0.81763663  1
  Al  Al35  1  0.55592147  0.87089488  0.56814260  1
  O  O36  1  0.22212829  0.20539863  0.37758044  1
  N  N37  1  0.11193617  0.09520655  0.12767789  1
  N  N38  1  0.88921050  0.20511445  0.87626628  1
  N  N39  1  0.77768097  0.09429355  0.62631850  1
  N  N40  1  0.55400727  0.20606346  0.37679152  1
  N  N41  1  0.44251211  0.09520645  0.12767772  1
  N  N42  1  0.22212820  0.20539861  0.87426425  1
  N  N43  1  0.11117262  0.09444259  0.62443933  1
  N  N44  1  0.88958386  0.20606361  0.37679154  1
  N  N45  1  0.77759347  0.09446809  0.12683304  1
  N  N46  1  0.55533008  0.20511450  0.87626626  1
  N  N47  1  0.44404009  0.09444264  0.62443908  1
  N  N48  1  0.22279285  0.53727781  0.37679154  1
  N  N49  1  0.11193603  0.42578259  0.12767789  1
  N  N50  1  0.88921050  0.53860029  0.87626618  1
  N  N51  1  0.77768845  0.42761854  0.62659935  1
  N  N52  1  0.55546106  0.53873193  0.37677939  1
  N  N53  1  0.44435217  0.42762264  0.12632546  1
  N  N54  1  0.22184419  0.53860041  0.87626633  1
  N  N55  1  0.11117251  0.42731038  0.62443921  1
  N  N56  1  0.88958357  0.53727788  0.37679151  1
  N  N57  1  0.77767990  0.42762269  0.12632558  1
  N  N58  1  0.55546147  0.53873186  0.87635814  1
  N  N59  1  0.44434821  0.42761864  0.62659927  1
  N  N60  1  0.22279300  0.87285447  0.37679156  1
  N  N61  1  0.11119787  0.76086370  0.12683317  1
  N  N62  1  0.88879515  0.87206501  0.87652626  1
  N  N63  1  0.77768086  0.76095082  0.62631849  1
  N  N64  1  0.55400731  0.87285411  0.37679153  1
  N  N65  1  0.44435221  0.76095030  0.12632548  1
  N  N66  1  0.22184418  0.87248069  0.87626633  1
  N  N67  1  0.11102347  0.76095100  0.62631854  1
  N  N68  1  0.88879493  0.87206509  0.37659632  1
  N  N69  1  0.77759334  0.76086361  0.12683300  1
  N  N70  1  0.55533004  0.87248063  0.87626617  1
  N  N71  1  0.44434826  0.76095855  0.62659933  1
