# generated using pymatgen
data_Al36N35O
_symmetry_space_group_name_H-M   'P 1'
_cell_length_a   9.35167218
_cell_length_b   9.35167344
_cell_length_c   9.97946604
_cell_angle_alpha   90.00001784
_cell_angle_beta   90.00004856
_cell_angle_gamma   60.00000269
_symmetry_Int_Tables_number   1
_chemical_formula_structural   Al36N35O
_chemical_formula_sum   'Al36 N35 O1'
_cell_volume   755.81682406
_cell_formula_units_Z   1
loop_
 _symmetry_equiv_pos_site_id
 _symmetry_equiv_pos_as_xyz
  1  'x, y, z'
loop_
 _atom_site_type_symbol
 _atom_site_label
 _atom_site_symmetry_multiplicity
 _atom_site_fract_x
 _atom_site_fract_y
 _atom_site_fract_z
 _atom_site_occupancy
  Al  Al0  1  0.10720441  0.09053160  0.29699007  1
  Al  Al1  1  0.22211343  0.20544049  0.04582631  1
  Al  Al2  1  0.77780367  0.09406030  0.79894357  1
  Al  Al3  1  0.88761086  0.20615089  0.54947247  1
  Al  Al4  1  0.45193188  0.09053148  0.29699025  1
  Al  Al5  1  0.55551497  0.20593854  0.04829155  1
  Al  Al6  1  0.11051792  0.09384419  0.79840154  1
  Al  Al7  1  0.22211392  0.20544018  0.55728440  1
  Al  Al8  1  0.77774410  0.09417968  0.29869251  1
  Al  Al9  1  0.88821421  0.20593868  0.04829147  1
  Al  Al10  1  0.44530582  0.09384446  0.79840144  1
  Al  Al11  1  0.55590718  0.20615087  0.54947248  1
  Al  Al12  1  0.10720407  0.43525890  0.29699024  1
  Al  Al13  1  0.22261145  0.53884191  0.04829164  1
  Al  Al14  1  0.77749966  0.42774722  0.79897066  1
  Al  Al15  1  0.88761071  0.53923311  0.54947248  1
  Al  Al16  1  0.44487192  0.42819911  0.29796745  1
  Al  Al17  1  0.55544692  0.53877403  0.04820790  1
  Al  Al18  1  0.11051786  0.42863227  0.79840149  1
  Al  Al19  1  0.22282454  0.53923318  0.54947255  1
  Al  Al20  1  0.77659592  0.42819914  0.29796768  1
  Al  Al21  1  0.88821408  0.53884192  0.04829153  1
  Al  Al22  1  0.44442084  0.42774700  0.79897087  1
  Al  Al23  1  0.55544753  0.53877369  0.54938106  1
  Al  Al24  1  0.11085310  0.76107086  0.29869263  1
  Al  Al25  1  0.22261157  0.87154129  0.04829164  1
  Al  Al26  1  0.77780367  0.76113053  0.79894361  1
  Al  Al27  1  0.88878071  0.87210698  0.54910026  1
  Al  Al28  1  0.44487198  0.75992326  0.29796749  1
  Al  Al29  1  0.55551480  0.87154128  0.04829134  1
  Al  Al30  1  0.11073395  0.76113020  0.79894356  1
  Al  Al31  1  0.22282454  0.87093707  0.54947231  1
  Al  Al32  1  0.77774399  0.76107114  0.29869252  1
  Al  Al33  1  0.88878027  0.87210731  0.04863910  1
  Al  Al34  1  0.44442079  0.76082633  0.79897075  1
  Al  Al35  1  0.55590704  0.87093688  0.54947253  1
  O  O36  1  0.22211386  0.20544064  0.35891507  1
  N  N37  1  0.11192181  0.09524897  0.10901572  1
  N  N38  1  0.88919592  0.20515562  0.85760210  1
  N  N39  1  0.77766668  0.09433528  0.60765701  1
  N  N40  1  0.55399341  0.20610692  0.35812904  1
  N  N41  1  0.44249673  0.09524897  0.10901588  1
  N  N42  1  0.22211365  0.20544043  0.85558656  1
  N  N43  1  0.11115666  0.09448260  0.60576874  1
  N  N44  1  0.88956704  0.20610739  0.35812910  1
  N  N45  1  0.77757886  0.09451023  0.10817177  1
  N  N46  1  0.55531645  0.20515567  0.85760218  1
  N  N47  1  0.44402920  0.09448282  0.60576846  1
  N  N48  1  0.22278023  0.53732020  0.35812911  1
  N  N49  1  0.11192173  0.42582393  0.10901597  1
  N  N50  1  0.88919576  0.53864294  0.85760219  1
  N  N51  1  0.77767285  0.42766097  0.60793757  1
  N  N52  1  0.55544652  0.53877394  0.35811908  1
  N  N53  1  0.44433876  0.42766608  0.10766269  1
  N  N54  1  0.22182903  0.53864307  0.85760217  1
  N  N55  1  0.11115652  0.42735546  0.60576867  1
  N  N56  1  0.88956681  0.53732047  0.35812902  1
  N  N57  1  0.77766288  0.42766600  0.10766275  1
  N  N58  1  0.55544697  0.53877371  0.85769579  1
  N  N59  1  0.44433458  0.42766103  0.60793756  1
  N  N60  1  0.22278029  0.87289428  0.35812898  1
  N  N61  1  0.11118333  0.76090560  0.10817178  1
  N  N62  1  0.88878084  0.87210681  0.85786451  1
  N  N63  1  0.77766666  0.76099277  0.60765705  1
  N  N64  1  0.55399354  0.87289398  0.35812913  1
  N  N65  1  0.44433891  0.76098990  0.10766266  1
  N  N66  1  0.22182913  0.87252220  0.85760214  1
  N  N67  1  0.11100917  0.76099276  0.60765708  1
  N  N68  1  0.88878042  0.87210712  0.35793579  1
  N  N69  1  0.77757881  0.76090568  0.10817176  1
  N  N70  1  0.55531630  0.87252235  0.85760203  1
  N  N71  1  0.44433455  0.76099919  0.60793748  1
