# generated using pymatgen
data_Al36N35O
_symmetry_space_group_name_H-M   'P 1'
_cell_length_a   9.75218459
_cell_length_b   9.75218459
_cell_length_c   8.77706131
_cell_angle_alpha   89.99999225
_cell_angle_beta   90.00000728
_cell_angle_gamma   60.00001109
_symmetry_Int_Tables_number   1
_chemical_formula_structural   Al36N35O
_chemical_formula_sum   'Al36 N35 O1'
_cell_volume   722.90901063
_cell_formula_units_Z   1
loop_
 _symmetry_equiv_pos_site_id
 _symmetry_equiv_pos_as_xyz
  1  'x, y, z'
loop_
 _atom_site_type_symbol
 _atom_site_label
 _atom_site_symmetry_multiplicity
 _atom_site_fract_x
 _atom_site_fract_y
 _atom_site_fract_z
 _atom_site_occupancy
  Al  Al0  1  0.10915887  0.09240677  0.36306112  1
  Al  Al1  1  0.22213402  0.20538202  0.10077647  1
  Al  Al2  1  0.77780767  0.09403446  0.86675735  1
  Al  Al3  1  0.88996993  0.20530999  0.61667334  1
  Al  Al4  1  0.44808430  0.09240658  0.36306111  1
  Al  Al5  1  0.55645363  0.20688045  0.11875935  1
  Al  Al6  1  0.10897452  0.09222244  0.87322496  1
  Al  Al7  1  0.22213398  0.20538195  0.63159652  1
  Al  Al8  1  0.77788511  0.09387954  0.36872601  1
  Al  Al9  1  0.88631587  0.20688034  0.11875939  1
  Al  Al10  1  0.44845306  0.09222222  0.87322496  1
  Al  Al11  1  0.55436995  0.20530986  0.61667337  1
  Al  Al12  1  0.10915866  0.43133227  0.36306112  1
  Al  Al13  1  0.22363260  0.53970152  0.11875933  1
  Al  Al14  1  0.77810818  0.42739459  0.86646797  1
  Al  Al15  1  0.88996973  0.53761788  0.61667342  1
  Al  Al16  1  0.44512768  0.42837555  0.36957455  1
  Al  Al17  1  0.55546726  0.53871509  0.11605404  1
  Al  Al18  1  0.10897428  0.43170107  0.87322495  1
  Al  Al19  1  0.22206197  0.53761791  0.61667339  1
  Al  Al20  1  0.77614635  0.42837563  0.36957448  1
  Al  Al21  1  0.88631574  0.53970131  0.11875931  1
  Al  Al22  1  0.44414680  0.42739463  0.86646787  1
  Al  Al23  1  0.55546726  0.53871509  0.61973129  1
  Al  Al24  1  0.11063165  0.76113303  0.36872598  1
  Al  Al25  1  0.22363246  0.86956382  0.11875939  1
  Al  Al26  1  0.77780755  0.76105547  0.86675749  1
  Al  Al27  1  0.88880058  0.87204851  0.61844512  1
  Al  Al28  1  0.44512778  0.75939418  0.36957446  1
  Al  Al29  1  0.55645338  0.86956370  0.11875933  1
  Al  Al30  1  0.11078657  0.76105559  0.86675738  1
  Al  Al31  1  0.22206212  0.87321782  0.61667335  1
  Al  Al32  1  0.77788505  0.76113296  0.36872588  1
  Al  Al33  1  0.88880057  0.87204847  0.11700427  1
  Al  Al34  1  0.44414675  0.76135602  0.86646799  1
  Al  Al35  1  0.55436993  0.87321766  0.61667341  1
  O  O36  1  0.22213403  0.20538203  0.33046013  1
  N  N37  1  0.11102356  0.09427149  0.09766145  1
  N  N38  1  0.89041098  0.20433489  0.84039402  1
  N  N39  1  0.77757885  0.09449213  0.59136421  1
  N  N40  1  0.55501808  0.20643654  0.34146698  1
  N  N41  1  0.44435498  0.09427138  0.09766141  1
  N  N42  1  0.22213401  0.20538202  0.85193130  1
  N  N43  1  0.11377211  0.09701999  0.58491099  1
  N  N44  1  0.88819517  0.20643657  0.34146700  1
  N  N45  1  0.77752605  0.09459772  0.09051558  1
  N  N46  1  0.55490397  0.20433489  0.84039403  1
  N  N47  1  0.43885781  0.09701985  0.58491101  1
  N  N48  1  0.22318864  0.53826603  0.34146697  1
  N  N49  1  0.11102342  0.42760299  0.09766140  1
  N  N50  1  0.89041076  0.53815181  0.84039409  1
  N  N51  1  0.77757478  0.42766142  0.59215991  1
  N  N52  1  0.55546725  0.53871512  0.34002033  1
  N  N53  1  0.44430740  0.42755529  0.08964230  1
  N  N54  1  0.22108702  0.53815192  0.84039404  1
  N  N55  1  0.11377192  0.42210582  0.58491103  1
  N  N56  1  0.88819506  0.53826598  0.34146691  1
  N  N57  1  0.77778697  0.42755523  0.08964237  1
  N  N58  1  0.55546726  0.53871514  0.84166551  1
  N  N59  1  0.44441342  0.42766136  0.59215998  1
  N  N60  1  0.22318870  0.87144306  0.34146699  1
  N  N61  1  0.11134984  0.76077399  0.09051559  1
  N  N62  1  0.88880060  0.87204846  0.84131740  1
  N  N63  1  0.77757876  0.76082672  0.59136414  1
  N  N64  1  0.55501805  0.87144297  0.34146692  1
  N  N65  1  0.44430734  0.76103486  0.08964238  1
  N  N66  1  0.22108705  0.87365885  0.84039403  1
  N  N67  1  0.11124423  0.76082680  0.59136419  1
  N  N68  1  0.88880062  0.87204851  0.34051150  1
  N  N69  1  0.77752590  0.76077386  0.09051563  1
  N  N70  1  0.55490386  0.87365869  0.84039408  1
  N  N71  1  0.44441352  0.76082265  0.59215990  1
