# generated using pymatgen
data_Al36N35O
_symmetry_space_group_name_H-M   'P 1'
_cell_length_a   9.87323144
_cell_length_b   9.87323153
_cell_length_c   8.39746081
_cell_angle_alpha   90.00000084
_cell_angle_beta   89.99999623
_cell_angle_gamma   60.00001174
_symmetry_Int_Tables_number   1
_chemical_formula_structural   Al36N35O
_chemical_formula_sum   'Al36 N35 O1'
_cell_volume   708.92012844
_cell_formula_units_Z   1
loop_
 _symmetry_equiv_pos_site_id
 _symmetry_equiv_pos_as_xyz
  1  'x, y, z'
loop_
 _atom_site_type_symbol
 _atom_site_label
 _atom_site_symmetry_multiplicity
 _atom_site_fract_x
 _atom_site_fract_y
 _atom_site_fract_z
 _atom_site_occupancy
  Al  Al0  1  0.10894966  0.09219752  0.35532408  1
  Al  Al1  1  0.22213399  0.20538208  0.09501272  1
  Al  Al2  1  0.77791529  0.09381926  0.85595983  1
  Al  Al3  1  0.88887807  0.20588455  0.60593573  1
  Al  Al4  1  0.44850283  0.09219720  0.35532403  1
  Al  Al5  1  0.55582627  0.20636652  0.10724921  1
  Al  Al6  1  0.10947574  0.09272362  0.85990328  1
  Al  Al7  1  0.22213397  0.20538204  0.62330285  1
  Al  Al8  1  0.77781471  0.09402036  0.35677778  1
  Al  Al9  1  0.88745715  0.20636648  0.10724924  1
  Al  Al10  1  0.44745061  0.09272341  0.85990330  1
  Al  Al11  1  0.55488726  0.20588442  0.60593576  1
  Al  Al12  1  0.10894927  0.43175092  0.35532402  1
  Al  Al13  1  0.22311865  0.53907425  0.10724920  1
  Al  Al14  1  0.77783000  0.42753373  0.85598267  1
  Al  Al15  1  0.88887784  0.53813525  0.60593581  1
  Al  Al16  1  0.44492245  0.42817034  0.35702127  1
  Al  Al17  1  0.55546727  0.53871509  0.10537083  1
  Al  Al18  1  0.10947548  0.43069867  0.85990330  1
  Al  Al19  1  0.22263652  0.53813528  0.60593577  1
  Al  Al20  1  0.77655668  0.42817048  0.35702122  1
  Al  Al21  1  0.88745693  0.53907408  0.10724916  1
  Al  Al22  1  0.44428587  0.42753372  0.85598262  1
  Al  Al23  1  0.55546726  0.53871509  0.60746472  1
  Al  Al24  1  0.11077245  0.76106269  0.35677776  1
  Al  Al25  1  0.22311862  0.87070508  0.10724924  1
  Al  Al26  1  0.77791520  0.76116316  0.85595992  1
  Al  Al27  1  0.88880062  0.87204856  0.60643090  1
  Al  Al28  1  0.44492264  0.75980447  0.35702121  1
  Al  Al29  1  0.55582609  0.87070490  0.10724917  1
  Al  Al30  1  0.11057135  0.76116327  0.85595985  1
  Al  Al31  1  0.22263670  0.87212598  0.60593574  1
  Al  Al32  1  0.77781467  0.76106262  0.35677769  1
  Al  Al33  1  0.88880061  0.87204854  0.10616520  1
  Al  Al34  1  0.44428590  0.76107781  0.85598268  1
  Al  Al35  1  0.55488726  0.87212577  0.60593580  1
  O  O36  1  0.22213395  0.20538201  0.34467521  1
  N  N37  1  0.11197711  0.09522503  0.10661607  1
  N  N38  1  0.89014742  0.20447378  0.85192245  1
  N  N39  1  0.77749965  0.09465052  0.60214815  1
  N  N40  1  0.55496174  0.20602250  0.35220570  1
  N  N41  1  0.44244786  0.09522488  0.10661605  1
  N  N42  1  0.22213397  0.20538203  0.85569447  1
  N  N43  1  0.11325370  0.09650160  0.59648550  1
  N  N44  1  0.88866543  0.20602262  0.35220571  1
  N  N45  1  0.77754655  0.09455674  0.10223620  1
  N  N46  1  0.55502863  0.20447373  0.85192244  1
  N  N47  1  0.43989461  0.09650142  0.59648548  1
  N  N48  1  0.22277463  0.53820974  0.35220569  1
  N  N49  1  0.11197693  0.42569593  0.10661605  1
  N  N50  1  0.89014720  0.53827652  0.85192247  1
  N  N51  1  0.77774331  0.42757714  0.60276331  1
  N  N52  1  0.55546723  0.53871502  0.35215622  1
  N  N53  1  0.44437865  0.42762650  0.10156579  1
  N  N54  1  0.22122587  0.53827661  0.85192245  1
  N  N55  1  0.11325348  0.42314266  0.59648548  1
  N  N56  1  0.88866520  0.53820973  0.35220565  1
  N  N57  1  0.77764445  0.42762650  0.10156579  1
  N  N58  1  0.55546726  0.53871507  0.85224142  1
  N  N59  1  0.44432918  0.42757706  0.60276332  1
  N  N60  1  0.22277479  0.87191332  0.35220570  1
  N  N61  1  0.11130883  0.76079452  0.10223620  1
  N  N62  1  0.88880059  0.87204850  0.85223678  1
  N  N63  1  0.77749960  0.76074757  0.60214815  1
  N  N64  1  0.55496177  0.87191311  0.35220565  1
  N  N65  1  0.44437866  0.76089226  0.10156580  1
  N  N66  1  0.22122595  0.87339532  0.85192245  1
  N  N67  1  0.11140260  0.76074764  0.60214815  1
  N  N68  1  0.88880060  0.87204851  0.35223269  1
  N  N69  1  0.77754645  0.76079441  0.10223618  1
  N  N70  1  0.55502855  0.87339513  0.85192248  1
  N  N71  1  0.44432929  0.76099112  0.60276331  1
