# generated using pymatgen
data_Al36N35O
_symmetry_space_group_name_H-M   'P 1'
_cell_length_a   9.79440537
_cell_length_b   9.79440556
_cell_length_c   8.64062497
_cell_angle_alpha   89.99999558
_cell_angle_beta   90.00000230
_cell_angle_gamma   60.00001043
_symmetry_Int_Tables_number   1
_chemical_formula_structural   Al36N35O
_chemical_formula_sum   'Al36 N35 O1'
_cell_volume   717.84716749
_cell_formula_units_Z   1
loop_
 _symmetry_equiv_pos_site_id
 _symmetry_equiv_pos_as_xyz
  1  'x, y, z'
loop_
 _atom_site_type_symbol
 _atom_site_label
 _atom_site_symmetry_multiplicity
 _atom_site_fract_x
 _atom_site_fract_y
 _atom_site_fract_z
 _atom_site_occupancy
  Al  Al0  1  0.10919847  0.09244632  0.36010116  1
  Al  Al1  1  0.22213402  0.20538204  0.09886670  1
  Al  Al2  1  0.77783630  0.09397721  0.86329951  1
  Al  Al3  1  0.88983858  0.20540350  0.61324606  1
  Al  Al4  1  0.44800519  0.09244609  0.36010112  1
  Al  Al5  1  0.55633948  0.20678513  0.11533785  1
  Al  Al6  1  0.10907189  0.09231975  0.86982782  1
  Al  Al7  1  0.22213397  0.20538197  0.62975671  1
  Al  Al8  1  0.77786111  0.09392758  0.36515647  1
  Al  Al9  1  0.88652533  0.20678502  0.11533790  1
  Al  Al10  1  0.44825837  0.09231954  0.86982784  1
  Al  Al11  1  0.55440780  0.20540334  0.61324610  1
  Al  Al12  1  0.10919819  0.43125318  0.36010113  1
  Al  Al13  1  0.22353727  0.53958740  0.11533784  1
  Al  Al14  1  0.77806374  0.42741682  0.86309589  1
  Al  Al15  1  0.88983837  0.53765578  0.61324616  1
  Al  Al16  1  0.44507645  0.42832434  0.36591969  1
  Al  Al17  1  0.55546724  0.53871510  0.11268270  1
  Al  Al18  1  0.10907162  0.43150637  0.86982783  1
  Al  Al19  1  0.22215543  0.53765578  0.61324612  1
  Al  Al20  1  0.77624875  0.42832445  0.36591961  1
  Al  Al21  1  0.88652516  0.53958719  0.11533781  1
  Al  Al22  1  0.44416901  0.42741685  0.86309579  1
  Al  Al23  1  0.55546725  0.53871511  0.61612378  1
  Al  Al24  1  0.11067969  0.76110903  0.36515644  1
  Al  Al25  1  0.22353715  0.86977327  0.11533790  1
  Al  Al26  1  0.77783619  0.76108412  0.86329966  1
  Al  Al27  1  0.88880060  0.87204852  0.61479557  1
  Al  Al28  1  0.44507660  0.75949657  0.36591960  1
  Al  Al29  1  0.55633923  0.86977313  0.11533782  1
  Al  Al30  1  0.11072934  0.76108422  0.86329954  1
  Al  Al31  1  0.22215562  0.87308647  0.61324607  1
  Al  Al32  1  0.77786105  0.76110897  0.36515632  1
  Al  Al33  1  0.88880058  0.87204849  0.11360701  1
  Al  Al34  1  0.44416898  0.76131158  0.86309591  1
  Al  Al35  1  0.55440781  0.87308629  0.61324615  1
  O  O36  1  0.22213402  0.20538202  0.33356208  1
  N  N37  1  0.11124748  0.09449540  0.10072042  1
  N  N38  1  0.89040422  0.20434044  0.84387348  1
  N  N39  1  0.77754427  0.09456131  0.59474309  1
  N  N40  1  0.55501445  0.20632958  0.34482550  1
  N  N41  1  0.44390715  0.09449527  0.10072040  1
  N  N42  1  0.22213401  0.20538202  0.85393814  1
  N  N43  1  0.11376957  0.09701745  0.58807089  1
  N  N44  1  0.88830572  0.20632965  0.34482552  1
  N  N45  1  0.77753154  0.09458676  0.09406615  1
  N  N46  1  0.55490519  0.20434042  0.84387349  1
  N  N47  1  0.43886291  0.09701727  0.58807089  1
  N  N48  1  0.22308168  0.53826241  0.34482548  1
  N  N49  1  0.11124733  0.42715515  0.10072039  1
  N  N50  1  0.89040400  0.53815303  0.84387355  1
  N  N51  1  0.77763852  0.42762956  0.59549916  1
  N  N52  1  0.55546724  0.53871509  0.34368028  1
  N  N53  1  0.44432982  0.42757767  0.09318302  1
  N  N54  1  0.22109255  0.53815313  0.84387350  1
  N  N55  1  0.11376936  0.42211090  0.58807090  1
  N  N56  1  0.88830558  0.53826239  0.34482541  1
  N  N57  1  0.77774214  0.42757761  0.09318307  1
  N  N58  1  0.55546727  0.53871513  0.84493150  1
  N  N59  1  0.44438157  0.42762947  0.59549922  1
  N  N60  1  0.22308177  0.87155362  0.34482551  1
  N  N61  1  0.11133888  0.76077947  0.09406617  1
  N  N62  1  0.88880059  0.87204849  0.84468375  1
  N  N63  1  0.77754419  0.76079214  0.59474302  1
  N  N64  1  0.55501445  0.87155350  0.34482542  1
  N  N65  1  0.44432976  0.76098999  0.09318308  1
  N  N66  1  0.22109259  0.87365212  0.84387349  1
  N  N67  1  0.11131340  0.76079222  0.59474307  1
  N  N68  1  0.88880061  0.87204852  0.34410991  1
  N  N69  1  0.77753139  0.76077933  0.09406619  1
  N  N70  1  0.55490508  0.87365194  0.84387354  1
  N  N71  1  0.44438168  0.76088637  0.59549915  1
