# generated using pymatgen
data_Al36N35O
_symmetry_space_group_name_H-M   'P 1'
_cell_length_a   9.35182790
_cell_length_b   9.35183130
_cell_length_c   9.97973930
_cell_angle_alpha   89.99982016
_cell_angle_beta   89.99948596
_cell_angle_gamma   59.99998375
_symmetry_Int_Tables_number   1
_chemical_formula_structural   Al36N35O
_chemical_formula_sum   'Al36 N35 O1'
_cell_volume   755.86272111
_cell_formula_units_Z   1
loop_
 _symmetry_equiv_pos_site_id
 _symmetry_equiv_pos_as_xyz
  1  'x, y, z'
loop_
 _atom_site_type_symbol
 _atom_site_label
 _atom_site_symmetry_multiplicity
 _atom_site_fract_x
 _atom_site_fract_y
 _atom_site_fract_z
 _atom_site_occupancy
  Al  Al0  1  0.10720335  0.09051986  0.29354609  1
  Al  Al1  1  0.22214285  0.20542832  0.04237651  1
  Al  Al2  1  0.77777526  0.09410662  0.79547655  1
  Al  Al3  1  0.88756791  0.20617777  0.54599700  1
  Al  Al4  1  0.45192785  0.09051361  0.29351821  1
  Al  Al5  1  0.55555273  0.20590885  0.04481833  1
  Al  Al6  1  0.11047678  0.09388557  0.79494862  1
  Al  Al7  1  0.22208311  0.20547348  0.55384485  1
  Al  Al8  1  0.77773271  0.09416483  0.29522229  1
  Al  Al9  1  0.88824536  0.20591306  0.04484619  1
  Al  Al10  1  0.44530536  0.09386801  0.79495248  1
  Al  Al11  1  0.55587258  0.20616736  0.54600340  1
  Al  Al12  1  0.10721831  0.43522786  0.29351980  1
  Al  Al13  1  0.22266282  0.53882773  0.04482872  1
  Al  Al14  1  0.77748943  0.42779480  0.79550508  1
  Al  Al15  1  0.88758087  0.53925355  0.54600074  1
  Al  Al16  1  0.44488035  0.42819658  0.29449132  1
  Al  Al17  1  0.55546811  0.53875345  0.04471635  1
  Al  Al18  1  0.11052593  0.42867422  0.79494128  1
  Al  Al19  1  0.22279551  0.53926343  0.54598626  1
  Al  Al20  1  0.77660037  0.42819204  0.29449358  1
  Al  Al21  1  0.88824942  0.53882374  0.04482015  1
  Al  Al22  1  0.44441062  0.42779115  0.79548608  1
  Al  Al23  1  0.55541651  0.53879304  0.54590734  1
  Al  Al24  1  0.11084645  0.76106381  0.29522394  1
  Al  Al25  1  0.22265464  0.87153545  0.04484027  1
  Al  Al26  1  0.77779526  0.76116358  0.79546034  1
  Al  Al27  1  0.88876280  0.87212521  0.54563051  1
  Al  Al28  1  0.44487031  0.75990359  0.29449403  1
  Al  Al29  1  0.55556506  0.87150519  0.04483156  1
  Al  Al30  1  0.11071827  0.76117289  0.79548125  1
  Al  Al31  1  0.22279608  0.87097214  0.54600872  1
  Al  Al32  1  0.77775939  0.76105126  0.29522009  1
  Al  Al33  1  0.88881119  0.87208552  0.04515512  1
  Al  Al34  1  0.44441685  0.76086807  0.79550461  1
  Al  Al35  1  0.55587989  0.87094839  0.54599487  1
  O  O36  1  0.22210083  0.20542282  0.35546380  1
  N  N37  1  0.11194955  0.09524123  0.10558275  1
  N  N38  1  0.88916880  0.20520346  0.85416411  1
  N  N39  1  0.77762853  0.09436620  0.60419092  1
  N  N40  1  0.55397420  0.20609245  0.35465252  1
  N  N41  1  0.44252435  0.09521988  0.10554878  1
  N  N42  1  0.22209942  0.20546910  0.85213675  1
  N  N43  1  0.11110781  0.09452821  0.60231127  1
  N  N44  1  0.88953927  0.20610769  0.35465715  1
  N  N45  1  0.77760412  0.09447985  0.10470819  1
  N  N46  1  0.55529135  0.20520664  0.85413913  1
  N  N47  1  0.44400566  0.09449123  0.60231250  1
  N  N48  1  0.22278637  0.53731123  0.35464840  1
  N  N49  1  0.11195154  0.42581771  0.10555856  1
  N  N50  1  0.88920822  0.53867589  0.85413951  1
  N  N51  1  0.77763511  0.42768519  0.60446934  1
  N  N52  1  0.55545041  0.53876608  0.35464953  1
  N  N53  1  0.44437822  0.42763458  0.10419751  1
  N  N54  1  0.22183647  0.53868515  0.85414897  1
  N  N55  1  0.11112925  0.42739443  0.60230972  1
  N  N56  1  0.88957381  0.53730118  0.35465588  1
  N  N57  1  0.77768048  0.42765469  0.10419470  1
  N  N58  1  0.55543739  0.53881209  0.85421788  1
  N  N59  1  0.44428602  0.42768812  0.60446006  1
  N  N60  1  0.22277353  0.87288003  0.35466715  1
  N  N61  1  0.11121243  0.76089774  0.10470659  1
  N  N62  1  0.88876809  0.87214119  0.85439207  1
  N  N63  1  0.77763376  0.76101477  0.60418118  1
  N  N64  1  0.55399803  0.87287603  0.35464756  1
  N  N65  1  0.44437416  0.76095946  0.10419825  1
  N  N66  1  0.22182098  0.87256121  0.85415335  1
  N  N67  1  0.11098699  0.76101975  0.60419184  1
  N  N68  1  0.88877952  0.87209788  0.35447185  1
  N  N69  1  0.77762157  0.76087853  0.10470846  1
  N  N70  1  0.55532668  0.87254564  0.85415427  1
  N  N71  1  0.44429270  0.76103032  0.60447405  1
