# generated using pymatgen
data_Al36N35O
_symmetry_space_group_name_H-M   'P 1'
_cell_length_a   9.39199778
_cell_length_b   9.39199252
_cell_length_c   9.87190017
_cell_angle_alpha   89.99998682
_cell_angle_beta   90.00001929
_cell_angle_gamma   60.00000659
_symmetry_Int_Tables_number   1
_chemical_formula_structural   Al36N35O
_chemical_formula_sum   'Al36 N35 O1'
_cell_volume   754.13159239
_cell_formula_units_Z   1
loop_
 _symmetry_equiv_pos_site_id
 _symmetry_equiv_pos_as_xyz
  1  'x, y, z'
loop_
 _atom_site_type_symbol
 _atom_site_label
 _atom_site_symmetry_multiplicity
 _atom_site_fract_x
 _atom_site_fract_y
 _atom_site_fract_z
 _atom_site_occupancy
  Al  Al0  1  0.10737738  0.09062535  0.38410266  1
  Al  Al1  1  0.22213389  0.20538206  0.12362277  1
  Al  Al2  1  0.77780875  0.09403230  0.88274364  1
  Al  Al3  1  0.88844664  0.20580709  0.63331305  1
  Al  Al4  1  0.45164730  0.09062503  0.38410268  1
  Al  Al5  1  0.55601542  0.20619554  0.13239410  1
  Al  Al6  1  0.11037283  0.09362050  0.88382613  1
  Al  Al7  1  0.22213369  0.20538205  0.63667614  1
  Al  Al8  1  0.77779916  0.09405137  0.38313997  1
  Al  Al9  1  0.88743941  0.20619549  0.13239410  1
  Al  Al10  1  0.44565625  0.09362075  0.88382624  1
  Al  Al11  1  0.55539619  0.20580707  0.63331307  1
  Al  Al12  1  0.10737702  0.43489541  0.38410263  1
  Al  Al13  1  0.22294733  0.53926346  0.13239413  1
  Al  Al14  1  0.77761430  0.42764172  0.88267948  1
  Al  Al15  1  0.88844651  0.53864415  0.63331319  1
  Al  Al16  1  0.44493829  0.42818682  0.38385434  1
  Al  Al17  1  0.55546731  0.53871537  0.13222964  1
  Al  Al18  1  0.11037280  0.42890453  0.88382623  1
  Al  Al19  1  0.22255885  0.53864437  0.63331309  1
  Al  Al20  1  0.77652394  0.42818689  0.38385427  1
  Al  Al21  1  0.88743930  0.53926313  0.13239416  1
  Al  Al22  1  0.44439346  0.42764183  0.88267948  1
  Al  Al23  1  0.55546727  0.53871533  0.63369320  1
  Al  Al24  1  0.11080370  0.76104705  0.38313992  1
  Al  Al25  1  0.22294750  0.87068705  0.13239412  1
  Al  Al26  1  0.77780874  0.76105665  0.88274376  1
  Al  Al27  1  0.88880081  0.87204834  0.63321670  1
  Al  Al28  1  0.44493841  0.75977238  0.38385435  1
  Al  Al29  1  0.55601549  0.87068673  0.13239414  1
  Al  Al30  1  0.11078463  0.76105656  0.88274372  1
  Al  Al31  1  0.22255901  0.87169453  0.63331298  1
  Al  Al32  1  0.77779911  0.76104717  0.38314000  1
  Al  Al33  1  0.88880095  0.87204826  0.13257618  1
  Al  Al34  1  0.44439349  0.76086237  0.88267953  1
  Al  Al35  1  0.55539620  0.87169431  0.63331310  1
  O  O36  1  0.22213401  0.20538198  0.32339660  1
  N  N37  1  0.11108492  0.09433306  0.07811516  1
  N  N38  1  0.88934720  0.20500739  0.82581001  1
  N  N39  1  0.77760893  0.09443190  0.57538409  1
  N  N40  1  0.55415461  0.20612420  0.32539059  1
  N  N41  1  0.44423196  0.09433303  0.07811526  1
  N  N42  1  0.22213393  0.20538183  0.82886902  1
  N  N43  1  0.11214858  0.09539690  0.57402980  1
  N  N44  1  0.88937095  0.20612428  0.32539056  1
  N  N45  1  0.77766469  0.09432071  0.07577167  1
  N  N46  1  0.55529522  0.20500746  0.82581006  1
  N  N47  1  0.44210411  0.09539688  0.57402989  1
  N  N48  1  0.22287626  0.53740238  0.32539065  1
  N  N49  1  0.11108515  0.42747959  0.07811523  1
  N  N50  1  0.88934716  0.53854291  0.82581009  1
  N  N51  1  0.77764704  0.42762520  0.57590085  1
  N  N52  1  0.55546709  0.53871508  0.32525342  1
  N  N53  1  0.44434629  0.42759402  0.07544783  1
  N  N54  1  0.22175967  0.53854307  0.82580999  1
  N  N55  1  0.11214867  0.42535227  0.57402988  1
  N  N56  1  0.88937088  0.53740234  0.32539068  1
  N  N57  1  0.77770950  0.42759396  0.07544780  1
  N  N58  1  0.55546728  0.53871509  0.82589435  1
  N  N59  1  0.44437733  0.42762524  0.57590096  1
  N  N60  1  0.22287609  0.87261934  0.32539063  1
  N  N61  1  0.11107257  0.76091284  0.07577166  1
  N  N62  1  0.88880067  0.87204871  0.82570366  1
  N  N63  1  0.77760889  0.76085710  0.57538416  1
  N  N64  1  0.55415443  0.87261903  0.32539067  1
  N  N65  1  0.44434604  0.76095758  0.07544780  1
  N  N66  1  0.22175949  0.87259523  0.82580996  1
  N  N67  1  0.11118369  0.76085716  0.57538406  1
  N  N68  1  0.88880063  0.87204873  0.32548531  1
  N  N69  1  0.77766460  0.76091270  0.07577171  1
  N  N70  1  0.55529498  0.87259519  0.82581010  1
  N  N71  1  0.44437716  0.76089518  0.57590095  1
