# generated using pymatgen
data_Al36N35O
_symmetry_space_group_name_H-M   'P 1'
_cell_length_a   9.35167375
_cell_length_b   9.35167528
_cell_length_c   9.97946139
_cell_angle_alpha   90.00003909
_cell_angle_beta   89.99997968
_cell_angle_gamma   59.99999458
_symmetry_Int_Tables_number   1
_chemical_formula_structural   Al36N35O
_chemical_formula_sum   'Al36 N35 O1'
_cell_volume   755.81668646
_cell_formula_units_Z   1
loop_
 _symmetry_equiv_pos_site_id
 _symmetry_equiv_pos_as_xyz
  1  'x, y, z'
loop_
 _atom_site_type_symbol
 _atom_site_label
 _atom_site_symmetry_multiplicity
 _atom_site_fract_x
 _atom_site_fract_y
 _atom_site_fract_z
 _atom_site_occupancy
  Al  Al0  1  0.10724460  0.09041442  0.41171441  1
  Al  Al1  1  0.22215429  0.20532333  0.15142108  1
  Al  Al2  1  0.77784400  0.09394355  0.90976033  1
  Al  Al3  1  0.88825471  0.20582161  0.66041280  1
  Al  Al4  1  0.45197235  0.09041388  0.41171473  1
  Al  Al5  1  0.55594735  0.20603391  0.15923139  1
  Al  Al6  1  0.11055812  0.09372746  0.91030312  1
  Al  Al7  1  0.22215394  0.20532363  0.66287906  1
  Al  Al8  1  0.77778430  0.09406256  0.41001142  1
  Al  Al9  1  0.88765113  0.20603387  0.15923138  1
  Al  Al10  1  0.44534601  0.09372776  0.91030319  1
  Al  Al11  1  0.55555549  0.20582143  0.66041296  1
  Al  Al12  1  0.10724450  0.43514193  0.41171474  1
  Al  Al13  1  0.22286466  0.53911634  0.15923158  1
  Al  Al14  1  0.77754014  0.42763029  0.90973323  1
  Al  Al15  1  0.88825463  0.53872490  0.66041298  1
  Al  Al16  1  0.44491230  0.42808206  0.41073705  1
  Al  Al17  1  0.55548772  0.53865672  0.15932287  1
  Al  Al18  1  0.11055844  0.42851533  0.91030326  1
  Al  Al19  1  0.22265198  0.53872479  0.66041287  1
  Al  Al20  1  0.77663609  0.42808231  0.41073687  1
  Al  Al21  1  0.88765085  0.53911610  0.15923161  1
  Al  Al22  1  0.44446105  0.42763023  0.90973324  1
  Al  Al23  1  0.55548754  0.53865669  0.66049655  1
  Al  Al24  1  0.11089335  0.76095370  0.41001139  1
  Al  Al25  1  0.22286471  0.87082017  0.15923149  1
  Al  Al26  1  0.77784420  0.76101357  0.90976052  1
  Al  Al27  1  0.88882085  0.87198996  0.66006491  1
  Al  Al28  1  0.44491236  0.75980611  0.41073688  1
  Al  Al29  1  0.55594714  0.87081979  0.15923161  1
  Al  Al30  1  0.11077436  0.76101328  0.90976044  1
  Al  Al31  1  0.22265221  0.87142402  0.66041267  1
  Al  Al32  1  0.77778430  0.76095394  0.41001152  1
  Al  Al33  1  0.88882108  0.87198999  0.15960364  1
  Al  Al34  1  0.44446106  0.76070944  0.90973321  1
  Al  Al35  1  0.55555563  0.87142394  0.66041285  1
  O  O36  1  0.22215418  0.20532344  0.34978968  1
  N  N37  1  0.11119688  0.09436563  0.10293599  1
  N  N38  1  0.88923634  0.20503862  0.85110218  1
  N  N39  1  0.77761947  0.09439304  0.60053233  1
  N  N40  1  0.55403364  0.20598999  0.35057518  1
  N  N41  1  0.44406916  0.09436590  0.10293618  1
  N  N42  1  0.22215408  0.20532335  0.85311841  1
  N  N43  1  0.11196254  0.09513175  0.59968871  1
  N  N44  1  0.88960751  0.20599012  0.35057526  1
  N  N45  1  0.77770690  0.09421833  0.10104721  1
  N  N46  1  0.55535676  0.20503866  0.85110236  1
  N  N47  1  0.44253715  0.09513176  0.59968884  1
  N  N48  1  0.22282050  0.53720284  0.35057531  1
  N  N49  1  0.11119691  0.42723819  0.10293619  1
  N  N50  1  0.88923620  0.53852614  0.85110254  1
  N  N51  1  0.77770352  0.42754867  0.60104179  1
  N  N52  1  0.55548691  0.53865664  0.35058516  1
  N  N53  1  0.44437485  0.42754382  0.10076681  1
  N  N54  1  0.22186938  0.53852615  0.85110241  1
  N  N55  1  0.11196236  0.42570655  0.59968887  1
  N  N56  1  0.88960724  0.53720309  0.35057520  1
  N  N57  1  0.77771303  0.42754397  0.10076663  1
  N  N58  1  0.55548739  0.53865681  0.85100873  1
  N  N59  1  0.44437942  0.42754873  0.60104184  1
  N  N60  1  0.22282050  0.87277721  0.35057528  1
  N  N61  1  0.11104936  0.76087577  0.10104715  1
  N  N62  1  0.88882107  0.87198988  0.85083976  1
  N  N63  1  0.77761929  0.76078859  0.60053257  1
  N  N64  1  0.55403361  0.87277705  0.35057524  1
  N  N65  1  0.44437493  0.76088214  0.10076659  1
  N  N66  1  0.22186950  0.87240542  0.85110216  1
  N  N67  1  0.11122396  0.76078863  0.60053246  1
  N  N68  1  0.88882071  0.87199010  0.35076830  1
  N  N69  1  0.77770682  0.76087569  0.10104723  1
  N  N70  1  0.55535680  0.87240539  0.85110244  1
  N  N71  1  0.44437938  0.76087278  0.60104190  1
