# generated using pymatgen
data_Al36N35O
_symmetry_space_group_name_H-M   'P 1'
_cell_length_a   9.83413988
_cell_length_b   9.83413684
_cell_length_c   8.51400796
_cell_angle_alpha   90.00000114
_cell_angle_beta   90.00000245
_cell_angle_gamma   60.00000953
_symmetry_Int_Tables_number   1
_chemical_formula_structural   Al36N35O
_chemical_formula_sum   'Al36 N35 O1'
_cell_volume   713.07851905
_cell_formula_units_Z   1
loop_
 _symmetry_equiv_pos_site_id
 _symmetry_equiv_pos_as_xyz
  1  'x, y, z'
loop_
 _atom_site_type_symbol
 _atom_site_label
 _atom_site_symmetry_multiplicity
 _atom_site_fract_x
 _atom_site_fract_y
 _atom_site_fract_z
 _atom_site_occupancy
  Al  Al0  1  0.10915139  0.09239943  0.35121439  1
  Al  Al1  1  0.22213393  0.20538213  0.08122520  1
  Al  Al2  1  0.77786969  0.09391049  0.84913195  1
  Al  Al3  1  0.88686386  0.20662282  0.59722572  1
  Al  Al4  1  0.44809919  0.09239919  0.35121444  1
  Al  Al5  1  0.55453179  0.20557504  0.09909978  1
  Al  Al6  1  0.10923431  0.09248235  0.84298591  1
  Al  Al7  1  0.22213396  0.20538216  0.61142805  1
  Al  Al8  1  0.77783509  0.09397966  0.34759634  1
  Al  Al9  1  0.88954295  0.20557520  0.09909982  1
  Al  Al10  1  0.44793333  0.09248217  0.84298586  1
  Al  Al11  1  0.55616321  0.20662293  0.59722578  1
  Al  Al12  1  0.10915107  0.43134742  0.35121445  1
  Al  Al13  1  0.22232696  0.53777996  0.09909976  1
  Al  Al14  1  0.77797948  0.42745910  0.84920353  1
  Al  Al15  1  0.88686368  0.53941111  0.59722581  1
  Al  Al16  1  0.44500702  0.42825515  0.34700635  1
  Al  Al17  1  0.55546721  0.53871524  0.09674784  1
  Al  Al18  1  0.10923405  0.43118156  0.84298585  1
  Al  Al19  1  0.22337490  0.53941132  0.59722579  1
  Al  Al20  1  0.77638737  0.42825527  0.34700642  1
  Al  Al21  1  0.88954273  0.53777996  0.09909973  1
  Al  Al22  1  0.44421104  0.42745913  0.84920361  1
  Al  Al23  1  0.55546721  0.53871523  0.59966192  1
  Al  Al24  1  0.11073157  0.76108322  0.34759636  1
  Al  Al25  1  0.22232717  0.87279098  0.09909981  1
  Al  Al26  1  0.77786959  0.76111773  0.84913179  1
  Al  Al27  1  0.88880057  0.87204862  0.59881552  1
  Al  Al28  1  0.44500720  0.75963539  0.34700644  1
  Al  Al29  1  0.55453183  0.87279079  0.09909974  1
  Al  Al30  1  0.11066241  0.76111783  0.84913191  1
  Al  Al31  1  0.22337479  0.87011194  0.59722573  1
  Al  Al32  1  0.77783504  0.76108317  0.34759647  1
  Al  Al33  1  0.88880059  0.87204866  0.09803893  1
  Al  Al34  1  0.44421103  0.76122753  0.84920351  1
  Al  Al35  1  0.55616299  0.87011179  0.59722580  1
  O  O36  1  0.22213395  0.20538210  0.37115235  1
  N  N37  1  0.11365941  0.09690753  0.11688746  1
  N  N38  1  0.89032199  0.20438424  0.86094828  1
  N  N39  1  0.77754293  0.09456397  0.61064935  1
  N  N40  1  0.55498471  0.20618493  0.36026769  1
  N  N41  1  0.43908304  0.09690733  0.11688747  1
  N  N42  1  0.22213397  0.20538212  0.85333462  1
  N  N43  1  0.11151895  0.09476711  0.60506538  1
  N  N44  1  0.88848013  0.20618503  0.36026768  1
  N  N45  1  0.77750907  0.09463171  0.11030882  1
  N  N46  1  0.55494367  0.20438419  0.86094825  1
  N  N47  1  0.44336395  0.09476699  0.60506540  1
  N  N48  1  0.22293692  0.53823279  0.36026772  1
  N  N49  1  0.11365918  0.42233126  0.11688747  1
  N  N50  1  0.89032179  0.53819167  0.86094822  1
  N  N51  1  0.77768195  0.42760784  0.61147839  1
  N  N52  1  0.55546722  0.53871516  0.36087233  1
  N  N53  1  0.44434235  0.42759045  0.10962277  1
  N  N54  1  0.22113619  0.53819174  0.86094824  1
  N  N55  1  0.11151882  0.42661217  0.60506541  1
  N  N56  1  0.88847995  0.53823281  0.36026779  1
  N  N57  1  0.77771678  0.42759056  0.10962282  1
  N  N58  1  0.55546725  0.53871521  0.86021855  1
  N  N59  1  0.44435983  0.42760787  0.61147843  1
  N  N60  1  0.22293703  0.87172817  0.36026770  1
  N  N61  1  0.11138355  0.76075727  0.11030884  1
  N  N62  1  0.88880055  0.87204861  0.86032270  1
  N  N63  1  0.77754281  0.76079099  0.61064934  1
  N  N64  1  0.55498473  0.87172802  0.36026778  1
  N  N65  1  0.44434248  0.76096484  0.10962283  1
  N  N66  1  0.22113624  0.87357004  0.86094827  1
  N  N67  1  0.11131584  0.76079110  0.61064934  1
  N  N68  1  0.88880057  0.87204863  0.36057725  1
  N  N69  1  0.77750901  0.76075720  0.11030888  1
  N  N70  1  0.55494358  0.87356987  0.86094822  1
  N  N71  1  0.44435978  0.76093002  0.61147838  1
