# generated using pymatgen
data_Al36N35O
_symmetry_space_group_name_H-M   'P 1'
_cell_length_a   9.35166648
_cell_length_b   9.35166687
_cell_length_c   9.97946924
_cell_angle_alpha   89.99999991
_cell_angle_beta   90.00000037
_cell_angle_gamma   60.00000084
_symmetry_Int_Tables_number   1
_chemical_formula_structural   Al36N35O
_chemical_formula_sum   'Al36 N35 O1'
_cell_volume   755.81606067
_cell_formula_units_Z   1
loop_
 _symmetry_equiv_pos_site_id
 _symmetry_equiv_pos_as_xyz
  1  'x, y, z'
loop_
 _atom_site_type_symbol
 _atom_site_label
 _atom_site_symmetry_multiplicity
 _atom_site_fract_x
 _atom_site_fract_y
 _atom_site_fract_z
 _atom_site_occupancy
  Al  Al0  1  0.10723675  0.09043902  0.40093184  1
  Al  Al1  1  0.22214587  0.20534747  0.14063072  1
  Al  Al2  1  0.77783571  0.09396764  0.89898318  1
  Al  Al3  1  0.88824551  0.20584643  0.64963414  1
  Al  Al4  1  0.45196333  0.09043859  0.40093185  1
  Al  Al5  1  0.55593880  0.20605751  0.14845331  1
  Al  Al6  1  0.11054963  0.09375126  0.89952154  1
  Al  Al7  1  0.22214557  0.20534770  0.65209363  1
  Al  Al8  1  0.77777611  0.09408655  0.39923454  1
  Al  Al9  1  0.88764351  0.20605750  0.14845324  1
  Al  Al10  1  0.44533812  0.09375152  0.89952172  1
  Al  Al11  1  0.55554743  0.20584627  0.64963412  1
  Al  Al12  1  0.10723648  0.43516531  0.40093182  1
  Al  Al13  1  0.22285582  0.53914035  0.14845329  1
  Al  Al14  1  0.77753170  0.42765453  0.89895583  1
  Al  Al15  1  0.88824539  0.53874917  0.64963423  1
  Al  Al16  1  0.44490405  0.42810609  0.39995810  1
  Al  Al17  1  0.55547932  0.53868090  0.14854552  1
  Al  Al18  1  0.11054977  0.42854001  0.89952168  1
  Al  Al19  1  0.22264429  0.53874930  0.64963404  1
  Al  Al20  1  0.77662786  0.42810632  0.39995806  1
  Al  Al21  1  0.88764337  0.53914009  0.14845325  1
  Al  Al22  1  0.44445266  0.42765450  0.89895581  1
  Al  Al23  1  0.55547912  0.53868099  0.64971868  1
  Al  Al24  1  0.11088479  0.76097804  0.39923448  1
  Al  Al25  1  0.22285584  0.87084502  0.14845325  1
  Al  Al26  1  0.77783578  0.76103770  0.89898317  1
  Al  Al27  1  0.88881250  0.87201424  0.64928861  1
  Al  Al28  1  0.44490413  0.75983017  0.39995804  1
  Al  Al29  1  0.55593870  0.87084473  0.14845327  1
  Al  Al30  1  0.11076601  0.76103750  0.89898311  1
  Al  Al31  1  0.22264440  0.87144745  0.64963402  1
  Al  Al32  1  0.77777615  0.76097824  0.39923457  1
  Al  Al33  1  0.88881268  0.87201412  0.14882665  1
  Al  Al34  1  0.44445262  0.76073367  0.89895579  1
  Al  Al35  1  0.55554738  0.87144720  0.64963418  1
  O  O36  1  0.22214589  0.20534763  0.33900597  1
  N  N37  1  0.11118745  0.09438893  0.09215407  1
  N  N38  1  0.88922726  0.20506325  0.84032205  1
  N  N39  1  0.77761111  0.09441707  0.58975419  1
  N  N40  1  0.55402579  0.20601404  0.33979693  1
  N  N41  1  0.44406306  0.09438897  0.09215430  1
  N  N42  1  0.22214574  0.20534763  0.84233307  1
  N  N43  1  0.11195400  0.09515602  0.58890674  1
  N  N44  1  0.88959894  0.20601425  0.33979686  1
  N  N45  1  0.77769854  0.09424256  0.09026937  1
  N  N46  1  0.55534862  0.20506328  0.84032202  1
  N  N47  1  0.44252904  0.09515591  0.58890682  1
  N  N48  1  0.22281207  0.53722767  0.33979691  1
  N  N49  1  0.11118746  0.42726459  0.09215424  1
  N  N50  1  0.88922729  0.53855038  0.84032213  1
  N  N51  1  0.77769554  0.42757272  0.59026199  1
  N  N52  1  0.55547866  0.53868086  0.33980698  1
  N  N53  1  0.44436679  0.42756843  0.08998891  1
  N  N54  1  0.22186147  0.53855047  0.84032194  1
  N  N55  1  0.11195391  0.42573103  0.58890675  1
  N  N56  1  0.88959870  0.53722772  0.33979689  1
  N  N57  1  0.77770418  0.42756838  0.08998888  1
  N  N58  1  0.55547900  0.53868092  0.84023004  1
  N  N59  1  0.44437075  0.42757268  0.59026203  1
  N  N60  1  0.22281214  0.87280109  0.33979687  1
  N  N61  1  0.11104103  0.76090006  0.09026930  1
  N  N62  1  0.88881261  0.87201426  0.84006199  1
  N  N63  1  0.77761103  0.76081287  0.58975420  1
  N  N64  1  0.55402580  0.87280071  0.33979690  1
  N  N65  1  0.44436673  0.76090580  0.08998887  1
  N  N66  1  0.22186144  0.87242908  0.84032192  1
  N  N67  1  0.11121522  0.76081296  0.58975412  1
  N  N68  1  0.88881249  0.87201422  0.33999084  1
  N  N69  1  0.77769847  0.76089994  0.09026932  1
  N  N70  1  0.55534856  0.87242909  0.84032207  1
  N  N71  1  0.44437076  0.76089750  0.59026198  1
