# generated using pymatgen
data_Al36N35O
_symmetry_space_group_name_H-M   'P 1'
_cell_length_a   9.50587312
_cell_length_b   9.50587292
_cell_length_c   9.54815130
_cell_angle_alpha   90.00001559
_cell_angle_beta   89.99996696
_cell_angle_gamma   59.99999550
_symmetry_Int_Tables_number   1
_chemical_formula_structural   Al36N35O
_chemical_formula_sum   'Al36 N35 O1'
_cell_volume   747.19493940
_cell_formula_units_Z   1
loop_
 _symmetry_equiv_pos_site_id
 _symmetry_equiv_pos_as_xyz
  1  'x, y, z'
loop_
 _atom_site_type_symbol
 _atom_site_label
 _atom_site_symmetry_multiplicity
 _atom_site_fract_x
 _atom_site_fract_y
 _atom_site_fract_z
 _atom_site_occupancy
  Al  Al0  1  0.10799432  0.09124225  0.32975772  1
  Al  Al1  1  0.22213392  0.20538208  0.07234542  1
  Al  Al2  1  0.77777295  0.09410384  0.82922643  1
  Al  Al3  1  0.88683787  0.20652391  0.57884859  1
  Al  Al4  1  0.45041329  0.09124220  0.32975776  1
  Al  Al5  1  0.55498092  0.20556696  0.07892385  1
  Al  Al6  1  0.10975890  0.09300690  0.82634676  1
  Al  Al7  1  0.22213389  0.20538207  0.59165749  1
  Al  Al8  1  0.77788208  0.09388560  0.32830755  1
  Al  Al9  1  0.88910193  0.20556697  0.07892385  1
  Al  Al10  1  0.44688407  0.09300683  0.82634673  1
  Al  Al11  1  0.55628802  0.20652385  0.57884858  1
  Al  Al12  1  0.10799420  0.43366143  0.32975778  1
  Al  Al13  1  0.22231886  0.53822908  0.07892383  1
  Al  Al14  1  0.77786940  0.42751428  0.82941354  1
  Al  Al15  1  0.88683785  0.53953625  0.57884856  1
  Al  Al16  1  0.44506702  0.42831518  0.32755070  1
  Al  Al17  1  0.55546725  0.53871536  0.07756271  1
  Al  Al18  1  0.10975879  0.43013224  0.82634670  1
  Al  Al19  1  0.22327571  0.53953621  0.57884855  1
  Al  Al20  1  0.77626766  0.42831515  0.32755071  1
  Al  Al21  1  0.88910191  0.53822903  0.07892382  1
  Al  Al22  1  0.44426609  0.42751426  0.82941358  1
  Al  Al23  1  0.55546724  0.53871534  0.57992292  1
  Al  Al24  1  0.11063763  0.76113012  0.32830753  1
  Al  Al25  1  0.22231894  0.87234995  0.07892384  1
  Al  Al26  1  0.77777287  0.76102092  0.82922640  1
  Al  Al27  1  0.88880059  0.87204850  0.57936208  1
  Al  Al28  1  0.44506703  0.75951573  0.32755071  1
  Al  Al29  1  0.55498093  0.87234993  0.07892384  1
  Al  Al30  1  0.11085586  0.76102099  0.82922641  1
  Al  Al31  1  0.22327586  0.87008586  0.57884859  1
  Al  Al32  1  0.77788199  0.76113004  0.32830752  1
  Al  Al33  1  0.88880057  0.87204852  0.07825769  1
  Al  Al34  1  0.44426617  0.76111745  0.82941351  1
  Al  Al35  1  0.55628817  0.87008583  0.57884856  1
  O  O36  1  0.22213390  0.20538201  0.38539964  1
  N  N37  1  0.11279046  0.09603865  0.13289499  1
  N  N38  1  0.88973162  0.20474401  0.88001423  1
  N  N39  1  0.77759770  0.09445440  0.62998458  1
  N  N40  1  0.55451434  0.20633874  0.37990854  1
  N  N41  1  0.44082070  0.09603867  0.13289503  1
  N  N42  1  0.22213388  0.20538203  0.87316515  1
  N  N43  1  0.11079485  0.09404303  0.62599846  1
  N  N44  1  0.88879676  0.20633863  0.37990854  1
  N  N45  1  0.77763228  0.09438522  0.12991703  1
  N  N46  1  0.55517411  0.20474407  0.88001425  1
  N  N47  1  0.44481186  0.09404304  0.62599845  1
  N  N48  1  0.22309067  0.53776242  0.37990851  1
  N  N49  1  0.11279055  0.42406882  0.13289501  1
  N  N50  1  0.88973164  0.53842208  0.88001422  1
  N  N51  1  0.77776871  0.42756444  0.63046966  1
  N  N52  1  0.55546724  0.53871522  0.38061237  1
  N  N53  1  0.44442118  0.42766914  0.12931022  1
  N  N54  1  0.22149600  0.53842219  0.88001426  1
  N  N55  1  0.11079498  0.42805987  0.62599842  1
  N  N56  1  0.88879681  0.53776231  0.37990850  1
  N  N57  1  0.77755945  0.42766909  0.12931022  1
  N  N58  1  0.55546721  0.53871522  0.87934457  1
  N  N59  1  0.44431654  0.42756448  0.63046969  1
  N  N60  1  0.22309048  0.87204501  0.37990852  1
  N  N61  1  0.11113706  0.76088046  0.12991700  1
  N  N62  1  0.88880049  0.87204875  0.87963243  1
  N  N63  1  0.77759770  0.76084586  0.62998460  1
  N  N64  1  0.55451419  0.87204501  0.37990850  1
  N  N65  1  0.44442108  0.76080750  0.12931022  1
  N  N66  1  0.22149588  0.87297985  0.88001422  1
  N  N67  1  0.11120623  0.76084589  0.62998459  1
  N  N68  1  0.88880050  0.87204874  0.38025849  1
  N  N69  1  0.77763227  0.76088041  0.12991699  1
  N  N70  1  0.55517394  0.87297983  0.88001423  1
  N  N71  1  0.44431645  0.76101677  0.63046965  1
