# generated using pymatgen
data_Al36N35O
_symmetry_space_group_name_H-M   'P 1'
_cell_length_a   9.45009055
_cell_length_b   9.45009174
_cell_length_c   9.71028597
_cell_angle_alpha   90.00001398
_cell_angle_beta   89.99996717
_cell_angle_gamma   60.00000168
_symmetry_Int_Tables_number   1
_chemical_formula_structural   Al36N35O
_chemical_formula_sum   'Al36 N35 O1'
_cell_volume   750.99086380
_cell_formula_units_Z   1
loop_
 _symmetry_equiv_pos_site_id
 _symmetry_equiv_pos_as_xyz
  1  'x, y, z'
loop_
 _atom_site_type_symbol
 _atom_site_label
 _atom_site_symmetry_multiplicity
 _atom_site_fract_x
 _atom_site_fract_y
 _atom_site_fract_z
 _atom_site_occupancy
  Al  Al0  1  0.10766448  0.09091257  0.32701652  1
  Al  Al1  1  0.22213393  0.20538201  0.07212730  1
  Al  Al2  1  0.77778779  0.09407418  0.82745865  1
  Al  Al3  1  0.88713862  0.20635939  0.57747451  1
  Al  Al4  1  0.45107271  0.09091260  0.32701651  1
  Al  Al5  1  0.55518905  0.20569125  0.07702442  1
  Al  Al6  1  0.11007928  0.09332737  0.82551627  1
  Al  Al7  1  0.22213389  0.20538193  0.58809503  1
  Al  Al8  1  0.77784497  0.09395983  0.32682183  1
  Al  Al9  1  0.88876951  0.20569122  0.07702441  1
  Al  Al10  1  0.44624310  0.09332740  0.82551627  1
  Al  Al11  1  0.55615176  0.20635937  0.57747450  1
  Al  Al12  1  0.10766455  0.43432079  0.32701654  1
  Al  Al13  1  0.22244323  0.53843713  0.07702441  1
  Al  Al14  1  0.77774622  0.42757578  0.82758301  1
  Al  Al15  1  0.88713862  0.53939985  0.57747450  1
  Al  Al16  1  0.44500653  0.42825454  0.32609556  1
  Al  Al17  1  0.55546727  0.53871528  0.07616817  1
  Al  Al18  1  0.11007935  0.42949118  0.82551623  1
  Al  Al19  1  0.22311132  0.53939986  0.57747450  1
  Al  Al20  1  0.77638878  0.42825450  0.32609557  1
  Al  Al21  1  0.88876954  0.53843708  0.07702442  1
  Al  Al22  1  0.44432776  0.42757580  0.82758301  1
  Al  Al23  1  0.55546727  0.53871525  0.57807293  1
  Al  Al24  1  0.11071172  0.76109310  0.32682182  1
  Al  Al25  1  0.22244320  0.87201759  0.07702439  1
  Al  Al26  1  0.77778779  0.76103587  0.82745868  1
  Al  Al27  1  0.88880058  0.87204867  0.57762337  1
  Al  Al28  1  0.44500648  0.75963680  0.32609558  1
  Al  Al29  1  0.55518901  0.87201759  0.07702443  1
  Al  Al30  1  0.11082611  0.76103589  0.82745866  1
  Al  Al31  1  0.22311134  0.87038669  0.57747452  1
  Al  Al32  1  0.77784498  0.76109306  0.32682180  1
  Al  Al33  1  0.88880056  0.87204867  0.07674344  1
  Al  Al34  1  0.44432775  0.76099424  0.82758301  1
  Al  Al35  1  0.55615180  0.87038666  0.57747449  1
  O  O36  1  0.22213389  0.20538202  0.38549100  1
  N  N37  1  0.11246999  0.09571804  0.13384949  1
  N  N38  1  0.88953789  0.20487440  0.88153492  1
  N  N39  1  0.77763085  0.09438800  0.63153855  1
  N  N40  1  0.55434069  0.20623255  0.38171950  1
  N  N41  1  0.44146176  0.09571803  0.13384952  1
  N  N42  1  0.22213384  0.20538205  0.87667708  1
  N  N43  1  0.11093400  0.09418202  0.62843494  1
  N  N44  1  0.88907650  0.20623252  0.38171949  1
  N  N45  1  0.77762279  0.09440418  0.13171374  1
  N  N46  1  0.55523741  0.20487441  0.88153491  1
  N  N47  1  0.44453373  0.09418199  0.62843494  1
  N  N48  1  0.22298437  0.53758895  0.38171947  1
  N  N49  1  0.11246998  0.42470987  0.13384952  1
  N  N50  1  0.88953792  0.53848557  0.88153491  1
  N  N51  1  0.77774037  0.42757874  0.63193816  1
  N  N52  1  0.55546721  0.53871536  0.38212336  1
  N  N53  1  0.44440072  0.42764878  0.13115994  1
  N  N54  1  0.22162624  0.53848562  0.88153493  1
  N  N55  1  0.11093400  0.42778177  0.62843490  1
  N  N56  1  0.88907650  0.53758890  0.38171948  1
  N  N57  1  0.77760030  0.42764877  0.13115994  1
  N  N58  1  0.55546720  0.53871534  0.88116123  1
  N  N59  1  0.44433065  0.42757872  0.63193816  1
  N  N60  1  0.22298437  0.87232465  0.38171949  1
  N  N61  1  0.11115614  0.76087086  0.13171371  1
  N  N62  1  0.88880050  0.87204867  0.88139668  1
  N  N63  1  0.77763088  0.76087892  0.63153857  1
  N  N64  1  0.55434073  0.87232464  0.38171949  1
  N  N65  1  0.44440073  0.76084830  0.13115996  1
  N  N66  1  0.22162626  0.87278607  0.88153492  1
  N  N67  1  0.11113995  0.76087893  0.63153856  1
  N  N68  1  0.88880052  0.87204866  0.38182943  1
  N  N69  1  0.77762278  0.76087081  0.13171370  1
  N  N70  1  0.55523739  0.87278606  0.88153491  1
  N  N71  1  0.44433071  0.76098837  0.63193815  1
