# generated using pymatgen
data_Al36N35O
_symmetry_space_group_name_H-M   'P 1'
_cell_length_a   9.66028832
_cell_length_b   9.66028829
_cell_length_c   9.07245893
_cell_angle_alpha   89.99998590
_cell_angle_beta   90.00001735
_cell_angle_gamma   60.00001305
_symmetry_Int_Tables_number   1
_chemical_formula_structural   Al36N35O
_chemical_formula_sum   'Al36 N35 O1'
_cell_volume   733.22265502
_cell_formula_units_Z   1
loop_
 _symmetry_equiv_pos_site_id
 _symmetry_equiv_pos_as_xyz
  1  'x, y, z'
loop_
 _atom_site_type_symbol
 _atom_site_label
 _atom_site_symmetry_multiplicity
 _atom_site_fract_x
 _atom_site_fract_y
 _atom_site_fract_z
 _atom_site_occupancy
  Al  Al0  1  0.10886088  0.09210878  0.36954524  1
  Al  Al1  1  0.22213400  0.20538198  0.10609352  1
  Al  Al2  1  0.77777258  0.09410458  0.87271944  1
  Al  Al3  1  0.88986005  0.20529918  0.62270734  1
  Al  Al4  1  0.44868020  0.09210869  0.36954524  1
  Al  Al5  1  0.55652046  0.20687446  0.12426200  1
  Al  Al6  1  0.10903511  0.09228302  0.87820673  1
  Al  Al7  1  0.22213398  0.20538192  0.63434221  1
  Al  Al8  1  0.77791567  0.09381837  0.37445775  1
  Al  Al9  1  0.88625499  0.20687438  0.12426201  1
  Al  Al10  1  0.44833190  0.09228286  0.87820673  1
  Al  Al11  1  0.55449057  0.20529915  0.62270734  1
  Al  Al12  1  0.10886079  0.43192815  0.36954528  1
  Al  Al13  1  0.22362659  0.53976837  0.12426200  1
  Al  Al14  1  0.77809675  0.42740031  0.87239296  1
  Al  Al15  1  0.88985992  0.53773844  0.62270738  1
  Al  Al16  1  0.44516214  0.42841000  0.37532456  1
  Al  Al17  1  0.55546727  0.53871512  0.12192676  1
  Al  Al18  1  0.10903493  0.43157991  0.87820670  1
  Al  Al19  1  0.22205128  0.53773851  0.62270735  1
  Al  Al20  1  0.77607752  0.42840999  0.37532450  1
  Al  Al21  1  0.88625492  0.53976821  0.12426197  1
  Al  Al22  1  0.44415249  0.42740034  0.87239289  1
  Al  Al23  1  0.55546727  0.53871511  0.62541094  1
  Al  Al24  1  0.11057050  0.76116358  0.37445773  1
  Al  Al25  1  0.22362650  0.86950293  0.12426201  1
  Al  Al26  1  0.77777246  0.76102038  0.87271953  1
  Al  Al27  1  0.88880058  0.87204847  0.62432640  1
  Al  Al28  1  0.44516213  0.75932537  0.37532450  1
  Al  Al29  1  0.55652028  0.86950286  0.12426197  1
  Al  Al30  1  0.11085672  0.76102049  0.87271947  1
  Al  Al31  1  0.22205132  0.87310795  0.62270735  1
  Al  Al32  1  0.77791559  0.76116349  0.37445767  1
  Al  Al33  1  0.88880058  0.87204847  0.12279161  1
  Al  Al34  1  0.44415247  0.76134460  0.87239296  1
  Al  Al35  1  0.55449050  0.87310783  0.62270737  1
  O  O36  1  0.22213400  0.20538198  0.32609560  1
  N  N37  1  0.11072987  0.09397783  0.09135497  1
  N  N38  1  0.89024067  0.20442967  0.83469187  1
  N  N39  1  0.77762438  0.09440101  0.58551540  1
  N  N40  1  0.55491175  0.20651620  0.33560444  1
  N  N41  1  0.44494227  0.09397775  0.09135494  1
  N  N42  1  0.22213401  0.20538203  0.84631596  1
  N  N43  1  0.11354493  0.09679285  0.58013426  1
  N  N44  1  0.88822185  0.20651618  0.33560444  1
  N  N45  1  0.77753296  0.09458389  0.08476598  1
  N  N46  1  0.55497950  0.20442968  0.83469185  1
  N  N47  1  0.43931207  0.09679275  0.58013427  1
  N  N48  1  0.22326831  0.53815969  0.33560443  1
  N  N49  1  0.11072980  0.42819027  0.09135493  1
  N  N50  1  0.89024050  0.53822734  0.83469191  1
  N  N51  1  0.77751296  0.42769231  0.58628839  1
  N  N52  1  0.55546727  0.53871515  0.33414971  1
  N  N53  1  0.44429179  0.42753969  0.08401472  1
  N  N54  1  0.22118180  0.53822746  0.83469186  1
  N  N55  1  0.11354482  0.42256007  0.58013430  1
  N  N56  1  0.88822180  0.53815961  0.33560439  1
  N  N57  1  0.77781821  0.42753966  0.08401478  1
  N  N58  1  0.55546727  0.53871514  0.83599860  1
  N  N59  1  0.44444438  0.42769229  0.58628844  1
  N  N60  1  0.22326829  0.87146978  0.33560444  1
  N  N61  1  0.11133598  0.76078091  0.08476600  1
  N  N62  1  0.88880057  0.87204846  0.83559360  1
  N  N63  1  0.77762430  0.76087224  0.58551534  1
  N  N64  1  0.55491168  0.87146971  0.33560439  1
  N  N65  1  0.44429176  0.76106609  0.08401478  1
  N  N66  1  0.22118179  0.87348859  0.83469188  1
  N  N67  1  0.11115310  0.76087233  0.58551538  1
  N  N68  1  0.88880059  0.87204850  0.33464108  1
  N  N69  1  0.77753284  0.76078079  0.08476604  1
  N  N70  1  0.55497938  0.87348845  0.83469191  1
  N  N71  1  0.44444442  0.76076083  0.58628839  1
