# generated using pymatgen
data_Al36N35O
_symmetry_space_group_name_H-M   'P 1'
_cell_length_a   9.45014547
_cell_length_b   9.45014337
_cell_length_c   9.71011524
_cell_angle_alpha   89.99998301
_cell_angle_beta   90.00002972
_cell_angle_gamma   60.00001082
_symmetry_Int_Tables_number   1
_chemical_formula_structural   Al36N35O
_chemical_formula_sum   'Al36 N35 O1'
_cell_volume   750.98619677
_cell_formula_units_Z   1
loop_
 _symmetry_equiv_pos_site_id
 _symmetry_equiv_pos_as_xyz
  1  'x, y, z'
loop_
 _atom_site_type_symbol
 _atom_site_label
 _atom_site_symmetry_multiplicity
 _atom_site_fract_x
 _atom_site_fract_y
 _atom_site_fract_z
 _atom_site_occupancy
  Al  Al0  1  0.10766496  0.09091308  0.38167753  1
  Al  Al1  1  0.22213403  0.20538169  0.12060163  1
  Al  Al2  1  0.77778785  0.09407397  0.88123747  1
  Al  Al3  1  0.88877130  0.20569029  0.63167298  1
  Al  Al4  1  0.45107168  0.09091308  0.38167752  1
  Al  Al5  1  0.55615311  0.20636041  0.13122393  1
  Al  Al6  1  0.11007827  0.09332631  0.88318735  1
  Al  Al7  1  0.22213399  0.20538185  0.63657584  1
  Al  Al8  1  0.77784516  0.09395938  0.38187648  1
  Al  Al9  1  0.88713619  0.20636045  0.13122391  1
  Al  Al10  1  0.44624513  0.09332631  0.88318735  1
  Al  Al11  1  0.55518819  0.20569030  0.63167297  1
  Al  Al12  1  0.10766512  0.43431956  0.38167760  1
  Al  Al13  1  0.22311266  0.53940091  0.13122389  1
  Al  Al14  1  0.77774655  0.42757547  0.88111316  1
  Al  Al15  1  0.88877129  0.53843602  0.63167296  1
  Al  Al16  1  0.44500714  0.42825482  0.38260362  1
  Al  Al17  1  0.55546733  0.53871512  0.13062349  1
  Al  Al18  1  0.11007838  0.42949302  0.88318729  1
  Al  Al19  1  0.22244252  0.53843604  0.63167296  1
  Al  Al20  1  0.77638784  0.42825479  0.38260362  1
  Al  Al21  1  0.88713619  0.53940094  0.13122389  1
  Al  Al22  1  0.44432771  0.42757546  0.88111316  1
  Al  Al23  1  0.55546735  0.53871511  0.63253081  1
  Al  Al24  1  0.11071137  0.76109318  0.38187646  1
  Al  Al25  1  0.22311264  0.87038415  0.13122390  1
  Al  Al26  1  0.77778785  0.76103585  0.88123743  1
  Al  Al27  1  0.88880057  0.87204861  0.63195410  1
  Al  Al28  1  0.44500702  0.75963569  0.38260361  1
  Al  Al29  1  0.55615304  0.87038415  0.13122391  1
  Al  Al30  1  0.11082597  0.76103589  0.88123744  1
  Al  Al31  1  0.22244242  0.87201927  0.63167299  1
  Al  Al32  1  0.77784518  0.76109315  0.38187646  1
  Al  Al33  1  0.88880056  0.87204865  0.13107262  1
  Al  Al34  1  0.44432765  0.76099442  0.88111313  1
  Al  Al35  1  0.55518811  0.87201927  0.63167298  1
  O  O36  1  0.22213396  0.20538188  0.32321423  1
  N  N37  1  0.11093409  0.09418205  0.08027844  1
  N  N38  1  0.88954031  0.20487312  0.82717281  1
  N  N39  1  0.77762270  0.09440428  0.57699432  1
  N  N40  1  0.55434135  0.20623295  0.32698856  1
  N  N41  1  0.44453350  0.09418204  0.08027844  1
  N  N42  1  0.22213392  0.20538189  0.83203836  1
  N  N43  1  0.11247132  0.09571929  0.57485544  1
  N  N44  1  0.88907547  0.20623292  0.32698855  1
  N  N45  1  0.77763073  0.09438820  0.07716781  1
  N  N46  1  0.55523630  0.20487315  0.82717279  1
  N  N47  1  0.44145906  0.09571930  0.57485542  1
  N  N48  1  0.22298503  0.53758932  0.32698853  1
  N  N49  1  0.11093399  0.42778171  0.08027843  1
  N  N50  1  0.88954030  0.53848424  0.82717282  1
  N  N51  1  0.77760068  0.42764857  0.57754888  1
  N  N52  1  0.55546728  0.53871522  0.32658370  1
  N  N53  1  0.44433034  0.42757855  0.07676824  1
  N  N54  1  0.22162522  0.53848430  0.82717281  1
  N  N55  1  0.11247127  0.42470722  0.57485545  1
  N  N56  1  0.88907548  0.53758928  0.32698853  1
  N  N57  1  0.77774078  0.42757855  0.07676823  1
  N  N58  1  0.55546727  0.53871518  0.82754664  1
  N  N59  1  0.44440043  0.42764859  0.57754887  1
  N  N60  1  0.22298513  0.87232321  0.32698854  1
  N  N61  1  0.11114025  0.76087868  0.07716783  1
  N  N62  1  0.88880067  0.87204839  0.82731009  1
  N  N63  1  0.77762268  0.76087065  0.57699429  1
  N  N64  1  0.55434141  0.87232321  0.32698855  1
  N  N65  1  0.44433046  0.76098873  0.07676822  1
  N  N66  1  0.22162527  0.87278811  0.82717280  1
  N  N67  1  0.11115633  0.76087069  0.57699428  1
  N  N68  1  0.88880069  0.87204837  0.32687726  1
  N  N69  1  0.77763077  0.76087866  0.07716783  1
  N  N70  1  0.55523634  0.87278811  0.82717280  1
  N  N71  1  0.44440049  0.76084866  0.57754889  1
