# generated using pymatgen
data_Al36N35O
_symmetry_space_group_name_H-M   'P 1'
_cell_length_a   9.35166515
_cell_length_b   9.35166554
_cell_length_c   9.97946357
_cell_angle_alpha   89.99999516
_cell_angle_beta   89.99999927
_cell_angle_gamma   60.00000196
_symmetry_Int_Tables_number   1
_chemical_formula_structural   Al36N35O
_chemical_formula_sum   'Al36 N35 O1'
_cell_volume   755.81542509
_cell_formula_units_Z   1
loop_
 _symmetry_equiv_pos_site_id
 _symmetry_equiv_pos_as_xyz
  1  'x, y, z'
loop_
 _atom_site_type_symbol
 _atom_site_label
 _atom_site_symmetry_multiplicity
 _atom_site_fract_x
 _atom_site_fract_y
 _atom_site_fract_z
 _atom_site_occupancy
  Al  Al0  1  0.10724238  0.09042271  0.40821371  1
  Al  Al1  1  0.22215153  0.20533120  0.14791142  1
  Al  Al2  1  0.77784141  0.09395116  0.90626526  1
  Al  Al3  1  0.88825121  0.20582991  0.65691658  1
  Al  Al4  1  0.45196903  0.09042228  0.40821373  1
  Al  Al5  1  0.55594439  0.20604129  0.15573472  1
  Al  Al6  1  0.11055533  0.09373500  0.90680354  1
  Al  Al7  1  0.22215122  0.20533123  0.65937466  1
  Al  Al8  1  0.77778169  0.09407035  0.40651651  1
  Al  Al9  1  0.88764912  0.20604130  0.15573468  1
  Al  Al10  1  0.44534359  0.09373524  0.90680367  1
  Al  Al11  1  0.55555310  0.20582975  0.65691658  1
  Al  Al12  1  0.10724214  0.43514901  0.40821371  1
  Al  Al13  1  0.22286151  0.53912403  0.15573474  1
  Al  Al14  1  0.77753735  0.42763814  0.90623777  1
  Al  Al15  1  0.88825112  0.53873274  0.65691668  1
  Al  Al16  1  0.44490967  0.42808976  0.40724066  1
  Al  Al17  1  0.55548494  0.53866466  0.15582732  1
  Al  Al18  1  0.11055551  0.42852344  0.90680364  1
  Al  Al19  1  0.22264985  0.53873289  0.65691653  1
  Al  Al20  1  0.77663355  0.42808998  0.40724060  1
  Al  Al21  1  0.88764901  0.53912373  0.15573469  1
  Al  Al22  1  0.44445828  0.42763812  0.90623777  1
  Al  Al23  1  0.55548477  0.53866459  0.65700139  1
  Al  Al24  1  0.11089055  0.76096166  0.40651650  1
  Al  Al25  1  0.22286151  0.87082875  0.15573473  1
  Al  Al26  1  0.77784147  0.76102136  0.90626527  1
  Al  Al27  1  0.88881814  0.87199780  0.65657077  1
  Al  Al28  1  0.44490974  0.75981393  0.40724062  1
  Al  Al29  1  0.55594427  0.87082845  0.15573472  1
  Al  Al30  1  0.11077152  0.76102118  0.90626524  1
  Al  Al31  1  0.22264993  0.87143110  0.65691651  1
  Al  Al32  1  0.77778175  0.76096185  0.40651656  1
  Al  Al33  1  0.88881829  0.87199784  0.15610870  1
  Al  Al34  1  0.44445820  0.76071735  0.90623776  1
  Al  Al35  1  0.55555306  0.87143082  0.65691665  1
  O  O36  1  0.22215157  0.20533134  0.34628635  1
  N  N37  1  0.11119305  0.09437265  0.09943538  1
  N  N38  1  0.88923289  0.20504682  0.84760413  1
  N  N39  1  0.77761671  0.09440070  0.59703617  1
  N  N40  1  0.55403140  0.20599786  0.34707843  1
  N  N41  1  0.44406876  0.09437266  0.09943549  1
  N  N42  1  0.22215139  0.20533124  0.84961393  1
  N  N43  1  0.11195953  0.09513950  0.59618829  1
  N  N44  1  0.88960450  0.20599806  0.34707840  1
  N  N45  1  0.77770424  0.09422619  0.09755115  1
  N  N46  1  0.55535433  0.20504685  0.84760413  1
  N  N47  1  0.44253484  0.09513938  0.59618839  1
  N  N48  1  0.22281783  0.53721133  0.34707847  1
  N  N49  1  0.11119307  0.42724837  0.09943545  1
  N  N50  1  0.88923294  0.53853404  0.84760424  1
  N  N51  1  0.77770118  0.42755630  0.59754436  1
  N  N52  1  0.55548429  0.53866459  0.34708898  1
  N  N53  1  0.44437245  0.42755222  0.09727057  1
  N  N54  1  0.22186705  0.53853416  0.84760409  1
  N  N55  1  0.11195949  0.42571472  0.59618833  1
  N  N56  1  0.88960430  0.53721135  0.34707843  1
  N  N57  1  0.77770971  0.42755216  0.09727050  1
  N  N58  1  0.55548462  0.53866457  0.84751228  1
  N  N59  1  0.44437640  0.42755628  0.59754445  1
  N  N60  1  0.22281789  0.87278472  0.34707845  1
  N  N61  1  0.11104655  0.76088384  0.09755115  1
  N  N62  1  0.88881823  0.87199787  0.84734397  1
  N  N63  1  0.77761666  0.76079639  0.59703623  1
  N  N64  1  0.55403140  0.87278436  0.34707846  1
  N  N65  1  0.44437237  0.76088947  0.09727053  1
  N  N66  1  0.22186697  0.87241273  0.84760407  1
  N  N67  1  0.11122094  0.76079648  0.59703616  1
  N  N68  1  0.88881813  0.87199791  0.34727279  1
  N  N69  1  0.77770413  0.76088368  0.09755116  1
  N  N70  1  0.55535426  0.87241271  0.84760421  1
  N  N71  1  0.44437638  0.76088109  0.59754440  1
