# generated using pymatgen
data_Al36N35O
_symmetry_space_group_name_H-M   'P 1'
_cell_length_a   9.55948851
_cell_length_b   9.55948848
_cell_length_c   9.38703764
_cell_angle_alpha   89.99998196
_cell_angle_beta   90.00002625
_cell_angle_gamma   60.00001434
_symmetry_Int_Tables_number   1
_chemical_formula_structural   Al36N35O
_chemical_formula_sum   'Al36 N35 O1'
_cell_volume   742.89692979
_cell_formula_units_Z   1
loop_
 _symmetry_equiv_pos_site_id
 _symmetry_equiv_pos_as_xyz
  1  'x, y, z'
loop_
 _atom_site_type_symbol
 _atom_site_label
 _atom_site_symmetry_multiplicity
 _atom_site_fract_x
 _atom_site_fract_y
 _atom_site_fract_z
 _atom_site_occupancy
  Al  Al0  1  0.10832064  0.09156863  0.37596419  1
  Al  Al1  1  0.22213401  0.20538183  0.11325539  1
  Al  Al2  1  0.77776448  0.09412077  0.87747093  1
  Al  Al3  1  0.88940842  0.20545382  0.62765241  1
  Al  Al4  1  0.44976055  0.09156862  0.37596418  1
  Al  Al5  1  0.55640111  0.20667475  0.12826249  1
  Al  Al6  1  0.10945585  0.09270383  0.88130299  1
  Al  Al7  1  0.22213399  0.20538188  0.63594497  1
  Al  Al8  1  0.77790540  0.09383893  0.37868442  1
  Al  Al9  1  0.88657397  0.20667474  0.12826248  1
  Al  Al10  1  0.44749023  0.09270377  0.88130301  1
  Al  Al11  1  0.55478754  0.20545385  0.62765239  1
  Al  Al12  1  0.10832069  0.43300846  0.37596422  1
  Al  Al13  1  0.22342693  0.53964896  0.12826248  1
  Al  Al14  1  0.77796928  0.42746409  0.87722531  1
  Al  Al15  1  0.88940835  0.53803533  0.62765241  1
  Al  Al16  1  0.44511666  0.42836448  0.37948324  1
  Al  Al17  1  0.55546730  0.53871513  0.12671716  1
  Al  Al18  1  0.10945581  0.43073819  0.88130297  1
  Al  Al19  1  0.22220602  0.53803542  0.62765240  1
  Al  Al20  1  0.77616862  0.42836440  0.37948321  1
  Al  Al21  1  0.88657393  0.53964890  0.12826247  1
  Al  Al22  1  0.44421625  0.42746410  0.87722528  1
  Al  Al23  1  0.55546731  0.53871511  0.62951114  1
  Al  Al24  1  0.11059102  0.76115334  0.37868441  1
  Al  Al25  1  0.22342689  0.86982188  0.12826249  1
  Al  Al26  1  0.77776439  0.76101234  0.87747094  1
  Al  Al27  1  0.88880059  0.87204848  0.62868269  1
  Al  Al28  1  0.44511654  0.75941652  0.37948320  1
  Al  Al29  1  0.55640102  0.86982183  0.12826248  1
  Al  Al30  1  0.11087286  0.76101242  0.87747093  1
  Al  Al31  1  0.22220597  0.87265633  0.62765241  1
  Al  Al32  1  0.77790533  0.76115326  0.37868439  1
  Al  Al33  1  0.88880060  0.87204851  0.12738777  1
  Al  Al34  1  0.44421622  0.76121716  0.87722530  1
  Al  Al35  1  0.55478743  0.87265628  0.62765241  1
  O  O36  1  0.22213396  0.20538191  0.32378418  1
  N  N37  1  0.11070456  0.09395251  0.08540238  1
  N  N38  1  0.88992196  0.20462070  0.83042464  1
  N  N39  1  0.77763719  0.09437534  0.58079795  1
  N  N40  1  0.55467147  0.20642633  0.33083204  1
  N  N41  1  0.44499278  0.09395245  0.08540238  1
  N  N42  1  0.22213398  0.20538198  0.83922624  1
  N  N43  1  0.11308552  0.09633345  0.57696920  1
  N  N44  1  0.88855201  0.20642628  0.33083203  1
  N  N45  1  0.77757056  0.09450864  0.08047483  1
  N  N46  1  0.55510713  0.20462071  0.83042461  1
  N  N47  1  0.44023082  0.09633342  0.57696917  1
  N  N48  1  0.22317842  0.53791942  0.33083204  1
  N  N49  1  0.11070448  0.42824081  0.08540238  1
  N  N50  1  0.88992187  0.53835501  0.83042465  1
  N  N51  1  0.77753152  0.42768304  0.58146639  1
  N  N52  1  0.55546727  0.53871519  0.32983140  1
  N  N53  1  0.44430338  0.42755138  0.07989960  1
  N  N54  1  0.22137280  0.53835510  0.83042461  1
  N  N55  1  0.11308546  0.42347884  0.57696920  1
  N  N56  1  0.88855197  0.53791933  0.33083203  1
  N  N57  1  0.77779493  0.42755138  0.07989963  1
  N  N58  1  0.55546726  0.53871516  0.83136451  1
  N  N59  1  0.44443509  0.42768305  0.58146640  1
  N  N60  1  0.22317841  0.87179989  0.33083204  1
  N  N61  1  0.11126071  0.76081851  0.08047484  1
  N  N62  1  0.88880059  0.87204844  0.83102409  1
  N  N63  1  0.77763713  0.76088506  0.58079793  1
  N  N64  1  0.55467141  0.87179985  0.33083203  1
  N  N65  1  0.44430341  0.76104286  0.07989962  1
  N  N66  1  0.22137281  0.87316985  0.83042463  1
  N  N67  1  0.11112743  0.76088513  0.58079794  1
  N  N68  1  0.88880059  0.87204846  0.33023885  1
  N  N69  1  0.77757050  0.76081844  0.08047485  1
  N  N70  1  0.55510707  0.87316979  0.83042464  1
  N  N71  1  0.44443510  0.76077944  0.58146640  1
