# generated using pymatgen
data_Al36N35O
_symmetry_space_group_name_H-M   'P 1'
_cell_length_a   9.39191293
_cell_length_b   9.39191616
_cell_length_c   9.87211325
_cell_angle_alpha   90.00001113
_cell_angle_beta   89.99997886
_cell_angle_gamma   60.00000697
_symmetry_Int_Tables_number   1
_chemical_formula_structural   Al36N35O
_chemical_formula_sum   'Al36 N35 O1'
_cell_volume   754.13492772
_cell_formula_units_Z   1
loop_
 _symmetry_equiv_pos_site_id
 _symmetry_equiv_pos_as_xyz
  1  'x, y, z'
loop_
 _atom_site_type_symbol
 _atom_site_label
 _atom_site_symmetry_multiplicity
 _atom_site_fract_x
 _atom_site_fract_y
 _atom_site_fract_z
 _atom_site_occupancy
  Al  Al0  1  0.10737567  0.09062422  0.32459448  1
  Al  Al1  1  0.22213382  0.20538192  0.07202731  1
  Al  Al2  1  0.77780959  0.09403055  0.82595098  1
  Al  Al3  1  0.88743804  0.20619432  0.57630060  1
  Al  Al4  1  0.45165019  0.09062376  0.32459443  1
  Al  Al5  1  0.55539859  0.20580659  0.07538381  1
  Al  Al6  1  0.11037142  0.09361932  0.82487209  1
  Al  Al7  1  0.22213408  0.20538174  0.58507373  1
  Al  Al8  1  0.77780011  0.09404945  0.32555602  1
  Al  Al9  1  0.88844462  0.20580670  0.07538386  1
  Al  Al10  1  0.44565894  0.09361948  0.82487203  1
  Al  Al11  1  0.55601797  0.20619425  0.57630058  1
  Al  Al12  1  0.10737555  0.43489809  0.32459446  1
  Al  Al13  1  0.22255862  0.53864652  0.07538387  1
  Al  Al14  1  0.77761406  0.42764158  0.82601608  1
  Al  Al15  1  0.88743787  0.53926547  0.57630061  1
  Al  Al16  1  0.44493860  0.42818640  0.32484263  1
  Al  Al17  1  0.55546735  0.53871523  0.07500365  1
  Al  Al18  1  0.11037161  0.42890684  0.82487202  1
  Al  Al19  1  0.22294637  0.53926572  0.57630068  1
  Al  Al20  1  0.77652412  0.42818656  0.32484269  1
  Al  Al21  1  0.88844450  0.53864641  0.07538382  1
  Al  Al22  1  0.44439392  0.42764162  0.82601614  1
  Al  Al23  1  0.55546744  0.53871521  0.57646442  1
  Al  Al24  1  0.11080139  0.76104825  0.32555612  1
  Al  Al25  1  0.22255861  0.87169279  0.07538388  1
  Al  Al26  1  0.77780960  0.76105772  0.82595100  1
  Al  Al27  1  0.88880061  0.87204872  0.57611775  1
  Al  Al28  1  0.44493854  0.75977235  0.32484272  1
  Al  Al29  1  0.55539842  0.87169259  0.07538377  1
  Al  Al30  1  0.11078265  0.76105763  0.82595106  1
  Al  Al31  1  0.22294628  0.87068611  0.57630064  1
  Al  Al32  1  0.77780014  0.76104831  0.32555601  1
  Al  Al33  1  0.88880053  0.87204870  0.07547921  1
  Al  Al34  1  0.44439374  0.76086206  0.82601616  1
  Al  Al35  1  0.55601773  0.87068577  0.57630055  1
  O  O36  1  0.22213393  0.20538205  0.38530620  1
  N  N37  1  0.11214954  0.09539741  0.13467126  1
  N  N38  1  0.88934782  0.20500867  0.88289518  1
  N  N39  1  0.77766397  0.09432225  0.63293396  1
  N  N40  1  0.55415099  0.20612456  0.38331491  1
  N  N41  1  0.44210265  0.09539748  0.13467119  1
  N  N42  1  0.22213373  0.20538209  0.87983884  1
  N  N43  1  0.11108636  0.09433398  0.63059449  1
  N  N44  1  0.88937426  0.20612449  0.38331489  1
  N  N45  1  0.77760855  0.09443284  0.13332026  1
  N  N46  1  0.55529323  0.20500882  0.88289512  1
  N  N47  1  0.44422953  0.09433406  0.63059440  1
  N  N48  1  0.22287618  0.53739935  0.38331492  1
  N  N49  1  0.11214945  0.42535089  0.13467124  1
  N  N50  1  0.88934779  0.53854133  0.88289506  1
  N  N51  1  0.77770986  0.42759397  0.63325788  1
  N  N52  1  0.55546678  0.53871545  0.38345204  1
  N  N53  1  0.44437702  0.42762530  0.13280397  1
  N  N54  1  0.22176056  0.53854155  0.88289517  1
  N  N55  1  0.11108630  0.42747745  0.63059442  1
  N  N56  1  0.88937409  0.53739921  0.38331490  1
  N  N57  1  0.77764738  0.42762517  0.13280404  1
  N  N58  1  0.55546707  0.53871537  0.88281047  1
  N  N59  1  0.44434586  0.42759413  0.63325785  1
  N  N60  1  0.22287626  0.87262234  0.38331491  1
  N  N61  1  0.11118513  0.76085630  0.13332034  1
  N  N62  1  0.88880083  0.87204846  0.88300128  1
  N  N63  1  0.77766394  0.76091144  0.63293396  1
  N  N64  1  0.55415104  0.87262210  0.38331489  1
  N  N65  1  0.44437704  0.76089531  0.13280403  1
  N  N66  1  0.22176060  0.87259574  0.88289523  1
  N  N67  1  0.11107466  0.76091155  0.63293400  1
  N  N68  1  0.88880084  0.87204845  0.38321953  1
  N  N69  1  0.77760848  0.76085623  0.13332023  1
  N  N70  1  0.55529321  0.87259570  0.88289506  1
  N  N71  1  0.44434589  0.76095774  0.63325786  1
