# generated using pymatgen
data_Al11BN12
_symmetry_space_group_name_H-M   'P 1'
_cell_length_a   9.26167685
_cell_length_b   9.26738179
_cell_length_c   10.07389154
_cell_angle_alpha   89.85577463
_cell_angle_beta   89.59319471
_cell_angle_gamma   60.04688164
_symmetry_Int_Tables_number   1
_chemical_formula_structural   Al11BN12
_chemical_formula_sum   'Al33 B3 N36'
_cell_volume   749.14916633
_cell_formula_units_Z   3
loop_
 _symmetry_equiv_pos_site_id
 _symmetry_equiv_pos_as_xyz
  1  'x, y, z'
loop_
 _atom_site_type_symbol
 _atom_site_label
 _atom_site_symmetry_multiplicity
 _atom_site_fract_x
 _atom_site_fract_y
 _atom_site_fract_z
 _atom_site_occupancy
  Al  Al0  1  0.09164560  0.10642547  0.39813859  1
  Al  Al1  1  0.22110354  0.19636979  0.13664713  1
  Al  Al2  1  0.77909651  0.09171837  0.81749441  1
  Al  Al3  1  0.45624963  0.08518024  0.31932586  1
  Al  Al4  1  0.55650062  0.19837611  0.07405042  1
  Al  Al5  1  0.10932164  0.09970752  0.88895750  1
  Al  Al6  1  0.21886693  0.20198915  0.64071313  1
  Al  Al7  1  0.88943207  0.19748288  0.14559850  1
  Al  Al8  1  0.45464825  0.08847859  0.82911010  1
  Al  Al9  1  0.56876060  0.20390821  0.56508052  1
  Al  Al10  1  0.10718083  0.43490819  0.32060962  1
  Al  Al11  1  0.22219846  0.53862797  0.07002181  1
  Al  Al12  1  0.77788267  0.43185515  0.81650112  1
  Al  Al13  1  0.89038043  0.53621813  0.57040452  1
  Al  Al14  1  0.44870177  0.42476161  0.31966653  1
  Al  Al15  1  0.55808017  0.54043623  0.06988478  1
  Al  Al16  1  0.10878007  0.43528436  0.82222911  1
  Al  Al17  1  0.22351382  0.53848665  0.56928000  1
  Al  Al18  1  0.77148368  0.43041179  0.32508186  1
  Al  Al19  1  0.88182198  0.54160915  0.06976894  1
  Al  Al20  1  0.44720694  0.42582492  0.82006344  1
  Al  Al21  1  0.56045793  0.53467421  0.57090805  1
  Al  Al22  1  0.10676379  0.76979903  0.32088272  1
  Al  Al23  1  0.22922573  0.86555627  0.06962015  1
  Al  Al24  1  0.77664706  0.76386899  0.82604006  1
  Al  Al25  1  0.88779617  0.88334437  0.56592310  1
  Al  Al26  1  0.44297250  0.76701980  0.31817848  1
  Al  Al27  1  0.11112358  0.76224227  0.81984309  1
  Al  Al28  1  0.22320144  0.86988427  0.57650154  1
  Al  Al29  1  0.77104087  0.76880416  0.31589181  1
  Al  Al30  1  0.88219158  0.87268929  0.07428817  1
  Al  Al31  1  0.44826972  0.76145080  0.82661722  1
  Al  Al32  1  0.55889049  0.87189481  0.57159516  1
  B  B33  1  0.89555593  0.20270901  0.65286185  1
  B  B34  1  0.77383910  0.09143395  0.31421691  1
  B  B35  1  0.55582560  0.87158227  0.06938907  1
  N  N36  1  0.21916828  0.20168556  0.33402624  1
  N  N37  1  0.10227428  0.09873087  0.07765012  1
  N  N38  1  0.90005603  0.20152038  0.81680927  1
  N  N39  1  0.79004507  0.10542272  0.62917519  1
  N  N40  1  0.57926381  0.19287645  0.37206423  1
  N  N41  1  0.45868334  0.06530743  0.12377324  1
  N  N42  1  0.22397407  0.20378029  0.83568236  1
  N  N43  1  0.08262449  0.11131766  0.59013234  1
  N  N44  1  0.87497849  0.19259004  0.33471338  1
  N  N45  1  0.76955897  0.08590764  0.14894922  1
  N  N46  1  0.56110088  0.20468422  0.88542066  1
  N  N47  1  0.45647646  0.09137504  0.63249891  1
  N  N48  1  0.22192546  0.54107441  0.38025694  1
  N  N49  1  0.10578364  0.43366639  0.12856923  1
  N  N50  1  0.88780213  0.54018305  0.88137359  1
  N  N51  1  0.78782120  0.41021706  0.62581508  1
  N  N52  1  0.55050424  0.54394805  0.38155793  1
  N  N53  1  0.44460757  0.42652300  0.13059727  1
  N  N54  1  0.22424059  0.53973650  0.88118064  1
  N  N55  1  0.10912650  0.43371833  0.63017975  1
  N  N56  1  0.88533528  0.54338444  0.38053057  1
  N  N57  1  0.77529846  0.42947843  0.13232389  1
  N  N58  1  0.55875359  0.53651807  0.88097760  1
  N  N59  1  0.44642240  0.42564478  0.62946011  1
  N  N60  1  0.22347126  0.87194725  0.38428256  1
  N  N61  1  0.11000165  0.76185290  0.13203791  1
  N  N62  1  0.88939281  0.87438740  0.88499321  1
  N  N63  1  0.77996410  0.76347006  0.63372121  1
  N  N64  1  0.55569481  0.87081280  0.38548081  1
  N  N65  1  0.45565312  0.77279741  0.12515982  1
  N  N66  1  0.22672066  0.86559946  0.87940695  1
  N  N67  1  0.10918508  0.76162471  0.63042201  1
  N  N68  1  0.87402663  0.89708644  0.37226150  1
  N  N69  1  0.75190517  0.77126352  0.12416120  1
  N  N70  1  0.55738486  0.87076352  0.90338836  1
  N  N71  1  0.44840165  0.76098576  0.63630824  1
