# generated using pymatgen
data_Al11BN12
_symmetry_space_group_name_H-M   'P 1'
_cell_length_a   9.29956369
_cell_length_b   9.28511185
_cell_length_c   10.03108376
_cell_angle_alpha   89.80564298
_cell_angle_beta   89.67623089
_cell_angle_gamma   60.07015673
_symmetry_Int_Tables_number   1
_chemical_formula_structural   Al11BN12
_chemical_formula_sum   'Al33 B3 N36'
_cell_volume   750.63318698
_cell_formula_units_Z   3
loop_
 _symmetry_equiv_pos_site_id
 _symmetry_equiv_pos_as_xyz
  1  'x, y, z'
loop_
 _atom_site_type_symbol
 _atom_site_label
 _atom_site_symmetry_multiplicity
 _atom_site_fract_x
 _atom_site_fract_y
 _atom_site_fract_z
 _atom_site_occupancy
  Al  Al0  1  0.09790714  0.10051657  0.39416536  1
  Al  Al1  1  0.21968018  0.19873045  0.13527002  1
  Al  Al2  1  0.77908642  0.09473333  0.81396051  1
  Al  Al3  1  0.45851550  0.08352509  0.31655741  1
  Al  Al4  1  0.55717967  0.19855077  0.07321518  1
  Al  Al5  1  0.10674879  0.10029609  0.88575159  1
  Al  Al6  1  0.21713619  0.20443148  0.63971362  1
  Al  Al7  1  0.88623631  0.20437651  0.14451656  1
  Al  Al8  1  0.45506652  0.08912841  0.82770190  1
  Al  Al9  1  0.56808285  0.20345742  0.56414754  1
  Al  Al10  1  0.11037890  0.42912466  0.34373803  1
  Al  Al11  1  0.22290411  0.53983195  0.07190391  1
  Al  Al12  1  0.77989253  0.42224215  0.88002487  1
  Al  Al13  1  0.88957765  0.53951064  0.57714734  1
  Al  Al14  1  0.45128104  0.42400946  0.31915756  1
  Al  Al15  1  0.55021652  0.54441938  0.06902810  1
  Al  Al16  1  0.11161855  0.43077798  0.84411191  1
  Al  Al17  1  0.22438365  0.53982776  0.56919902  1
  Al  Al18  1  0.78061890  0.41035202  0.39223092  1
  Al  Al19  1  0.88269031  0.54497279  0.07158699  1
  Al  Al20  1  0.44554968  0.42654549  0.81870872  1
  Al  Al21  1  0.55405828  0.53852839  0.57707370  1
  Al  Al22  1  0.10762894  0.76873880  0.31924367  1
  Al  Al23  1  0.22785089  0.86806030  0.06883504  1
  Al  Al24  1  0.77562846  0.76690140  0.82399509  1
  Al  Al25  1  0.88761778  0.88433154  0.56382827  1
  Al  Al26  1  0.44669963  0.76335182  0.31771689  1
  Al  Al27  1  0.10995120  0.76316795  0.81891138  1
  Al  Al28  1  0.22211972  0.87111602  0.57586014  1
  Al  Al29  1  0.77165907  0.76599776  0.31514319  1
  Al  Al30  1  0.88213319  0.87437623  0.07330028  1
  Al  Al31  1  0.44623673  0.76442877  0.82496672  1
  Al  Al32  1  0.55765074  0.87381201  0.57007687  1
  B  B33  1  0.89196698  0.20970565  0.64661837  1
  B  B34  1  0.77464405  0.08881728  0.31089891  1
  B  B35  1  0.55517730  0.87298342  0.06729321  1
  N  N36  1  0.22202678  0.19900383  0.33187865  1
  N  N37  1  0.10110924  0.09967406  0.07678633  1
  N  N38  1  0.89638922  0.21079052  0.80919720  1
  N  N39  1  0.78950739  0.10565221  0.62607810  1
  N  N40  1  0.58079302  0.19163399  0.37039230  1
  N  N41  1  0.45838586  0.06589258  0.12144310  1
  N  N42  1  0.22421843  0.20265893  0.83433703  1
  N  N43  1  0.08408479  0.11030308  0.58747687  1
  N  N44  1  0.87836938  0.19125430  0.33155434  1
  N  N45  1  0.77001031  0.08690979  0.14827901  1
  N  N46  1  0.56174205  0.20554981  0.88383824  1
  N  N47  1  0.45524348  0.09228114  0.63155492  1
  N  N48  1  0.22517986  0.54139264  0.37835110  1
  N  N49  1  0.10807568  0.43028301  0.11544699  1
  N  N50  1  0.88735982  0.54611181  0.87643967  1
  N  N51  1  0.79139254  0.39917755  0.58979371  1
  N  N52  1  0.55108060  0.54265997  0.38198883  1
  N  N53  1  0.44486040  0.42624701  0.13044811  1
  N  N54  1  0.22521722  0.54171830  0.88079246  1
  N  N55  1  0.11224302  0.42977718  0.61382249  1
  N  N56  1  0.88395876  0.54330229  0.37917559  1
  N  N57  1  0.77913098  0.41743038  0.07807633  1
  N  N58  1  0.54935017  0.54237153  0.87615578  1
  N  N59  1  0.44542728  0.42471646  0.62911207  1
  N  N60  1  0.22631172  0.86867978  0.38212161  1
  N  N61  1  0.10972818  0.76301534  0.13028503  1
  N  N62  1  0.88845001  0.87786503  0.88329640  1
  N  N63  1  0.77814553  0.76684160  0.63218632  1
  N  N64  1  0.55658432  0.87019685  0.38375427  1
  N  N65  1  0.45541938  0.77315167  0.12413723  1
  N  N66  1  0.22464641  0.86797979  0.87715045  1
  N  N67  1  0.10854646  0.76235035  0.62890838  1
  N  N68  1  0.87508230  0.89572970  0.36982648  1
  N  N69  1  0.75122070  0.77236023  0.12326301  1
  N  N70  1  0.55701294  0.87173425  0.90190158  1
  N  N71  1  0.44657554  0.76415141  0.63494365  1
