# generated using pymatgen
data_Al11BN12
_symmetry_space_group_name_H-M   'P 1'
_cell_length_a   9.30487716
_cell_length_b   9.28549460
_cell_length_c   10.04029544
_cell_angle_alpha   89.79971922
_cell_angle_beta   89.66577949
_cell_angle_gamma   60.04501502
_symmetry_Int_Tables_number   1
_chemical_formula_structural   Al11BN12
_chemical_formula_sum   'Al33 B3 N36'
_cell_volume   751.59198584
_cell_formula_units_Z   3
loop_
 _symmetry_equiv_pos_site_id
 _symmetry_equiv_pos_as_xyz
  1  'x, y, z'
loop_
 _atom_site_type_symbol
 _atom_site_label
 _atom_site_symmetry_multiplicity
 _atom_site_fract_x
 _atom_site_fract_y
 _atom_site_fract_z
 _atom_site_occupancy
  Al  Al0  1  0.09773863  0.10054079  0.39383872  1
  Al  Al1  1  0.21861329  0.20038005  0.13627268  1
  Al  Al2  1  0.77897582  0.09468729  0.81387624  1
  Al  Al3  1  0.45839450  0.08374050  0.31605531  1
  Al  Al4  1  0.55721913  0.19836453  0.07308910  1
  Al  Al5  1  0.10671932  0.10023822  0.88529044  1
  Al  Al6  1  0.21582044  0.20683326  0.64071077  1
  Al  Al7  1  0.88639872  0.20419796  0.14445716  1
  Al  Al8  1  0.45484810  0.08936952  0.82713931  1
  Al  Al9  1  0.56810799  0.20328679  0.56403246  1
  Al  Al10  1  0.11321208  0.42427394  0.37592641  1
  Al  Al11  1  0.22463406  0.54119515  0.07255192  1
  Al  Al12  1  0.77967433  0.42233250  0.87940344  1
  Al  Al13  1  0.88730955  0.54033407  0.57864335  1
  Al  Al14  1  0.45128110  0.42415184  0.31893137  1
  Al  Al15  1  0.55021492  0.54443462  0.06873080  1
  Al  Al16  1  0.11402490  0.42573340  0.87733944  1
  Al  Al17  1  0.22604771  0.54118890  0.56944796  1
  Al  Al18  1  0.78044603  0.41071997  0.39166017  1
  Al  Al19  1  0.88000821  0.54612247  0.07236078  1
  Al  Al20  1  0.44546853  0.42665711  0.81848160  1
  Al  Al21  1  0.55411302  0.53853215  0.57680857  1
  Al  Al22  1  0.10766004  0.76859601  0.31904961  1
  Al  Al23  1  0.22785978  0.86840423  0.06863949  1
  Al  Al24  1  0.77577520  0.76681795  0.82373017  1
  Al  Al25  1  0.88756421  0.88448954  0.56351139  1
  Al  Al26  1  0.44673444  0.76333477  0.31771614  1
  Al  Al27  1  0.10992317  0.76293173  0.81872297  1
  Al  Al28  1  0.22207358  0.87151328  0.57579338  1
  Al  Al29  1  0.77180115  0.76575828  0.31498156  1
  Al  Al30  1  0.88204723  0.87455317  0.07306763  1
  Al  Al31  1  0.44626412  0.76437559  0.82489828  1
  Al  Al32  1  0.55732525  0.87416719  0.56988736  1
  B  B33  1  0.89209235  0.20953469  0.64656884  1
  B  B34  1  0.77468028  0.08875990  0.31087527  1
  B  B35  1  0.55471455  0.87351859  0.06712319  1
  N  N36  1  0.22070649  0.20090739  0.32954573  1
  N  N37  1  0.10127255  0.09990686  0.07650026  1
  N  N38  1  0.89629747  0.21054934  0.80907820  1
  N  N39  1  0.78946513  0.10564393  0.62604819  1
  N  N40  1  0.58062309  0.19169464  0.37035835  1
  N  N41  1  0.45809922  0.06604673  0.12135026  1
  N  N42  1  0.22289842  0.20447413  0.83197516  1
  N  N43  1  0.08417274  0.11047553  0.58740454  1
  N  N44  1  0.87822649  0.19121640  0.33140945  1
  N  N45  1  0.76998542  0.08694110  0.14824949  1
  N  N46  1  0.56152019  0.20556509  0.88379845  1
  N  N47  1  0.45497581  0.09251141  0.63156387  1
  N  N48  1  0.22623430  0.54248019  0.37669289  1
  N  N49  1  0.11074127  0.42589583  0.09144973  1
  N  N50  1  0.88607945  0.54626562  0.87369825  1
  N  N51  1  0.79124060  0.39913021  0.58977525  1
  N  N52  1  0.55101490  0.54266173  0.38206623  1
  N  N53  1  0.44549813  0.42600030  0.13048507  1
  N  N54  1  0.22622738  0.54265651  0.87942319  1
  N  N55  1  0.11465923  0.42504124  0.58868140  1
  N  N56  1  0.88240248  0.54368927  0.37666524  1
  N  N57  1  0.77892798  0.41726698  0.07790273  1
  N  N58  1  0.54934424  0.54232135  0.87614144  1
  N  N59  1  0.44587695  0.42452761  0.62917054  1
  N  N60  1  0.22626336  0.86891783  0.38206592  1
  N  N61  1  0.10945494  0.76344863  0.13026414  1
  N  N62  1  0.88843889  0.87780419  0.88324687  1
  N  N63  1  0.77812480  0.76718853  0.63200598  1
  N  N64  1  0.55630277  0.87056560  0.38364275  1
  N  N65  1  0.45540835  0.77313263  0.12410009  1
  N  N66  1  0.22461652  0.86811777  0.87700211  1
  N  N67  1  0.10834100  0.76259321  0.62889044  1
  N  N68  1  0.87508056  0.89572303  0.36972599  1
  N  N69  1  0.75105205  0.77286523  0.12311340  1
  N  N70  1  0.55667697  0.87210704  0.90179217  1
  N  N71  1  0.44661830  0.76412310  0.63489533  1
