# generated using pymatgen
data_Al11BN12
_symmetry_space_group_name_H-M   'P 1'
_cell_length_a   9.27899460
_cell_length_b   9.28386901
_cell_length_c   10.02248261
_cell_angle_alpha   89.53139276
_cell_angle_beta   89.46330812
_cell_angle_gamma   59.97872463
_symmetry_Int_Tables_number   1
_chemical_formula_structural   Al11BN12
_chemical_formula_sum   'Al33 B3 N36'
_cell_volume   747.51538793
_cell_formula_units_Z   3
loop_
 _symmetry_equiv_pos_site_id
 _symmetry_equiv_pos_as_xyz
  1  'x, y, z'
loop_
 _atom_site_type_symbol
 _atom_site_label
 _atom_site_symmetry_multiplicity
 _atom_site_fract_x
 _atom_site_fract_y
 _atom_site_fract_z
 _atom_site_occupancy
  Al  Al0  1  0.09786704  0.09643560  0.39424027  1
  Al  Al1  1  0.22226919  0.19979029  0.13849403  1
  Al  Al2  1  0.77737734  0.09414201  0.81414694  1
  Al  Al3  1  0.44741845  0.08903263  0.37349417  1
  Al  Al4  1  0.55974254  0.19800547  0.08140393  1
  Al  Al5  1  0.11000125  0.09653564  0.88308874  1
  Al  Al6  1  0.22134507  0.20549390  0.63641533  1
  Al  Al7  1  0.88885658  0.20639789  0.14220016  1
  Al  Al8  1  0.44572857  0.08631495  0.89105712  1
  Al  Al9  1  0.57310834  0.19971532  0.56123165  1
  Al  Al10  1  0.10946304  0.42616438  0.38889489  1
  Al  Al11  1  0.22176812  0.53641202  0.13868494  1
  Al  Al12  1  0.77992589  0.42662599  0.88304427  1
  Al  Al13  1  0.88972313  0.53761397  0.63637542  1
  Al  Al14  1  0.44686710  0.43032275  0.38056016  1
  Al  Al15  1  0.55854442  0.54318397  0.13853013  1
  Al  Al16  1  0.11213625  0.42748354  0.88654372  1
  Al  Al17  1  0.22344824  0.53870829  0.63483152  1
  Al  Al18  1  0.77900605  0.41549787  0.39401551  1
  Al  Al19  1  0.88285358  0.53955204  0.13819242  1
  Al  Al20  1  0.44411964  0.43253109  0.89006367  1
  Al  Al21  1  0.55902969  0.53425912  0.63742987  1
  Al  Al22  1  0.10960969  0.76566264  0.36644127  1
  Al  Al23  1  0.22709400  0.87646161  0.13726494  1
  Al  Al24  1  0.77020462  0.76187220  0.89139151  1
  Al  Al25  1  0.88713173  0.88760643  0.56023804  1
  Al  Al26  1  0.44588198  0.76307907  0.38346205  1
  Al  Al27  1  0.11524820  0.76006120  0.88286129  1
  Al  Al28  1  0.21874335  0.87516440  0.63649980  1
  Al  Al29  1  0.77141560  0.76446804  0.37409996  1
  Al  Al30  1  0.88124728  0.87733717  0.08106067  1
  Al  Al31  1  0.44807892  0.76351425  0.89030442  1
  Al  Al32  1  0.55741921  0.87263187  0.63374948  1
  B  B33  1  0.89375385  0.20974278  0.64659846  1
  B  B34  1  0.77341959  0.09309761  0.30764250  1
  B  B35  1  0.55393896  0.87016706  0.14060427  1
  N  N36  1  0.21731144  0.20420971  0.32853022  1
  N  N37  1  0.10587580  0.09640141  0.07299171  1
  N  N38  1  0.89561851  0.21207903  0.80964424  1
  N  N39  1  0.78980317  0.10494293  0.62653512  1
  N  N40  1  0.58403142  0.19220999  0.36383422  1
  N  N41  1  0.45208907  0.06608247  0.08711186  1
  N  N42  1  0.22693317  0.20473651  0.82718765  1
  N  N43  1  0.08615771  0.10793658  0.58673148  1
  N  N44  1  0.87798525  0.19564878  0.33024075  1
  N  N45  1  0.77228982  0.09037791  0.14742030  1
  N  N46  1  0.56326666  0.20122353  0.88391308  1
  N  N47  1  0.44393458  0.09155395  0.56877712  1
  N  N48  1  0.22156274  0.53604473  0.32710065  1
  N  N49  1  0.11031080  0.42653462  0.07710673  1
  N  N50  1  0.88908517  0.54307236  0.82735916  1
  N  N51  1  0.79160965  0.40246055  0.58675976  1
  N  N52  1  0.55925603  0.54007804  0.32774729  1
  N  N53  1  0.44296614  0.43428406  0.08324060  1
  N  N54  1  0.22453607  0.53796361  0.82668516  1
  N  N55  1  0.11205714  0.42745053  0.57783802  1
  N  N56  1  0.88727594  0.53464372  0.32835501  1
  N  N57  1  0.77883840  0.42329455  0.07326468  1
  N  N58  1  0.55563292  0.54148430  0.82800746  1
  N  N59  1  0.44474749  0.43013260  0.57395654  1
  N  N60  1  0.22334599  0.87771322  0.32710022  1
  N  N61  1  0.11558170  0.76035781  0.08996043  1
  N  N62  1  0.88501162  0.87994109  0.88434320  1
  N  N63  1  0.77644131  0.76000940  0.56865643  1
  N  N64  1  0.55415476  0.87113973  0.30331501  1
  N  N65  1  0.45699404  0.77284843  0.08334129  1
  N  N66  1  0.22598902  0.87223412  0.82827364  1
  N  N67  1  0.11453936  0.76013776  0.57739991  1
  N  N68  1  0.87324358  0.90245241  0.36330371  1
  N  N69  1  0.74941211  0.76931120  0.08696789  1
  N  N70  1  0.55683940  0.87251430  0.82154559  1
  N  N71  1  0.44636003  0.76145655  0.57431803  1
