# generated using pymatgen
data_Al11BN12
_symmetry_space_group_name_H-M   'P 1'
_cell_length_a   9.27384050
_cell_length_b   9.27383957
_cell_length_c   10.13370159
_cell_angle_alpha   89.82500207
_cell_angle_beta   89.82451831
_cell_angle_gamma   60.15573140
_symmetry_Int_Tables_number   1
_chemical_formula_structural   Al11BN12
_chemical_formula_sum   'Al33 B3 N36'
_cell_volume   755.95268267
_cell_formula_units_Z   3
loop_
 _symmetry_equiv_pos_site_id
 _symmetry_equiv_pos_as_xyz
  1  'x, y, z'
loop_
 _atom_site_type_symbol
 _atom_site_label
 _atom_site_symmetry_multiplicity
 _atom_site_fract_x
 _atom_site_fract_y
 _atom_site_fract_z
 _atom_site_occupancy
  Al  Al0  1  0.09928683  0.09561617  0.39549241  1
  Al  Al1  1  0.21828535  0.20007702  0.13637907  1
  Al  Al2  1  0.78001756  0.09656055  0.81362634  1
  Al  Al3  1  0.45550757  0.08308808  0.31437928  1
  Al  Al4  1  0.55759074  0.19733959  0.07160303  1
  Al  Al5  1  0.11017556  0.09649536  0.88687937  1
  Al  Al6  1  0.21505914  0.20986481  0.64227317  1
  Al  Al7  1  0.88640143  0.20294506  0.14480790  1
  Al  Al8  1  0.45333333  0.09223114  0.82512544  1
  Al  Al9  1  0.56924182  0.20358332  0.56278326  1
  Al  Al10  1  0.10796844  0.42451282  0.38790730  1
  Al  Al11  1  0.22150941  0.53805292  0.10625485  1
  Al  Al12  1  0.77995276  0.42671918  0.88687934  1
  Al  Al13  1  0.89332246  0.53160134  0.64227365  1
  Al  Al14  1  0.45071184  0.41669244  0.32116509  1
  Al  Al15  1  0.56097714  0.54489880  0.14046748  1
  Al  Al16  1  0.11112621  0.42766942  0.89164678  1
  Al  Al17  1  0.22423564  0.54077930  0.59209492  1
  Al  Al18  1  0.77907298  0.41583083  0.39549227  1
  Al  Al19  1  0.88353396  0.53482846  0.13637901  1
  Al  Al20  1  0.44545016  0.42392773  0.82116825  1
  Al  Al21  1  0.56505008  0.53826963  0.64075628  1
  Al  Al22  1  0.10014853  0.76725546  0.32116485  1
  Al  Al23  1  0.22835423  0.87752094  0.14046740  1
  Al  Al24  1  0.77568624  0.76987839  0.82512509  1
  Al  Al25  1  0.88703942  0.88578522  0.56278329  1
  Al  Al26  1  0.44015801  0.75670136  0.39202054  1
  Al  Al27  1  0.10738395  0.76199276  0.82116857  1
  Al  Al28  1  0.22172560  0.88159305  0.64075634  1
  Al  Al29  1  0.76654349  0.77205229  0.31437914  1
  Al  Al30  1  0.88079505  0.87413451  0.07160314  1
  Al  Al31  1  0.44434890  0.76089304  0.89541435  1
  Al  Al32  1  0.56038868  0.87693242  0.56944615  1
  B  B33  1  0.89270349  0.20924645  0.64666488  1
  B  B34  1  0.77378208  0.09032653  0.31144062  1
  B  B35  1  0.55863217  0.87517632  0.06281674  1
  N  N36  1  0.21765337  0.20352712  0.32806473  1
  N  N37  1  0.10338358  0.09464784  0.07465732  1
  N  N38  1  0.89679457  0.21333745  0.80981736  1
  N  N39  1  0.79057897  0.10712304  0.62672602  1
  N  N40  1  0.58110996  0.18888657  0.37149881  1
  N  N41  1  0.45707836  0.06559482  0.12145215  1
  N  N42  1  0.22080154  0.20864906  0.83190357  1
  N  N43  1  0.08665871  0.10892638  0.58615145  1
  N  N44  1  0.87689581  0.19343908  0.33166812  1
  N  N45  1  0.76971148  0.08625594  0.14916297  1
  N  N46  1  0.56348644  0.20513343  0.88443167  1
  N  N47  1  0.45355401  0.09412174  0.63236000  1
  N  N48  1  0.22275221  0.53929656  0.36008988  1
  N  N49  1  0.10737426  0.42391670  0.08071533  1
  N  N50  1  0.89210595  0.53734611  0.83190399  1
  N  N51  1  0.79238396  0.40320153  0.58615143  1
  N  N52  1  0.56120587  0.53914889  0.33157438  1
  N  N53  1  0.44768675  0.42010279  0.12954970  1
  N  N54  1  0.22363140  0.54017442  0.85989171  1
  N  N55  1  0.10923184  0.42577386  0.57671522  1
  N  N56  1  0.88698333  0.53419800  0.32806480  1
  N  N57  1  0.77810493  0.41992657  0.07465730  1
  N  N58  1  0.55985449  0.54424636  0.82999043  1
  N  N59  1  0.44942846  0.42122367  0.62562777  1
  N  N60  1  0.22260597  0.87774839  0.33157435  1
  N  N61  1  0.10355817  0.76423057  0.12954941  1
  N  N62  1  0.88858905  0.88003059  0.88443182  1
  N  N63  1  0.77757779  0.77009672  0.63235960  1
  N  N64  1  0.55669877  0.87324400  0.38393815  1
  N  N65  1  0.45342900  0.76997278  0.08414215  1
  N  N66  1  0.22770306  0.87639664  0.82999042  1
  N  N67  1  0.10467891  0.76597230  0.62562811  1
  N  N68  1  0.87234205  0.89765439  0.37149870  1
  N  N69  1  0.74905080  0.77362164  0.12145196  1
  N  N70  1  0.56215856  0.87870367  0.90054139  1
  N  N71  1  0.44250290  0.75904624  0.58149467  1
