# generated using pymatgen
data_Al11BN12
_symmetry_space_group_name_H-M   'P 1'
_cell_length_a   9.28874785
_cell_length_b   9.29334391
_cell_length_c   10.04700491
_cell_angle_alpha   89.43311595
_cell_angle_beta   89.45613407
_cell_angle_gamma   60.00983733
_symmetry_Int_Tables_number   1
_chemical_formula_structural   Al11BN12
_chemical_formula_sum   'Al33 B3 N36'
_cell_volume   751.12502182
_cell_formula_units_Z   3
loop_
 _symmetry_equiv_pos_site_id
 _symmetry_equiv_pos_as_xyz
  1  'x, y, z'
loop_
 _atom_site_type_symbol
 _atom_site_label
 _atom_site_symmetry_multiplicity
 _atom_site_fract_x
 _atom_site_fract_y
 _atom_site_fract_z
 _atom_site_occupancy
  Al  Al0  1  0.09828695  0.09574158  0.39495564  1
  Al  Al1  1  0.22291473  0.19931776  0.13969550  1
  Al  Al2  1  0.77680778  0.09490437  0.81372953  1
  Al  Al3  1  0.44736823  0.08745137  0.37539613  1
  Al  Al4  1  0.56094062  0.19814095  0.08098015  1
  Al  Al5  1  0.11004151  0.09606778  0.88427258  1
  Al  Al6  1  0.22194273  0.20572391  0.63732589  1
  Al  Al7  1  0.88902192  0.20564755  0.14290350  1
  Al  Al8  1  0.44497431  0.08617441  0.89266969  1
  Al  Al9  1  0.57153366  0.20589453  0.55868285  1
  Al  Al10  1  0.10917442  0.42553837  0.39013394  1
  Al  Al11  1  0.21881461  0.53507759  0.13593231  1
  Al  Al12  1  0.78077171  0.42648035  0.88421369  1
  Al  Al13  1  0.88938425  0.53805226  0.63719429  1
  Al  Al14  1  0.45145554  0.42087406  0.33435863  1
  Al  Al15  1  0.56156115  0.54478168  0.13765808  1
  Al  Al16  1  0.11059708  0.42695099  0.88856172  1
  Al  Al17  1  0.22392413  0.53398937  0.63273200  1
  Al  Al18  1  0.77939650  0.41489212  0.39526003  1
  Al  Al19  1  0.88252905  0.54008313  0.13958727  1
  Al  Al20  1  0.44658502  0.42638625  0.85415457  1
  Al  Al21  1  0.56109101  0.53629098  0.63717351  1
  Al  Al22  1  0.10079198  0.77004540  0.32035990  1
  Al  Al23  1  0.22877977  0.87826235  0.13723757  1
  Al  Al24  1  0.76968933  0.76176234  0.89221320  1
  Al  Al25  1  0.89036590  0.88767497  0.55964438  1
  Al  Al26  1  0.44574204  0.76186910  0.38443035  1
  Al  Al27  1  0.10266151  0.76629902  0.82216017  1
  Al  Al28  1  0.22272885  0.87933296  0.63651363  1
  Al  Al29  1  0.77169128  0.76375645  0.37620847  1
  Al  Al30  1  0.88457185  0.87671202  0.07663947  1
  Al  Al31  1  0.44662180  0.76463490  0.89163824  1
  Al  Al32  1  0.55846113  0.87431077  0.63438915  1
  B  B33  1  0.89295616  0.21010736  0.64697028  1
  B  B34  1  0.77546154  0.09119086  0.30842972  1
  B  B35  1  0.55501652  0.87091905  0.14134986  1
  N  N36  1  0.21782166  0.20378382  0.32901446  1
  N  N37  1  0.10592823  0.09683926  0.07378476  1
  N  N38  1  0.89545046  0.21221880  0.81021388  1
  N  N39  1  0.78912044  0.10600836  0.62651986  1
  N  N40  1  0.58582537  0.18981153  0.36470777  1
  N  N41  1  0.45267607  0.06585174  0.08753380  1
  N  N42  1  0.22677281  0.20495331  0.82804288  1
  N  N43  1  0.08606863  0.10903402  0.58664363  1
  N  N44  1  0.87821904  0.19508273  0.33061024  1
  N  N45  1  0.77372148  0.08784500  0.14817117  1
  N  N46  1  0.56385494  0.20182751  0.88755715  1
  N  N47  1  0.44414271  0.09278261  0.56892275  1
  N  N48  1  0.21876495  0.53595266  0.33230845  1
  N  N49  1  0.10879261  0.42541298  0.07787811  1
  N  N50  1  0.88866856  0.54360376  0.82777792  1
  N  N51  1  0.79242632  0.40263850  0.58721211  1
  N  N52  1  0.56196373  0.54053903  0.32906743  1
  N  N53  1  0.44699934  0.42662308  0.11396693  1
  N  N54  1  0.22116828  0.53606329  0.83186777  1
  N  N55  1  0.11055402  0.42681191  0.57816337  1
  N  N56  1  0.88729008  0.53454551  0.32910357  1
  N  N57  1  0.78039053  0.42252861  0.07361772  1
  N  N58  1  0.55755482  0.54386714  0.83042857  1
  N  N59  1  0.44811054  0.42549201  0.60206739  1
  N  N60  1  0.22386924  0.87786308  0.33095854  1
  N  N61  1  0.10740543  0.76496281  0.12448992  1
  N  N62  1  0.88656923  0.87988281  0.88558005  1
  N  N63  1  0.77712497  0.76026664  0.56944674  1
  N  N64  1  0.55501627  0.87058008  0.30383744  1
  N  N65  1  0.45707102  0.77323379  0.08383524  1
  N  N66  1  0.22739297  0.87431174  0.83009602  1
  N  N67  1  0.10461458  0.76586949  0.62360552  1
  N  N68  1  0.87486269  0.90202610  0.36781309  1
  N  N69  1  0.74995072  0.76964042  0.08673410  1
  N  N70  1  0.55672735  0.87345781  0.82215724  1
  N  N71  1  0.44732760  0.76249593  0.57448357  1
