# generated using pymatgen
data_Al11BN12
_symmetry_space_group_name_H-M   'P 1'
_cell_length_a   9.25678051
_cell_length_b   9.25677987
_cell_length_c   9.88912841
_cell_angle_alpha   90.07594338
_cell_angle_beta   90.07594637
_cell_angle_gamma   60.02533272
_symmetry_Int_Tables_number   1
_chemical_formula_structural   Al11BN12
_chemical_formula_sum   'Al33 B3 N36'
_cell_volume   734.03851327
_cell_formula_units_Z   3
loop_
 _symmetry_equiv_pos_site_id
 _symmetry_equiv_pos_as_xyz
  1  'x, y, z'
loop_
 _atom_site_type_symbol
 _atom_site_label
 _atom_site_symmetry_multiplicity
 _atom_site_fract_x
 _atom_site_fract_y
 _atom_site_fract_z
 _atom_site_occupancy
  Al  Al0  1  0.10516267  0.09434015  0.30554427  1
  Al  Al1  1  0.22514758  0.19934357  0.04862252  1
  Al  Al2  1  0.78047244  0.09714276  0.79613259  1
  Al  Al3  1  0.45186154  0.08780128  0.29422593  1
  Al  Al4  1  0.56140355  0.19889256  0.05479987  1
  Al  Al5  1  0.10418125  0.09753463  0.79374223  1
  Al  Al6  1  0.21892165  0.20593683  0.54846655  1
  Al  Al7  1  0.88806414  0.20473506  0.05632805  1
  Al  Al8  1  0.44684427  0.09223176  0.80530164  1
  Al  Al9  1  0.56416421  0.20334107  0.54455009  1
  Al  Al10  1  0.11118423  0.42785382  0.29715373  1
  Al  Al11  1  0.22245623  0.53912704  0.04780647  1
  Al  Al12  1  0.78086371  0.42085221  0.79374208  1
  Al  Al13  1  0.88926483  0.53559345  0.54846666  1
  Al  Al14  1  0.44959214  0.42428673  0.29803291  1
  Al  Al15  1  0.55907601  0.54142849  0.04821603  1
  Al  Al16  1  0.11068280  0.42735302  0.79869038  1
  Al  Al17  1  0.22190706  0.53857851  0.54795588  1
  Al  Al18  1  0.77766914  0.42183374  0.30554442  1
  Al  Al19  1  0.88267338  0.54181736  0.04862238  1
  Al  Al20  1  0.44590734  0.42575377  0.79869808  1
  Al  Al21  1  0.55795454  0.53563795  0.54852891  1
  Al  Al22  1  0.10761551  0.76626273  0.29803273  1
  Al  Al23  1  0.22475769  0.87574713  0.04821622  1
  Al  Al24  1  0.77556048  0.76351516  0.80530199  1
  Al  Al25  1  0.88667032  0.88083470  0.54455008  1
  Al  Al26  1  0.44699487  0.76366645  0.29395712  1
  Al  Al27  1  0.10908247  0.76257865  0.79869833  1
  Al  Al28  1  0.21896547  0.87462708  0.54852877  1
  Al  Al29  1  0.77113133  0.76853115  0.29422575  1
  Al  Al30  1  0.88222146  0.87807418  0.05480001  1
  Al  Al31  1  0.44581095  0.76248308  0.80497708  1
  Al  Al32  1  0.55577101  0.87244197  0.54985438  1
  B  B33  1  0.88420565  0.20087709  0.54202530  1
  B  B34  1  0.77703127  0.09370220  0.30062389  1
  B  B35  1  0.55574615  0.87241689  0.04437942  1
  N  N36  1  0.22566669  0.20442971  0.35615341  1
  N  N37  1  0.10988363  0.09511253  0.11359163  1
  N  N38  1  0.88829537  0.20496635  0.86532213  1
  N  N39  1  0.79040209  0.10707280  0.60356496  1
  N  N40  1  0.57963652  0.19184510  0.34993425  1
  N  N41  1  0.45733330  0.06935357  0.10004527  1
  N  N42  1  0.22090826  0.20372893  0.85594900  1
  N  N43  1  0.08467468  0.10681587  0.59737006  1
  N  N44  1  0.87673803  0.19340905  0.37155758  1
  N  N45  1  0.77947197  0.09614267  0.13415605  1
  N  N46  1  0.56015920  0.20355868  0.86136187  1
  N  N47  1  0.44644285  0.09459505  0.61078367  1
  N  N48  1  0.22264231  0.53931301  0.35619391  1
  N  N49  1  0.11065753  0.42732775  0.10544145  1
  N  N50  1  0.88705844  0.53757877  0.85594886  1
  N  N51  1  0.79014380  0.40134649  0.59736990  1
  N  N52  1  0.55346501  0.54208639  0.35713979  1
  N  N53  1  0.44559986  0.42771480  0.10675637  1
  N  N54  1  0.22241962  0.53909074  0.85648086  1
  N  N55  1  0.11095116  0.42762286  0.60750367  1
  N  N56  1  0.88775973  0.54233674  0.35615340  1
  N  N57  1  0.77844140  0.42655445  0.11359166  1
  N  N58  1  0.55850267  0.53690664  0.85591111  1
  N  N59  1  0.44520815  0.42535663  0.60594934  1
  N  N60  1  0.22541483  0.87013617  0.35713974  1
  N  N61  1  0.11104386  0.76227074  0.10675628  1
  N  N62  1  0.88688760  0.87682991  0.86136208  1
  N  N63  1  0.77792372  0.76311416  0.61078397  1
  N  N64  1  0.55532931  0.87199937  0.36137197  1
  N  N65  1  0.45690287  0.77357379  0.09910571  1
  N  N66  1  0.22023504  0.87517401  0.85591146  1
  N  N67  1  0.10868550  0.76187950  0.60594953  1
  N  N68  1  0.87517410  0.89630717  0.34993427  1
  N  N69  1  0.75268312  0.77400337  0.10004512  1
  N  N70  1  0.55570322  0.87237445  0.87875020  1
  N  N71  1  0.44508216  0.76175450  0.61210173  1
