# generated using pymatgen
data_Al11BN12
_symmetry_space_group_name_H-M   'P 1'
_cell_length_a   9.25681287
_cell_length_b   9.25681237
_cell_length_c   9.88994959
_cell_angle_alpha   90.08193825
_cell_angle_beta   90.08193654
_cell_angle_gamma   60.01884294
_symmetry_Int_Tables_number   1
_chemical_formula_structural   Al11BN12
_chemical_formula_sum   'Al33 B3 N36'
_cell_volume   734.05650653
_cell_formula_units_Z   3
loop_
 _symmetry_equiv_pos_site_id
 _symmetry_equiv_pos_as_xyz
  1  'x, y, z'
loop_
 _atom_site_type_symbol
 _atom_site_label
 _atom_site_symmetry_multiplicity
 _atom_site_fract_x
 _atom_site_fract_y
 _atom_site_fract_z
 _atom_site_occupancy
  Al  Al0  1  0.10192352  0.09581411  0.41544204  1
  Al  Al1  1  0.22472605  0.20017293  0.16103302  1
  Al  Al2  1  0.77846075  0.09511478  0.90257446  1
  Al  Al3  1  0.45087656  0.09098148  0.40484475  1
  Al  Al4  1  0.56404999  0.19774193  0.16546408  1
  Al  Al5  1  0.10698810  0.09622872  0.90424252  1
  Al  Al6  1  0.21931983  0.20604899  0.66058004  1
  Al  Al7  1  0.88629764  0.20295099  0.16307367  1
  Al  Al8  1  0.44798495  0.09035080  0.91487370  1
  Al  Al9  1  0.56144382  0.20473448  0.65368347  1
  Al  Al10  1  0.11096084  0.42761346  0.41144335  1
  Al  Al11  1  0.22227071  0.53892489  0.16180166  1
  Al  Al12  1  0.77957455  0.42364253  0.90424240  1
  Al  Al13  1  0.88939352  0.53597508  0.66058008  1
  Al  Al14  1  0.45010017  0.42462309  0.41094005  1
  Al  Al15  1  0.55910103  0.54153030  0.16070744  1
  Al  Al16  1  0.11120121  0.42785467  0.91146199  1
  Al  Al17  1  0.22268990  0.53934460  0.66132267  1
  Al  Al18  1  0.77916065  0.41857679  0.41544223  1
  Al  Al19  1  0.88352013  0.54137838  0.16103295  1
  Al  Al20  1  0.44548101  0.42596742  0.91106335  1
  Al  Al21  1  0.55868446  0.53558839  0.66119593  1
  Al  Al22  1  0.10796868  0.76675371  0.41094004  1
  Al  Al23  1  0.22487639  0.87575505  0.16070746  1
  Al  Al24  1  0.77369650  0.76463892  0.91487386  1
  Al  Al25  1  0.88807964  0.87809818  0.65368324  1
  Al  Al26  1  0.44632159  0.76297640  0.40501345  1
  Al  Al27  1  0.10931261  0.76213584  0.91106332  1
  Al  Al28  1  0.21893221  0.87534058  0.66119583  1
  Al  Al29  1  0.77432805  0.76752909  0.40484445  1
  Al  Al30  1  0.88108740  0.88070373  0.16546413  1
  Al  Al31  1  0.44730304  0.76395795  0.91521944  1
  Al  Al32  1  0.55590888  0.87256358  0.66024691  1
  B  B33  1  0.88929515  0.20595020  0.65829747  1
  B  B34  1  0.78244393  0.09909800  0.41639624  1
  B  B35  1  0.55612418  0.87277775  0.16584353  1
  N  N36  1  0.22077290  0.20382035  0.35329178  1
  N  N37  1  0.10658579  0.09690473  0.09799012  1
  N  N38  1  0.88733534  0.20398979  0.82551907  1
  N  N39  1  0.78993961  0.10659415  0.58842035  1
  N  N40  1  0.58316566  0.19307544  0.36075161  1
  N  N41  1  0.45784082  0.07120116  0.11143289  1
  N  N42  1  0.22451253  0.20444238  0.85325754  1
  N  N43  1  0.08648928  0.10719765  0.60871879  1
  N  N44  1  0.87629552  0.19294902  0.35552710  1
  N  N45  1  0.77871326  0.09536700  0.09303042  1
  N  N46  1  0.55511102  0.20423698  0.84765963  1
  N  N47  1  0.44462087  0.09308901  0.59693496  1
  N  N48  1  0.22271489  0.53936850  0.35288429  1
  N  N49  1  0.11068587  0.42733889  0.10323831  1
  N  N50  1  0.88778849  0.54116662  0.85325769  1
  N  N51  1  0.79054212  0.40314448  0.60871906  1
  N  N52  1  0.55845304  0.53828221  0.35222312  1
  N  N53  1  0.44660839  0.42503597  0.10455847  1
  N  N54  1  0.22247438  0.53912907  0.85319892  1
  N  N55  1  0.11144275  0.42809791  0.60251124  1
  N  N56  1  0.88716756  0.53742546  0.35329173  1
  N  N57  1  0.78025079  0.42323930  0.09799010  1
  N  N58  1  0.55410396  0.54104795  0.85354498  1
  N  N59  1  0.44436865  0.42866760  0.60146229  1
  N  N60  1  0.22162778  0.87510678  0.35222298  1
  N  N61  1  0.10838155  0.76326267  0.10455848  1
  N  N62  1  0.88758233  0.87176528  0.84765945  1
  N  N63  1  0.77643405  0.76127543  0.59693467  1
  N  N64  1  0.55587369  0.87252733  0.33013045  1
  N  N65  1  0.45725733  0.77391139  0.10959229  1
  N  N66  1  0.22439310  0.87075857  0.85354479  1
  N  N67  1  0.11201271  0.76102340  0.60146228  1
  N  N68  1  0.87642112  0.89981930  0.36075161  1
  N  N69  1  0.75454750  0.77449385  0.11143306  1
  N  N70  1  0.55592974  0.87258401  0.84930829  1
  N  N71  1  0.44518120  0.76183706  0.59826062  1
