# generated using pymatgen
data_Al11BN12
_symmetry_space_group_name_H-M   'P 1'
_cell_length_a   9.27768449
_cell_length_b   9.27760559
_cell_length_c   10.16536274
_cell_angle_alpha   89.91470828
_cell_angle_beta   89.93069035
_cell_angle_gamma   60.17977491
_symmetry_Int_Tables_number   1
_chemical_formula_structural   Al11BN12
_chemical_formula_sum   'Al33 B3 N36'
_cell_volume   759.12337287
_cell_formula_units_Z   3
loop_
 _symmetry_equiv_pos_site_id
 _symmetry_equiv_pos_as_xyz
  1  'x, y, z'
loop_
 _atom_site_type_symbol
 _atom_site_label
 _atom_site_symmetry_multiplicity
 _atom_site_fract_x
 _atom_site_fract_y
 _atom_site_fract_z
 _atom_site_occupancy
  Al  Al0  1  0.09916392  0.09493254  0.39575185  1
  Al  Al1  1  0.21795852  0.20028061  0.14017330  1
  Al  Al2  1  0.77890771  0.09542468  0.81364207  1
  Al  Al3  1  0.45401944  0.08524832  0.32693324  1
  Al  Al4  1  0.55766467  0.19456386  0.07169363  1
  Al  Al5  1  0.11085889  0.09770776  0.88636596  1
  Al  Al6  1  0.21297591  0.21114933  0.63798757  1
  Al  Al7  1  0.88676746  0.20322690  0.14378511  1
  Al  Al8  1  0.45205813  0.09395543  0.81312478  1
  Al  Al9  1  0.56885246  0.20744355  0.56110893  1
  Al  Al10  1  0.11018098  0.42713320  0.39009779  1
  Al  Al11  1  0.21865475  0.53510725  0.13504087  1
  Al  Al12  1  0.78116693  0.42723011  0.88638831  1
  Al  Al13  1  0.89451764  0.52965781  0.63841167  1
  Al  Al14  1  0.45381399  0.41660822  0.31906733  1
  Al  Al15  1  0.56218234  0.54406613  0.13738652  1
  Al  Al16  1  0.11105047  0.42730162  0.89098347  1
  Al  Al17  1  0.22061841  0.53718157  0.63531516  1
  Al  Al18  1  0.77841327  0.41595061  0.39563018  1
  Al  Al19  1  0.88398898  0.53423697  0.13961875  1
  Al  Al20  1  0.44946619  0.42116314  0.82599946  1
  Al  Al21  1  0.56396773  0.53835445  0.64400180  1
  Al  Al22  1  0.10006648  0.77028654  0.31911341  1
  Al  Al23  1  0.22756009  0.87868303  0.13746351  1
  Al  Al24  1  0.77731914  0.76864517  0.81359260  1
  Al  Al25  1  0.89076234  0.88519625  0.56099825  1
  Al  Al26  1  0.44043020  0.75693161  0.39540611  1
  Al  Al27  1  0.10454195  0.76604538  0.82585324  1
  Al  Al28  1  0.22180873  0.88049325  0.64394834  1
  Al  Al29  1  0.76845904  0.77079975  0.32567636  1
  Al  Al30  1  0.87817185  0.87435689  0.07162225  1
  Al  Al31  1  0.44941670  0.76604607  0.89057704  1
  Al  Al32  1  0.55941211  0.87561936  0.58238832  1
  B  B33  1  0.89170657  0.20812342  0.64698192  1
  B  B34  1  0.77472583  0.09131918  0.31020842  1
  B  B35  1  0.55498494  0.87178850  0.10432675  1
  N  N36  1  0.21644341  0.20512970  0.33049977  1
  N  N37  1  0.10397246  0.09651783  0.07445074  1
  N  N38  1  0.89600391  0.21248347  0.81030970  1
  N  N39  1  0.79009413  0.10646305  0.62694343  1
  N  N40  1  0.58303150  0.19090133  0.37047217  1
  N  N41  1  0.45882153  0.06048153  0.12930353  1
  N  N42  1  0.21993961  0.20947676  0.82806440  1
  N  N43  1  0.08581149  0.10784894  0.58602407  1
  N  N44  1  0.87734418  0.19399848  0.33030815  1
  N  N45  1  0.76988763  0.08646876  0.14828691  1
  N  N46  1  0.56215727  0.20169821  0.88506498  1
  N  N47  1  0.44789936  0.10343520  0.62043950  1
  N  N48  1  0.22032804  0.53677850  0.33245895  1
  N  N49  1  0.10844846  0.42454862  0.07887920  1
  N  N50  1  0.89294765  0.53644885  0.82852607  1
  N  N51  1  0.79131077  0.40248962  0.58602104  1
  N  N52  1  0.56121320  0.54112491  0.32867858  1
  N  N53  1  0.44899566  0.41977930  0.12425579  1
  N  N54  1  0.22025872  0.53684568  0.83465509  1
  N  N55  1  0.11116508  0.42804051  0.57518066  1
  N  N56  1  0.88847864  0.53318360  0.32992267  1
  N  N57  1  0.77996163  0.42036006  0.07437641  1
  N  N58  1  0.55915705  0.54339507  0.83471769  1
  N  N59  1  0.45073999  0.42147749  0.62711174  1
  N  N60  1  0.22451423  0.87779490  0.32876346  1
  N  N61  1  0.10331164  0.76547172  0.12430957  1
  N  N62  1  0.88523531  0.87874525  0.88512363  1
  N  N63  1  0.78693466  0.76450827  0.62109890  1
  N  N64  1  0.55688028  0.87302022  0.39030614  1
  N  N65  1  0.45874483  0.77535401  0.08515877  1
  N  N66  1  0.22678353  0.87571512  0.83466133  1
  N  N67  1  0.10493475  0.76728303  0.62693237  1
  N  N68  1  0.87423428  0.89947388  0.37027639  1
  N  N69  1  0.74392666  0.77540196  0.12874204  1
  N  N70  1  0.55754140  0.87429412  0.84431471  1
  N  N71  1  0.44080596  0.75734944  0.58261650  1
