# generated using pymatgen
data_Al11BN12
_symmetry_space_group_name_H-M   'P 1'
_cell_length_a   9.28984476
_cell_length_b   9.29117611
_cell_length_c   10.12787757
_cell_angle_alpha   89.81972028
_cell_angle_beta   89.89489375
_cell_angle_gamma   60.13145334
_symmetry_Int_Tables_number   1
_chemical_formula_structural   Al11BN12
_chemical_formula_sum   'Al33 B3 N36'
_cell_volume   758.05340204
_cell_formula_units_Z   3
loop_
 _symmetry_equiv_pos_site_id
 _symmetry_equiv_pos_as_xyz
  1  'x, y, z'
loop_
 _atom_site_type_symbol
 _atom_site_label
 _atom_site_symmetry_multiplicity
 _atom_site_fract_x
 _atom_site_fract_y
 _atom_site_fract_z
 _atom_site_occupancy
  Al  Al0  1  0.09819130  0.09433644  0.39563673  1
  Al  Al1  1  0.22284152  0.19736966  0.14241132  1
  Al  Al2  1  0.77963690  0.09531203  0.81424755  1
  Al  Al3  1  0.45000948  0.08914725  0.35201631  1
  Al  Al4  1  0.55714411  0.19305268  0.07249222  1
  Al  Al5  1  0.11151010  0.09793683  0.88687991  1
  Al  Al6  1  0.21143392  0.21193306  0.63592397  1
  Al  Al7  1  0.88746546  0.20327304  0.14346352  1
  Al  Al8  1  0.45095089  0.09592725  0.81096132  1
  Al  Al9  1  0.57111817  0.20954405  0.56231918  1
  Al  Al10  1  0.10871175  0.42893539  0.38978491  1
  Al  Al11  1  0.21901102  0.53484464  0.13368477  1
  Al  Al12  1  0.78148740  0.42699652  0.88662859  1
  Al  Al13  1  0.89466154  0.52942622  0.63772375  1
  Al  Al14  1  0.45391555  0.41697348  0.31797394  1
  Al  Al15  1  0.56240429  0.54437220  0.13585252  1
  Al  Al16  1  0.11133092  0.42652335  0.89144668  1
  Al  Al17  1  0.22030571  0.53738988  0.63575741  1
  Al  Al18  1  0.77797069  0.41648456  0.39496147  1
  Al  Al19  1  0.88443207  0.53418329  0.13941902  1
  Al  Al20  1  0.44910770  0.42173435  0.82777993  1
  Al  Al21  1  0.56374905  0.53762864  0.64436966  1
  Al  Al22  1  0.10042538  0.77014111  0.31838079  1
  Al  Al23  1  0.22832175  0.87859309  0.13620017  1
  Al  Al24  1  0.77911403  0.76781501  0.81176665  1
  Al  Al25  1  0.89116850  0.88467861  0.56024714  1
  Al  Al26  1  0.44069887  0.75674501  0.39612667  1
  Al  Al27  1  0.10423297  0.76602827  0.82708322  1
  Al  Al28  1  0.22081011  0.88013894  0.64403298  1
  Al  Al29  1  0.76681568  0.77213134  0.32628658  1
  Al  Al30  1  0.87782450  0.87466200  0.07239641  1
  Al  Al31  1  0.44983334  0.76695609  0.88787977  1
  Al  Al32  1  0.55924348  0.87158728  0.59423135  1
  B  B33  1  0.89241784  0.20764919  0.64725977  1
  B  B34  1  0.77494270  0.09153681  0.30979604  1
  B  B35  1  0.55367286  0.87411738  0.10826006  1
  N  N36  1  0.21595847  0.20533119  0.33347674  1
  N  N37  1  0.10508954  0.09720523  0.07539655  1
  N  N38  1  0.89644560  0.21231555  0.81109232  1
  N  N39  1  0.79143133  0.10571060  0.62726674  1
  N  N40  1  0.58411983  0.19243926  0.37177440  1
  N  N41  1  0.45881893  0.05988030  0.12412654  1
  N  N42  1  0.22026407  0.20939431  0.82624403  1
  N  N43  1  0.08522149  0.10765839  0.58620067  1
  N  N44  1  0.87711002  0.19431285  0.33038724  1
  N  N45  1  0.77010879  0.08708527  0.14781913  1
  N  N46  1  0.56220743  0.20066032  0.88385125  1
  N  N47  1  0.44498468  0.10618393  0.61054206  1
  N  N48  1  0.22055339  0.53664755  0.33198531  1
  N  N49  1  0.10975300  0.42274434  0.07987130  1
  N  N50  1  0.89293019  0.53633166  0.82911883  1
  N  N51  1  0.79119894  0.40231301  0.58616398  1
  N  N52  1  0.56076018  0.54151827  0.32779597  1
  N  N53  1  0.44941007  0.41967312  0.12265995  1
  N  N54  1  0.21992565  0.53693305  0.83600203  1
  N  N55  1  0.11075778  0.42890832  0.57522307  1
  N  N56  1  0.88772862  0.53402603  0.32986826  1
  N  N57  1  0.78057433  0.42037180  0.07463336  1
  N  N58  1  0.55938957  0.54310445  0.83569351  1
  N  N59  1  0.45031787  0.42175414  0.62863670  1
  N  N60  1  0.22472543  0.87754870  0.32827561  1
  N  N61  1  0.10389765  0.76535649  0.12297867  1
  N  N62  1  0.88404323  0.87868040  0.88526163  1
  N  N63  1  0.79051834  0.76246078  0.61920618  1
  N  N64  1  0.55777453  0.87042672  0.39360306  1
  N  N65  1  0.46005050  0.77630804  0.08269728  1
  N  N66  1  0.22594427  0.87601663  0.83545647  1
  N  N67  1  0.10466708  0.76716912  0.62732610  1
  N  N68  1  0.87426125  0.89985774  0.36926074  1
  N  N69  1  0.74353476  0.77585141  0.12799012  1
  N  N70  1  0.55459060  0.87231740  0.82131316  1
  N  N71  1  0.43889478  0.75544449  0.58303806  1
