# generated using pymatgen
data_Al11BN12
_symmetry_space_group_name_H-M   'P 1'
_cell_length_a   9.25681072
_cell_length_b   9.25681024
_cell_length_c   9.88995792
_cell_angle_alpha   90.08196692
_cell_angle_beta   90.08196415
_cell_angle_gamma   60.01884447
_symmetry_Int_Tables_number   1
_chemical_formula_structural   Al11BN12
_chemical_formula_sum   'Al33 B3 N36'
_cell_volume   734.05679575
_cell_formula_units_Z   3
loop_
 _symmetry_equiv_pos_site_id
 _symmetry_equiv_pos_as_xyz
  1  'x, y, z'
loop_
 _atom_site_type_symbol
 _atom_site_label
 _atom_site_symmetry_multiplicity
 _atom_site_fract_x
 _atom_site_fract_y
 _atom_site_fract_z
 _atom_site_occupancy
  Al  Al0  1  0.10192653  0.09581145  0.41372812  1
  Al  Al1  1  0.22472836  0.20017022  0.15931577  1
  Al  Al2  1  0.77846361  0.09511132  0.90085844  1
  Al  Al3  1  0.45087925  0.09097823  0.40312704  1
  Al  Al4  1  0.56405364  0.19773961  0.16375099  1
  Al  Al5  1  0.10699195  0.09622538  0.90252341  1
  Al  Al6  1  0.21932427  0.20604615  0.65886358  1
  Al  Al7  1  0.88630123  0.20294829  0.16135557  1
  Al  Al8  1  0.44798870  0.09034853  0.91316069  1
  Al  Al9  1  0.56144699  0.20473114  0.65196466  1
  Al  Al10  1  0.11096407  0.42761040  0.40972492  1
  Al  Al11  1  0.22227415  0.53892204  0.16008227  1
  Al  Al12  1  0.77957748  0.42364011  0.90252328  1
  Al  Al13  1  0.88939698  0.53597323  0.65886363  1
  Al  Al14  1  0.45010280  0.42462089  0.40922354  1
  Al  Al15  1  0.55910502  0.54152629  0.15899148  1
  Al  Al16  1  0.11120461  0.42785183  0.90974364  1
  Al  Al17  1  0.22269314  0.53934155  0.65960452  1
  Al  Al18  1  0.77916429  0.41857347  0.41372831  1
  Al  Al19  1  0.88352369  0.54137440  0.15931574  1
  Al  Al20  1  0.44548489  0.42596400  0.90934481  1
  Al  Al21  1  0.55868697  0.53558659  0.65947871  1
  Al  Al22  1  0.10797280  0.76675004  0.40922355  1
  Al  Al23  1  0.22487870  0.87575273  0.15899151  1
  Al  Al24  1  0.77370049  0.76463641  0.91316088  1
  Al  Al25  1  0.88808258  0.87809508  0.65196441  1
  Al  Al26  1  0.44632502  0.76297351  0.40329609  1
  Al  Al27  1  0.10931547  0.76213342  0.90934477  1
  Al  Al28  1  0.21893673  0.87533679  0.65947859  1
  Al  Al29  1  0.77433112  0.76752547  0.40312677  1
  Al  Al30  1  0.88109141  0.88070105  0.16375108  1
  Al  Al31  1  0.44730620  0.76395485  0.91350619  1
  Al  Al32  1  0.55591238  0.87256080  0.65853388  1
  B  B33  1  0.88929843  0.20594721  0.65658263  1
  B  B34  1  0.78244790  0.09909567  0.41468155  1
  B  B35  1  0.55612754  0.87277480  0.16412922  1
  N  N36  1  0.22077556  0.20381708  0.35157493  1
  N  N37  1  0.10658930  0.09690142  0.09627202  1
  N  N38  1  0.88733833  0.20398650  0.82380291  1
  N  N39  1  0.78994326  0.10659153  0.58670392  1
  N  N40  1  0.58316887  0.19307274  0.35903761  1
  N  N41  1  0.45784416  0.07119890  0.10971963  1
  N  N42  1  0.22451687  0.20443925  0.85154124  1
  N  N43  1  0.08649290  0.10719474  0.60700461  1
  N  N44  1  0.87629917  0.19294634  0.35381083  1
  N  N45  1  0.77871613  0.09536353  0.09131519  1
  N  N46  1  0.55511451  0.20423350  0.84594204  1
  N  N47  1  0.44462443  0.09308515  0.59521787  1
  N  N48  1  0.22271819  0.53936552  0.35116597  1
  N  N49  1  0.11068909  0.42733584  0.10152052  1
  N  N50  1  0.88779162  0.54116470  0.85154139  1
  N  N51  1  0.79054550  0.40314180  0.60700489  1
  N  N52  1  0.55845696  0.53827875  0.35050741  1
  N  N53  1  0.44661232  0.42503247  0.10284106  1
  N  N54  1  0.22247778  0.53912619  0.85148124  1
  N  N55  1  0.11144603  0.42809490  0.60079352  1
  N  N56  1  0.88717057  0.53742182  0.35157489  1
  N  N57  1  0.78025379  0.42323650  0.09627200  1
  N  N58  1  0.55410669  0.54104591  0.85182805  1
  N  N59  1  0.44437192  0.42866495  0.59974543  1
  N  N60  1  0.22163065  0.87510440  0.35050726  1
  N  N61  1  0.10838437  0.76326029  0.10284108  1
  N  N62  1  0.88758513  0.87176246  0.84594185  1
  N  N63  1  0.77643647  0.76127270  0.59521759  1
  N  N64  1  0.55587694  0.87252426  0.32841434  1
  N  N65  1  0.45726043  0.77390817  0.10787859  1
  N  N66  1  0.22439733  0.87075503  0.85182782  1
  N  N67  1  0.11201636  0.76102039  0.59974543  1
  N  N68  1  0.87642475  0.89981620  0.35903764  1
  N  N69  1  0.75455153  0.77449090  0.10971979  1
  N  N70  1  0.55593320  0.87258120  0.84759589  1
  N  N71  1  0.44518510  0.76183463  0.59654393  1
