# generated using pymatgen
data_Al11BN12
_symmetry_space_group_name_H-M   'P 1'
_cell_length_a   9.27068327
_cell_length_b   9.27068402
_cell_length_c   10.04648607
_cell_angle_alpha   89.52612571
_cell_angle_beta   89.52611880
_cell_angle_gamma   59.99389146
_symmetry_Int_Tables_number   1
_chemical_formula_structural   Al11BN12
_chemical_formula_sum   'Al33 B3 N36'
_cell_volume   747.69039287
_cell_formula_units_Z   3
loop_
 _symmetry_equiv_pos_site_id
 _symmetry_equiv_pos_as_xyz
  1  'x, y, z'
loop_
 _atom_site_type_symbol
 _atom_site_label
 _atom_site_symmetry_multiplicity
 _atom_site_fract_x
 _atom_site_fract_y
 _atom_site_fract_z
 _atom_site_occupancy
  Al  Al0  1  0.09867848  0.09607617  0.39863395  1
  Al  Al1  1  0.22258142  0.19981288  0.14285106  1
  Al  Al2  1  0.77750642  0.09408383  0.81927402  1
  Al  Al3  1  0.44790229  0.08894361  0.37825637  1
  Al  Al4  1  0.56024247  0.19791358  0.08585776  1
  Al  Al5  1  0.11007259  0.09641567  0.88781708  1
  Al  Al6  1  0.22082869  0.20595684  0.64120266  1
  Al  Al7  1  0.88933939  0.20591824  0.14714456  1
  Al  Al8  1  0.44554743  0.08666301  0.89576126  1
  Al  Al9  1  0.57213577  0.20052737  0.56615222  1
  Al  Al10  1  0.10995622  0.42653280  0.39330917  1
  Al  Al11  1  0.22148492  0.53806420  0.14451818  1
  Al  Al12  1  0.77983937  0.42664935  0.88781692  1
  Al  Al13  1  0.88937899  0.53740621  0.64120269  1
  Al  Al14  1  0.44744526  0.42998237  0.38481166  1
  Al  Al15  1  0.55882277  0.54310984  0.14313438  1
  Al  Al16  1  0.11201951  0.42859564  0.89125295  1
  Al  Al17  1  0.22288672  0.53946469  0.64057154  1
  Al  Al18  1  0.77949820  0.41525683  0.39863394  1
  Al  Al19  1  0.88323598  0.53915861  0.14285081  1
  Al  Al20  1  0.44338267  0.43321388  0.89484034  1
  Al  Al21  1  0.55870392  0.53441395  0.64217133  1
  Al  Al22  1  0.11340261  0.76402415  0.38481187  1
  Al  Al23  1  0.22653110  0.87540122  0.14313453  1
  Al  Al24  1  0.77008638  0.76212450  0.89576090  1
  Al  Al25  1  0.88394798  0.88871376  0.56615267  1
  Al  Al26  1  0.44644759  0.76302650  0.38787577  1
  Al  Al27  1  0.11663788  0.75995890  0.89484064  1
  Al  Al28  1  0.21783493  0.87528260  0.64217125  1
  Al  Al29  1  0.77236651  0.76447903  0.37825609  1
  Al  Al30  1  0.88133368  0.87682216  0.08585681  1
  Al  Al31  1  0.44732985  0.76390701  0.89497490  1
  Al  Al32  1  0.55623113  0.87280866  0.63853132  1
  B  B33  1  0.89343105  0.21000885  0.65130008  1
  B  B34  1  0.77515756  0.09173618  0.31313845  1
  B  B35  1  0.55366639  0.87024404  0.14491442  1
  N  N36  1  0.21783727  0.20430107  0.33272483  1
  N  N37  1  0.10627410  0.09566032  0.07769311  1
  N  N38  1  0.89572195  0.21229879  0.81401035  1
  N  N39  1  0.78883987  0.10541807  0.63201888  1
  N  N40  1  0.58496580  0.19172004  0.36928268  1
  N  N41  1  0.45230820  0.06604283  0.09138165  1
  N  N42  1  0.22659553  0.20544805  0.83175476  1
  N  N43  1  0.08584067  0.10782402  0.59118681  1
  N  N44  1  0.87879469  0.19537302  0.33480234  1
  N  N45  1  0.77286565  0.08944469  0.15293828  1
  N  N46  1  0.56321172  0.20170346  0.88882822  1
  N  N47  1  0.44327546  0.09186980  0.57330381  1
  N  N48  1  0.22134714  0.53792580  0.33211523  1
  N  N49  1  0.11066667  0.42724359  0.08177824  1
  N  N50  1  0.88887166  0.54317235  0.83175483  1
  N  N51  1  0.79124577  0.40241878  0.59118692  1
  N  N52  1  0.55987232  0.53987491  0.33208191  1
  N  N53  1  0.44275342  0.43442346  0.08804642  1
  N  N54  1  0.22355765  0.54013410  0.83100261  1
  N  N55  1  0.11166767  0.42824529  0.58223419  1
  N  N56  1  0.88772432  0.53441418  0.33272463  1
  N  N57  1  0.77908217  0.42285245  0.07769299  1
  N  N58  1  0.55545160  0.54167475  0.83246729  1
  N  N59  1  0.44366167  0.43110289  0.57825479  1
  N  N60  1  0.22329611  0.87645038  0.33208199  1
  N  N61  1  0.11784407  0.75933244  0.08804657  1
  N  N62  1  0.88512693  0.87978867  0.88882744  1
  N  N63  1  0.77529199  0.75985241  0.57330362  1
  N  N64  1  0.55459382  0.87117119  0.30761302  1
  N  N65  1  0.45647537  0.77305378  0.08800630  1
  N  N66  1  0.22509785  0.87202833  0.83246717  1
  N  N67  1  0.11452381  0.76024001  0.57825512  1
  N  N68  1  0.87514076  0.90154452  0.36928302  1
  N  N69  1  0.74946523  0.76888581  0.09138147  1
  N  N70  1  0.55624603  0.87282279  0.82601652  1
  N  N71  1  0.44512714  0.76170588  0.57872613  1
