# generated using pymatgen
data_Al11BN12
_symmetry_space_group_name_H-M   'P 1'
_cell_length_a   9.26776948
_cell_length_b   9.26841492
_cell_length_c   10.02562809
_cell_angle_alpha   89.81677695
_cell_angle_beta   89.50482274
_cell_angle_gamma   60.10022754
_symmetry_Int_Tables_number   1
_chemical_formula_structural   Al11BN12
_chemical_formula_sum   'Al33 B3 N36'
_cell_volume   746.52450974
_cell_formula_units_Z   3
loop_
 _symmetry_equiv_pos_site_id
 _symmetry_equiv_pos_as_xyz
  1  'x, y, z'
loop_
 _atom_site_type_symbol
 _atom_site_label
 _atom_site_symmetry_multiplicity
 _atom_site_fract_x
 _atom_site_fract_y
 _atom_site_fract_z
 _atom_site_occupancy
  Al  Al0  1  0.09420384  0.10328065  0.37451646  1
  Al  Al1  1  0.22546302  0.19602133  0.13138389  1
  Al  Al2  1  0.78101125  0.09745397  0.81540225  1
  Al  Al3  1  0.46020939  0.08456151  0.31132790  1
  Al  Al4  1  0.55736279  0.19771103  0.06385829  1
  Al  Al5  1  0.10822268  0.09999566  0.88914184  1
  Al  Al6  1  0.21620128  0.20310770  0.62716069  1
  Al  Al7  1  0.88290443  0.20400882  0.09534268  1
  Al  Al8  1  0.45093893  0.08894201  0.81887403  1
  Al  Al9  1  0.56724553  0.20514510  0.55607500  1
  Al  Al10  1  0.10770758  0.43510885  0.31287650  1
  Al  Al11  1  0.22238703  0.53787486  0.06076485  1
  Al  Al12  1  0.78071787  0.42109464  0.81652065  1
  Al  Al13  1  0.89087321  0.53565735  0.56137228  1
  Al  Al14  1  0.45033927  0.42430208  0.31045537  1
  Al  Al15  1  0.55759731  0.54176473  0.05905311  1
  Al  Al16  1  0.10722634  0.43497618  0.81210432  1
  Al  Al17  1  0.22348922  0.53906921  0.55945249  1
  Al  Al18  1  0.77454832  0.42500627  0.31000306  1
  Al  Al19  1  0.88224955  0.54308903  0.05981538  1
  Al  Al20  1  0.44520477  0.42617043  0.81110861  1
  Al  Al21  1  0.56001098  0.53413725  0.56245238  1
  Al  Al22  1  0.10699038  0.76911449  0.31063406  1
  Al  Al23  1  0.23199136  0.86343383  0.06370162  1
  Al  Al24  1  0.77496585  0.76418911  0.81670982  1
  Al  Al25  1  0.88890572  0.88255387  0.55663337  1
  Al  Al26  1  0.44705347  0.76415196  0.30851328  1
  Al  Al27  1  0.10985793  0.76288777  0.81119358  1
  Al  Al28  1  0.22220601  0.86993417  0.56387797  1
  Al  Al29  1  0.77303938  0.76760137  0.30667981  1
  Al  Al30  1  0.88221357  0.87398226  0.06432164  1
  Al  Al31  1  0.44593578  0.76280401  0.81730677  1
  Al  Al32  1  0.55871586  0.87187262  0.56155814  1
  B  B33  1  0.88895963  0.20662708  0.59785980  1
  B  B34  1  0.77784943  0.09510006  0.30078186  1
  B  B35  1  0.55650068  0.87151704  0.06000479  1
  N  N36  1  0.22376001  0.20256791  0.32895078  1
  N  N37  1  0.11437177  0.09183257  0.08081207  1
  N  N38  1  0.87920503  0.20912123  0.88611333  1
  N  N39  1  0.79480643  0.11077702  0.62104108  1
  N  N40  1  0.58077663  0.19344021  0.36354566  1
  N  N41  1  0.46129012  0.06469337  0.11533404  1
  N  N42  1  0.21860708  0.20290763  0.82278011  1
  N  N43  1  0.07743173  0.11333863  0.57534353  1
  N  N44  1  0.87387467  0.19278654  0.32603432  1
  N  N45  1  0.77073300  0.08754468  0.13890783  1
  N  N46  1  0.55710007  0.20452769  0.87359433  1
  N  N47  1  0.45506331  0.09168594  0.62180729  1
  N  N48  1  0.22305636  0.54136990  0.37037363  1
  N  N49  1  0.10618627  0.43283934  0.11967065  1
  N  N50  1  0.88625015  0.53995986  0.86981909  1
  N  N51  1  0.79390706  0.39834236  0.61919360  1
  N  N52  1  0.55419037  0.54171968  0.37307646  1
  N  N53  1  0.44525314  0.42646085  0.12037688  1
  N  N54  1  0.22236716  0.53963349  0.87114093  1
  N  N55  1  0.10890698  0.43420104  0.61942900  1
  N  N56  1  0.88534907  0.54110067  0.37166466  1
  N  N57  1  0.77324796  0.43463446  0.12187969  1
  N  N58  1  0.55581540  0.53846049  0.86903147  1
  N  N59  1  0.44574954  0.42586752  0.61998990  1
  N  N60  1  0.22620127  0.86977073  0.37234998  1
  N  N61  1  0.11004289  0.76069711  0.12168371  1
  N  N62  1  0.88753433  0.87485250  0.87324723  1
  N  N63  1  0.77924443  0.76347523  0.62377947  1
  N  N64  1  0.55762566  0.86974245  0.37562186  1
  N  N65  1  0.45829732  0.77114857  0.11567320  1
  N  N66  1  0.22423911  0.86725116  0.87103502  1
  N  N67  1  0.10924818  0.76206002  0.62067468  1
  N  N68  1  0.87578044  0.89637158  0.36337326  1
  N  N69  1  0.75313294  0.77186802  0.11409289  1
  N  N70  1  0.55569697  0.87152082  0.89352974  1
  N  N71  1  0.44718697  0.76172629  0.62593108  1
