# generated using pymatgen
data_Al11BN12
_symmetry_space_group_name_H-M   'P 1'
_cell_length_a   9.28136584
_cell_length_b   9.28227364
_cell_length_c   9.95055612
_cell_angle_alpha   89.85634327
_cell_angle_beta   89.60705584
_cell_angle_gamma   60.03679732
_symmetry_Int_Tables_number   1
_chemical_formula_structural   Al11BN12
_chemical_formula_sum   'Al33 B3 N36'
_cell_volume   742.66798188
_cell_formula_units_Z   3
loop_
 _symmetry_equiv_pos_site_id
 _symmetry_equiv_pos_as_xyz
  1  'x, y, z'
loop_
 _atom_site_type_symbol
 _atom_site_label
 _atom_site_symmetry_multiplicity
 _atom_site_fract_x
 _atom_site_fract_y
 _atom_site_fract_z
 _atom_site_occupancy
  Al  Al0  1  0.09392536  0.10029801  0.36520858  1
  Al  Al1  1  0.22941362  0.20086610  0.08041681  1
  Al  Al2  1  0.78071162  0.09723585  0.81434773  1
  Al  Al3  1  0.45438800  0.08703603  0.30992064  1
  Al  Al4  1  0.55828315  0.19802010  0.06354990  1
  Al  Al5  1  0.10722318  0.09736087  0.88426930  1
  Al  Al6  1  0.22053954  0.20761948  0.57264564  1
  Al  Al7  1  0.88199853  0.20484895  0.09109639  1
  Al  Al8  1  0.44761714  0.09137730  0.81673275  1
  Al  Al9  1  0.56783504  0.20505683  0.55554450  1
  Al  Al10  1  0.11002769  0.43002053  0.31303260  1
  Al  Al11  1  0.22243705  0.53815779  0.06036069  1
  Al  Al12  1  0.78120323  0.42104290  0.81536734  1
  Al  Al13  1  0.89027783  0.53590899  0.56159565  1
  Al  Al14  1  0.45005511  0.42428539  0.31032652  1
  Al  Al15  1  0.55769018  0.54195762  0.05858546  1
  Al  Al16  1  0.11050934  0.42913749  0.81075076  1
  Al  Al17  1  0.22336116  0.53976216  0.55952950  1
  Al  Al18  1  0.77447739  0.42460551  0.31049194  1
  Al  Al19  1  0.88241374  0.54294400  0.05982436  1
  Al  Al20  1  0.44520892  0.42591954  0.81091795  1
  Al  Al21  1  0.55999902  0.53416048  0.56217204  1
  Al  Al22  1  0.10656911  0.76760875  0.31055359  1
  Al  Al23  1  0.23119394  0.86383691  0.06528935  1
  Al  Al24  1  0.77542678  0.76384417  0.81680975  1
  Al  Al25  1  0.88860260  0.88287813  0.55611361  1
  Al  Al26  1  0.44748039  0.76388673  0.30800834  1
  Al  Al27  1  0.10966657  0.76202611  0.81105120  1
  Al  Al28  1  0.22103074  0.87152496  0.56383863  1
  Al  Al29  1  0.77241176  0.76792793  0.30670526  1
  Al  Al30  1  0.88189656  0.87445946  0.06423578  1
  Al  Al31  1  0.44617798  0.76281960  0.81699399  1
  Al  Al32  1  0.55822296  0.87198192  0.56142675  1
  B  B33  1  0.88997989  0.20561480  0.59485677  1
  B  B34  1  0.77633461  0.09609182  0.30089136  1
  B  B35  1  0.55667390  0.87065408  0.05843542  1
  N  N36  1  0.22585277  0.20506082  0.36533648  1
  N  N37  1  0.11326900  0.09078687  0.08878184  1
  N  N38  1  0.87930916  0.20878727  0.88610799  1
  N  N39  1  0.79455352  0.11057277  0.62006998  1
  N  N40  1  0.57952427  0.19299794  0.36213669  1
  N  N41  1  0.45930445  0.06688505  0.11588522  1
  N  N42  1  0.22354132  0.20716526  0.86120616  1
  N  N43  1  0.07753382  0.11195380  0.57843487  1
  N  N44  1  0.87029310  0.19406695  0.33079077  1
  N  N45  1  0.77128365  0.08840747  0.13815028  1
  N  N46  1  0.55790896  0.20392366  0.87216070  1
  N  N47  1  0.45126624  0.09355625  0.62194775  1
  N  N48  1  0.22269513  0.54062738  0.36936698  1
  N  N49  1  0.10838313  0.43009371  0.12141493  1
  N  N50  1  0.88765007  0.53901008  0.86853080  1
  N  N51  1  0.79389160  0.39821432  0.61781674  1
  N  N52  1  0.55380122  0.54194232  0.37184477  1
  N  N53  1  0.44540193  0.42685806  0.11907252  1
  N  N54  1  0.22201262  0.53933092  0.86972016  1
  N  N55  1  0.11044896  0.43134794  0.61986895  1
  N  N56  1  0.88580199  0.54080596  0.37049466  1
  N  N57  1  0.77366377  0.43426175  0.12107612  1
  N  N58  1  0.55628576  0.53820596  0.86768369  1
  N  N59  1  0.44580939  0.42578555  0.61878400  1
  N  N60  1  0.22618537  0.86864194  0.37029703  1
  N  N61  1  0.10957070  0.76009438  0.12063527  1
  N  N62  1  0.88757153  0.87503652  0.87243622  1
  N  N63  1  0.77901193  0.76388209  0.62297218  1
  N  N64  1  0.55669783  0.87076553  0.37443249  1
  N  N65  1  0.45872403  0.77118058  0.11422822  1
  N  N66  1  0.22422678  0.86678222  0.87073169  1
  N  N67  1  0.10906251  0.76216765  0.61957389  1
  N  N68  1  0.87543003  0.89618229  0.36236309  1
  N  N69  1  0.75284862  0.77223232  0.11297083  1
  N  N70  1  0.55568049  0.87209127  0.89219670  1
  N  N71  1  0.44691395  0.76181279  0.62483661  1
