# generated using pymatgen
data_Al11BN12
_symmetry_space_group_name_H-M   'P 1'
_cell_length_a   9.28235673
_cell_length_b   9.27661105
_cell_length_c   10.03657639
_cell_angle_alpha   89.84426191
_cell_angle_beta   89.64108529
_cell_angle_gamma   60.11480103
_symmetry_Int_Tables_number   1
_chemical_formula_structural   Al11BN12
_chemical_formula_sum   'Al33 B3 N36'
_cell_volume   749.30131731
_cell_formula_units_Z   3
loop_
 _symmetry_equiv_pos_site_id
 _symmetry_equiv_pos_as_xyz
  1  'x, y, z'
loop_
 _atom_site_type_symbol
 _atom_site_label
 _atom_site_symmetry_multiplicity
 _atom_site_fract_x
 _atom_site_fract_y
 _atom_site_fract_z
 _atom_site_occupancy
  Al  Al0  1  0.09787414  0.10155567  0.39452602  1
  Al  Al1  1  0.22155643  0.19606159  0.13460540  1
  Al  Al2  1  0.77910210  0.09402425  0.81516436  1
  Al  Al3  1  0.45764423  0.08393695  0.31775264  1
  Al  Al4  1  0.55782042  0.19855093  0.07393845  1
  Al  Al5  1  0.10762369  0.10109386  0.88838364  1
  Al  Al6  1  0.21886573  0.20149038  0.63972910  1
  Al  Al7  1  0.88601961  0.20465138  0.14584906  1
  Al  Al8  1  0.45433869  0.08952149  0.82924569  1
  Al  Al9  1  0.56824126  0.20364335  0.56440421  1
  Al  Al10  1  0.10741231  0.43355896  0.32020109  1
  Al  Al11  1  0.22161387  0.53870563  0.06994039  1
  Al  Al12  1  0.77891314  0.42781028  0.85411916  1
  Al  Al13  1  0.89186846  0.53921237  0.57475804  1
  Al  Al14  1  0.44964742  0.42406742  0.31905651  1
  Al  Al15  1  0.55448966  0.54179504  0.06841696  1
  Al  Al16  1  0.10974154  0.43546124  0.82136162  1
  Al  Al17  1  0.22292559  0.53850553  0.56802153  1
  Al  Al18  1  0.77920339  0.41469923  0.38256243  1
  Al  Al19  1  0.88292998  0.54251550  0.06877907  1
  Al  Al20  1  0.44460097  0.42632817  0.81934485  1
  Al  Al21  1  0.55394877  0.53825084  0.57679278  1
  Al  Al22  1  0.10745852  0.76822131  0.31988733  1
  Al  Al23  1  0.22833605  0.86653728  0.06965792  1
  Al  Al24  1  0.77582484  0.76720012  0.82484372  1
  Al  Al25  1  0.88762854  0.88418012  0.56440811  1
  Al  Al26  1  0.44620387  0.76351450  0.31725750  1
  Al  Al27  1  0.11030519  0.76313707  0.81956152  1
  Al  Al28  1  0.22227626  0.87034029  0.57560120  1
  Al  Al29  1  0.77164437  0.76615697  0.31512219  1
  Al  Al30  1  0.88222869  0.87398308  0.07416400  1
  Al  Al31  1  0.44564189  0.76496427  0.82547696  1
  Al  Al32  1  0.55831067  0.87292415  0.57055817  1
  B  B33  1  0.89381427  0.20673363  0.64787903  1
  B  B34  1  0.77442867  0.08904525  0.31223744  1
  B  B35  1  0.55619155  0.87149360  0.06803634  1
  N  N36  1  0.22153582  0.20045877  0.33287479  1
  N  N37  1  0.10145434  0.09852694  0.07844606  1
  N  N38  1  0.89905376  0.20669633  0.81041650  1
  N  N39  1  0.78972349  0.10572775  0.62682960  1
  N  N40  1  0.58042701  0.19184309  0.37102536  1
  N  N41  1  0.45936516  0.06519142  0.12207327  1
  N  N42  1  0.22390443  0.20415617  0.83615689  1
  N  N43  1  0.08399830  0.11038481  0.58750215  1
  N  N44  1  0.87793356  0.19095467  0.33424933  1
  N  N45  1  0.77041533  0.08651843  0.14948173  1
  N  N46  1  0.56187202  0.20550381  0.88453420  1
  N  N47  1  0.45583060  0.09176823  0.63199591  1
  N  N48  1  0.22255443  0.53983140  0.37888613  1
  N  N49  1  0.10570164  0.43328320  0.12791836  1
  N  N50  1  0.88990124  0.54524430  0.87711067  1
  N  N51  1  0.79023564  0.40345288  0.60033786  1
  N  N52  1  0.54977087  0.54296394  0.38318282  1
  N  N53  1  0.44373465  0.42662730  0.12993786  1
  N  N54  1  0.22328805  0.54077787  0.88082578  1
  N  N55  1  0.11049844  0.43282394  0.62982317  1
  N  N56  1  0.88717900  0.54288229  0.38158323  1
  N  N57  1  0.77863734  0.42067577  0.09187508  1
  N  N58  1  0.55071447  0.54158526  0.87580758  1
  N  N59  1  0.44428417  0.42480773  0.62927340  1
  N  N60  1  0.22595483  0.86882079  0.38237097  1
  N  N61  1  0.10990159  0.76160179  0.13081537  1
  N  N62  1  0.88869715  0.87765793  0.88413148  1
  N  N63  1  0.77877793  0.76612494  0.63281822  1
  N  N64  1  0.55658957  0.86976135  0.38420274  1
  N  N65  1  0.45580826  0.77240671  0.12403585  1
  N  N66  1  0.22469380  0.86798076  0.87828273  1
  N  N67  1  0.10874953  0.76153188  0.62919013  1
  N  N68  1  0.87476242  0.89573170  0.37069180  1
  N  N69  1  0.75216691  0.77111285  0.12317949  1
  N  N70  1  0.55732166  0.87132773  0.90234375  1
  N  N71  1  0.44635656  0.76401033  0.63550678  1
