# generated using pymatgen
data_Al11BN12
_symmetry_space_group_name_H-M   'P 1'
_cell_length_a   9.27791076
_cell_length_b   9.28893448
_cell_length_c   10.05078518
_cell_angle_alpha   89.44679080
_cell_angle_beta   89.45537745
_cell_angle_gamma   60.01200863
_symmetry_Int_Tables_number   1
_chemical_formula_structural   Al11BN12
_chemical_formula_sum   'Al33 B3 N36'
_cell_volume   750.19241715
_cell_formula_units_Z   3
loop_
 _symmetry_equiv_pos_site_id
 _symmetry_equiv_pos_as_xyz
  1  'x, y, z'
loop_
 _atom_site_type_symbol
 _atom_site_label
 _atom_site_symmetry_multiplicity
 _atom_site_fract_x
 _atom_site_fract_y
 _atom_site_fract_z
 _atom_site_occupancy
  Al  Al0  1  0.09822718  0.09565610  0.39486907  1
  Al  Al1  1  0.22258389  0.19959418  0.13951546  1
  Al  Al2  1  0.77618691  0.09534684  0.81406044  1
  Al  Al3  1  0.44751394  0.08785847  0.37437604  1
  Al  Al4  1  0.56109581  0.19685735  0.08217117  1
  Al  Al5  1  0.11000862  0.09591185  0.88428989  1
  Al  Al6  1  0.22156438  0.20577135  0.63744720  1
  Al  Al7  1  0.88893464  0.20597257  0.14283451  1
  Al  Al8  1  0.44531711  0.08637144  0.89212682  1
  Al  Al9  1  0.57335025  0.20143787  0.55962899  1
  Al  Al10  1  0.10941635  0.42546233  0.38963302  1
  Al  Al11  1  0.22148253  0.53386612  0.13747949  1
  Al  Al12  1  0.78018917  0.42656269  0.88359100  1
  Al  Al13  1  0.88945665  0.53803577  0.63705793  1
  Al  Al14  1  0.44783880  0.42801655  0.37202366  1
  Al  Al15  1  0.55974314  0.54343445  0.13837155  1
  Al  Al16  1  0.11159662  0.42693661  0.88788442  1
  Al  Al17  1  0.22693257  0.53210348  0.63399308  1
  Al  Al18  1  0.77944617  0.41502934  0.39468759  1
  Al  Al19  1  0.88243563  0.54021157  0.13906403  1
  Al  Al20  1  0.44371950  0.43235016  0.88831771  1
  Al  Al21  1  0.55940326  0.53455485  0.63766261  1
  Al  Al22  1  0.10059444  0.77013732  0.31948181  1
  Al  Al23  1  0.22896050  0.87816117  0.13699573  1
  Al  Al24  1  0.76983084  0.76178724  0.89211932  1
  Al  Al25  1  0.89116388  0.88694913  0.55959191  1
  Al  Al26  1  0.44598674  0.76208493  0.38396046  1
  Al  Al27  1  0.10349933  0.76502901  0.82121242  1
  Al  Al28  1  0.22287826  0.87928514  0.63647809  1
  Al  Al29  1  0.77176559  0.76390860  0.37617410  1
  Al  Al30  1  0.88497516  0.87658749  0.07615178  1
  Al  Al31  1  0.44696986  0.76399917  0.89108119  1
  Al  Al32  1  0.55859147  0.87350475  0.63446313  1
  B  B33  1  0.89308350  0.21024734  0.64702825  1
  B  B34  1  0.77456794  0.09204665  0.30825347  1
  B  B35  1  0.55510206  0.87040216  0.14105854  1
  N  N36  1  0.21760331  0.20371590  0.32891341  1
  N  N37  1  0.10586583  0.09683232  0.07371365  1
  N  N38  1  0.89557288  0.21217510  0.80994934  1
  N  N39  1  0.78926872  0.10586728  0.62669800  1
  N  N40  1  0.58519117  0.19041025  0.36326240  1
  N  N41  1  0.45232749  0.06581490  0.08771129  1
  N  N42  1  0.22661610  0.20467768  0.82788014  1
  N  N43  1  0.08600641  0.10898420  0.58650299  1
  N  N44  1  0.87816330  0.19525482  0.33052049  1
  N  N45  1  0.77391226  0.08794569  0.14809714  1
  N  N46  1  0.56381443  0.20101749  0.88592828  1
  N  N47  1  0.44408798  0.09238691  0.56903525  1
  N  N48  1  0.22092418  0.53451298  0.32976521  1
  N  N49  1  0.10936133  0.42584478  0.07757419  1
  N  N50  1  0.88888768  0.54351915  0.82760653  1
  N  N51  1  0.79180983  0.40272881  0.58711862  1
  N  N52  1  0.56067716  0.53982391  0.32724640  1
  N  N53  1  0.44389716  0.43266962  0.08792711  1
  N  N54  1  0.22581763  0.53311290  0.82873248  1
  N  N55  1  0.11125258  0.42693390  0.57782526  1
  N  N56  1  0.88726991  0.53469979  0.32883897  1
  N  N57  1  0.77962073  0.42284923  0.07341225  1
  N  N58  1  0.55577990  0.54191741  0.82862355  1
  N  N59  1  0.44575123  0.43034190  0.57429898  1
  N  N60  1  0.22392380  0.87772461  0.33093173  1
  N  N61  1  0.10757759  0.76466893  0.12458167  1
  N  N62  1  0.88738443  0.87926879  0.88519591  1
  N  N63  1  0.77725862  0.76022423  0.56932995  1
  N  N64  1  0.55516062  0.87040037  0.30371722  1
  N  N65  1  0.45748793  0.77268333  0.08365721  1
  N  N66  1  0.22741309  0.87411237  0.82998657  1
  N  N67  1  0.10545430  0.76490493  0.62349046  1
  N  N68  1  0.87488863  0.90205977  0.36793360  1
  N  N69  1  0.74999163  0.76982012  0.08654804  1
  N  N70  1  0.55679882  0.87301503  0.82201244  1
  N  N71  1  0.44764289  0.76165525  0.57426793  1
