# generated using pymatgen
data_Al11BN12
_symmetry_space_group_name_H-M   'P 1'
_cell_length_a   9.26167511
_cell_length_b   9.26733169
_cell_length_c   10.07395794
_cell_angle_alpha   89.85568664
_cell_angle_beta   89.59228267
_cell_angle_gamma   60.04694550
_symmetry_Int_Tables_number   1
_chemical_formula_structural   Al11BN12
_chemical_formula_sum   'Al33 B3 N36'
_cell_volume   749.15030300
_cell_formula_units_Z   3
loop_
 _symmetry_equiv_pos_site_id
 _symmetry_equiv_pos_as_xyz
  1  'x, y, z'
loop_
 _atom_site_type_symbol
 _atom_site_label
 _atom_site_symmetry_multiplicity
 _atom_site_fract_x
 _atom_site_fract_y
 _atom_site_fract_z
 _atom_site_occupancy
  Al  Al0  1  0.09163052  0.10641096  0.39089290  1
  Al  Al1  1  0.22108708  0.19635452  0.12942141  1
  Al  Al2  1  0.77907729  0.09168052  0.81024901  1
  Al  Al3  1  0.45624026  0.08516947  0.31208481  1
  Al  Al4  1  0.55647970  0.19836024  0.06680285  1
  Al  Al5  1  0.10930922  0.09967076  0.88171213  1
  Al  Al6  1  0.21886166  0.20194408  0.63345195  1
  Al  Al7  1  0.88941898  0.19747566  0.13835249  1
  Al  Al8  1  0.45463588  0.08843745  0.82185427  1
  Al  Al9  1  0.56874977  0.20388163  0.55783180  1
  Al  Al10  1  0.10716326  0.43490425  0.31337376  1
  Al  Al11  1  0.22217588  0.53860775  0.06277268  1
  Al  Al12  1  0.77786892  0.43181420  0.80926033  1
  Al  Al13  1  0.89036462  0.53618744  0.56316343  1
  Al  Al14  1  0.44868617  0.42475452  0.31241851  1
  Al  Al15  1  0.55806365  0.54041592  0.06263951  1
  Al  Al16  1  0.10876731  0.43523740  0.81497286  1
  Al  Al17  1  0.22349859  0.53845565  0.56203022  1
  Al  Al18  1  0.77146847  0.43040397  0.31784298  1
  Al  Al19  1  0.88180611  0.54159343  0.06252791  1
  Al  Al20  1  0.44718856  0.42578716  0.81281894  1
  Al  Al21  1  0.56044218  0.53464340  0.56366883  1
  Al  Al22  1  0.10674485  0.76979074  0.31362821  1
  Al  Al23  1  0.22921248  0.86553164  0.06237655  1
  Al  Al24  1  0.77663147  0.76382705  0.81879728  1
  Al  Al25  1  0.88777725  0.88331475  0.55867609  1
  Al  Al26  1  0.44296355  0.76700416  0.31092889  1
  Al  Al27  1  0.11110775  0.76220190  0.81259219  1
  Al  Al28  1  0.22318589  0.86984870  0.56924194  1
  Al  Al29  1  0.77102660  0.76879640  0.30864168  1
  Al  Al30  1  0.88217159  0.87267759  0.06703401  1
  Al  Al31  1  0.44825053  0.76141442  0.81937216  1
  Al  Al32  1  0.55888033  0.87185740  0.56434704  1
  B  B33  1  0.89554408  0.20266879  0.64561816  1
  B  B34  1  0.77382459  0.09142880  0.30696794  1
  B  B35  1  0.55580598  0.87156251  0.06214464  1
  N  N36  1  0.21915544  0.20167753  0.32679436  1
  N  N37  1  0.10226741  0.09871220  0.07040734  1
  N  N38  1  0.90004628  0.20147525  0.80956840  1
  N  N39  1  0.79002968  0.10539009  0.62193306  1
  N  N40  1  0.57925263  0.19286910  0.36481568  1
  N  N41  1  0.45866489  0.06529150  0.11653373  1
  N  N42  1  0.22395989  0.20373011  0.82841394  1
  N  N43  1  0.08260819  0.11128074  0.58288320  1
  N  N44  1  0.87496693  0.19257973  0.32746493  1
  N  N45  1  0.76954603  0.08590117  0.14169542  1
  N  N46  1  0.56107996  0.20464657  0.87817417  1
  N  N47  1  0.45647129  0.09133952  0.62524446  1
  N  N48  1  0.22191028  0.54106863  0.37301014  1
  N  N49  1  0.10576094  0.43365252  0.12133648  1
  N  N50  1  0.88779375  0.54013793  0.87413157  1
  N  N51  1  0.78780815  0.41018202  0.61857429  1
  N  N52  1  0.55048943  0.54393610  0.37431950  1
  N  N53  1  0.44458445  0.42650989  0.12335021  1
  N  N54  1  0.22421872  0.53969495  0.87393134  1
  N  N55  1  0.10911581  0.43367731  0.62292311  1
  N  N56  1  0.88531704  0.54337927  0.37329165  1
  N  N57  1  0.77527867  0.42947050  0.12508836  1
  N  N58  1  0.55873771  0.53648015  0.87373340  1
  N  N59  1  0.44640264  0.42561518  0.62221652  1
  N  N60  1  0.22345730  0.87193460  0.37702416  1
  N  N61  1  0.10997821  0.76183699  0.12478610  1
  N  N62  1  0.88937697  0.87434831  0.87774197  1
  N  N63  1  0.77994894  0.76343464  0.62648037  1
  N  N64  1  0.55568234  0.87079794  0.37823445  1
  N  N65  1  0.45563755  0.77277802  0.11791347  1
  N  N66  1  0.22670059  0.86556088  0.87216655  1
  N  N67  1  0.10916721  0.76159357  0.62317111  1
  N  N68  1  0.87401000  0.89707914  0.36501233  1
  N  N69  1  0.75188682  0.77125248  0.11691295  1
  N  N70  1  0.55736576  0.87072972  0.89614314  1
  N  N71  1  0.44838040  0.76095752  0.62906304  1
