# generated using pymatgen
data_Al11BN12
_symmetry_space_group_name_H-M   'P 1'
_cell_length_a   9.28522413
_cell_length_b   9.28533897
_cell_length_c   10.14220199
_cell_angle_alpha   89.86474193
_cell_angle_beta   89.90802665
_cell_angle_gamma   60.15623089
_symmetry_Int_Tables_number   1
_chemical_formula_structural   Al11BN12
_chemical_formula_sum   'Al33 B3 N36'
_cell_volume   758.46113397
_cell_formula_units_Z   3
loop_
 _symmetry_equiv_pos_site_id
 _symmetry_equiv_pos_as_xyz
  1  'x, y, z'
loop_
 _atom_site_type_symbol
 _atom_site_label
 _atom_site_symmetry_multiplicity
 _atom_site_fract_x
 _atom_site_fract_y
 _atom_site_fract_z
 _atom_site_occupancy
  Al  Al0  1  0.09876572  0.09460758  0.39572771  1
  Al  Al1  1  0.21949899  0.19940089  0.14152196  1
  Al  Al2  1  0.77905433  0.09532198  0.81398110  1
  Al  Al3  1  0.45295005  0.08621475  0.33487987  1
  Al  Al4  1  0.55749437  0.19394746  0.07230887  1
  Al  Al5  1  0.11112214  0.09786563  0.88650612  1
  Al  Al6  1  0.21231275  0.21150418  0.63663099  1
  Al  Al7  1  0.88714266  0.20333317  0.14358360  1
  Al  Al8  1  0.45137411  0.09525931  0.81081429  1
  Al  Al9  1  0.56951855  0.20825759  0.56132741  1
  Al  Al10  1  0.10967612  0.42794818  0.39002274  1
  Al  Al11  1  0.21887837  0.53507225  0.13417161  1
  Al  Al12  1  0.78135077  0.42707265  0.88648132  1
  Al  Al13  1  0.89464927  0.52941725  0.63789236  1
  Al  Al14  1  0.45388282  0.41700202  0.31854699  1
  Al  Al15  1  0.56238141  0.54430799  0.13643222  1
  Al  Al16  1  0.11114399  0.42679673  0.89113315  1
  Al  Al17  1  0.22053273  0.53723540  0.63566267  1
  Al  Al18  1  0.77813888  0.41621469  0.39531743  1
  Al  Al19  1  0.88417170  0.53432899  0.13972825  1
  Al  Al20  1  0.44926241  0.42123564  0.82714919  1
  Al  Al21  1  0.56378302  0.53783310  0.64431495  1
  Al  Al22  1  0.10043107  0.77023397  0.31870641  1
  Al  Al23  1  0.22794941  0.87875684  0.13667314  1
  Al  Al24  1  0.77844092  0.76804685  0.81215216  1
  Al  Al25  1  0.89105598  0.88499929  0.56059674  1
  Al  Al26  1  0.44070047  0.75704307  0.39608961  1
  Al  Al27  1  0.10431419  0.76596968  0.82669694  1
  Al  Al28  1  0.22121831  0.88024719  0.64412869  1
  Al  Al29  1  0.76793839  0.77117362  0.32729888  1
  Al  Al30  1  0.87801526  0.87455667  0.07212821  1
  Al  Al31  1  0.44979544  0.76664893  0.88874187  1
  Al  Al32  1  0.55890608  0.87386569  0.58993153  1
  B  B33  1  0.89189034  0.20782748  0.64713069  1
  B  B34  1  0.77489386  0.09157006  0.30997817  1
  B  B35  1  0.55459370  0.87251857  0.10843220  1
  N  N36  1  0.21608281  0.20531788  0.33207141  1
  N  N37  1  0.10455606  0.09695752  0.07489497  1
  N  N38  1  0.89605743  0.21229817  0.81081755  1
  N  N39  1  0.79050596  0.10615181  0.62706025  1
  N  N40  1  0.58356932  0.19168435  0.37070231  1
  N  N41  1  0.45906825  0.06021202  0.12974700  1
  N  N42  1  0.22000497  0.20938795  0.82727518  1
  N  N43  1  0.08542732  0.10768682  0.58618123  1
  N  N44  1  0.87726908  0.19418013  0.33033596  1
  N  N45  1  0.77011431  0.08684170  0.14790566  1
  N  N46  1  0.56196571  0.20077827  0.88482212  1
  N  N47  1  0.44628064  0.10550663  0.61642680  1
  N  N48  1  0.22047741  0.53676771  0.33209388  1
  N  N49  1  0.10899110  0.42380903  0.07941706  1
  N  N50  1  0.89290565  0.53635604  0.82880751  1
  N  N51  1  0.79119219  0.40234993  0.58615387  1
  N  N52  1  0.56098503  0.54156399  0.32809435  1
  N  N53  1  0.44921461  0.41991633  0.12327375  1
  N  N54  1  0.22008879  0.53684215  0.83559113  1
  N  N55  1  0.11098451  0.42853011  0.57526122  1
  N  N56  1  0.88821883  0.53352438  0.33006629  1
  N  N57  1  0.78038423  0.42045758  0.07456458  1
  N  N58  1  0.55920551  0.54305022  0.83554631  1
  N  N59  1  0.45057918  0.42145895  0.62796365  1
  N  N60  1  0.22482941  0.87766154  0.32838093  1
  N  N61  1  0.10370781  0.76548205  0.12344087  1
  N  N62  1  0.88440120  0.87859504  0.88524460  1
  N  N63  1  0.78928947  0.76308990  0.61947522  1
  N  N64  1  0.55725841  0.87209630  0.39265960  1
  N  N65  1  0.45972494  0.77639986  0.08384812  1
  N  N66  1  0.22623238  0.87578766  0.83537498  1
  N  N67  1  0.10477995  0.76718703  0.62728552  1
  N  N68  1  0.87446961  0.89974319  0.36967553  1
  N  N69  1  0.74357881  0.77578544  0.12875902  1
  N  N70  1  0.55559874  0.87277415  0.82889746  1
  N  N71  1  0.43964546  0.75617869  0.58298339  1
