# generated using pymatgen
data_Al11BN12
_symmetry_space_group_name_H-M   'P 1'
_cell_length_a   9.25676964
_cell_length_b   9.25676884
_cell_length_c   9.88915093
_cell_angle_alpha   90.07595887
_cell_angle_beta   90.07596793
_cell_angle_gamma   60.02533955
_symmetry_Int_Tables_number   1
_chemical_formula_structural   Al11BN12
_chemical_formula_sum   'Al33 B3 N36'
_cell_volume   734.03849858
_cell_formula_units_Z   3
loop_
 _symmetry_equiv_pos_site_id
 _symmetry_equiv_pos_as_xyz
  1  'x, y, z'
loop_
 _atom_site_type_symbol
 _atom_site_label
 _atom_site_symmetry_multiplicity
 _atom_site_fract_x
 _atom_site_fract_y
 _atom_site_fract_z
 _atom_site_occupancy
  Al  Al0  1  0.10516953  0.09435242  0.30905096  1
  Al  Al1  1  0.22515498  0.19935619  0.05212856  1
  Al  Al2  1  0.78047981  0.09715438  0.79964776  1
  Al  Al3  1  0.45186942  0.08781358  0.29773939  1
  Al  Al4  1  0.56141114  0.19890437  0.05831397  1
  Al  Al5  1  0.10418972  0.09754625  0.79725026  1
  Al  Al6  1  0.21892974  0.20594812  0.55197218  1
  Al  Al7  1  0.88807192  0.20474702  0.05983446  1
  Al  Al8  1  0.44685251  0.09224369  0.80881484  1
  Al  Al9  1  0.56417250  0.20335266  0.54806416  1
  Al  Al10  1  0.11119204  0.42786586  0.30065995  1
  Al  Al11  1  0.22246365  0.53913873  0.05130995  1
  Al  Al12  1  0.78087115  0.42086485  0.79725012  1
  Al  Al13  1  0.88927186  0.53560578  0.55197230  1
  Al  Al14  1  0.44959997  0.42429849  0.30153825  1
  Al  Al15  1  0.55908391  0.54144033  0.05172203  1
  Al  Al16  1  0.11069072  0.42736512  0.80219199  1
  Al  Al17  1  0.22191512  0.53859086  0.55145913  1
  Al  Al18  1  0.77767720  0.42184484  0.30905106  1
  Al  Al19  1  0.88268180  0.54182895  0.05212840  1
  Al  Al20  1  0.44591526  0.42576566  0.80220290  1
  Al  Al21  1  0.55796258  0.53565003  0.55203341  1
  Al  Al22  1  0.10762304  0.76627476  0.30153808  1
  Al  Al23  1  0.22476534  0.87575924  0.05172225  1
  Al  Al24  1  0.77556825  0.76352756  0.80881518  1
  Al  Al25  1  0.88667759  0.88084730  0.54806415  1
  Al  Al26  1  0.44700278  0.76367858  0.29746650  1
  Al  Al27  1  0.10909014  0.76259081  0.80220313  1
  Al  Al28  1  0.21897328  0.87463939  0.55203327  1
  Al  Al29  1  0.77113943  0.76854323  0.29773922  1
  Al  Al30  1  0.88222902  0.87808600  0.05831410  1
  Al  Al31  1  0.44581888  0.76249518  0.80848696  1
  Al  Al32  1  0.55577882  0.87245398  0.55336592  1
  B  B33  1  0.88421384  0.20088956  0.54553678  1
  B  B34  1  0.77703978  0.09371494  0.30413706  1
  B  B35  1  0.55575371  0.87242858  0.04789222  1
  N  N36  1  0.22567358  0.20444178  0.35966097  1
  N  N37  1  0.10989117  0.09512471  0.11709902  1
  N  N38  1  0.88830385  0.20497899  0.86883038  1
  N  N39  1  0.79040998  0.10708499  0.60707926  1
  N  N40  1  0.57964426  0.19185780  0.35344692  1
  N  N41  1  0.45734032  0.06936572  0.10355783  1
  N  N42  1  0.22091532  0.20374215  0.85945632  1
  N  N43  1  0.08468268  0.10682781  0.60087863  1
  N  N44  1  0.87674553  0.19342078  0.37506820  1
  N  N45  1  0.77948035  0.09615528  0.13766825  1
  N  N46  1  0.56016615  0.20357194  0.86487505  1
  N  N47  1  0.44645000  0.09460724  0.61429613  1
  N  N48  1  0.22265028  0.53932518  0.35969924  1
  N  N49  1  0.11066547  0.42733992  0.10894870  1
  N  N50  1  0.88706749  0.53759000  0.85945619  1
  N  N51  1  0.79015147  0.40135874  0.60087849  1
  N  N52  1  0.55347304  0.54209797  0.36064601  1
  N  N53  1  0.44560680  0.42772772  0.11026339  1
  N  N54  1  0.22242720  0.53910255  0.85998538  1
  N  N55  1  0.11095909  0.42763505  0.61100711  1
  N  N56  1  0.88776760  0.54234782  0.35966098  1
  N  N57  1  0.77844938  0.42656618  0.11709904  1
  N  N58  1  0.55851028  0.53691846  0.85941866  1
  N  N59  1  0.44521542  0.42536981  0.60945593  1
  N  N60  1  0.22542220  0.87014838  0.36064596  1
  N  N61  1  0.11105253  0.76228194  0.11026331  1
  N  N62  1  0.88689665  0.87684108  0.86487525  1
  N  N63  1  0.77793170  0.76312553  0.61429645  1
  N  N64  1  0.55533687  0.87201112  0.36488398  1
  N  N65  1  0.45691050  0.77358560  0.10261534  1
  N  N66  1  0.22024270  0.87518580  0.85941901  1
  N  N67  1  0.10869437  0.76189107  0.60945611  1
  N  N68  1  0.87518258  0.89631913  0.35344694  1
  N  N69  1  0.75269107  0.77401456  0.10355768  1
  N  N70  1  0.55571093  0.87238630  0.88226265  1
  N  N71  1  0.44508946  0.76176607  0.61561098  1
