# generated using pymatgen
data_Al11BN12
_symmetry_space_group_name_H-M   'P 1'
_cell_length_a   9.25680628
_cell_length_b   9.25680579
_cell_length_c   9.88996422
_cell_angle_alpha   90.08192884
_cell_angle_beta   90.08192030
_cell_angle_gamma   60.01883642
_symmetry_Int_Tables_number   1
_chemical_formula_structural   Al11BN12
_chemical_formula_sum   'Al33 B3 N36'
_cell_volume   734.05650039
_cell_formula_units_Z   3
loop_
 _symmetry_equiv_pos_site_id
 _symmetry_equiv_pos_as_xyz
  1  'x, y, z'
loop_
 _atom_site_type_symbol
 _atom_site_label
 _atom_site_symmetry_multiplicity
 _atom_site_fract_x
 _atom_site_fract_y
 _atom_site_fract_z
 _atom_site_occupancy
  Al  Al0  1  0.10193670  0.09580203  0.40851276  1
  Al  Al1  1  0.22473955  0.20016061  0.15410744  1
  Al  Al2  1  0.77847405  0.09510277  0.89564799  1
  Al  Al3  1  0.45089021  0.09096923  0.39791665  1
  Al  Al4  1  0.56406262  0.19772977  0.15853489  1
  Al  Al5  1  0.10700099  0.09621665  0.89731550  1
  Al  Al6  1  0.21933266  0.20603673  0.65365437  1
  Al  Al7  1  0.88631090  0.20293896  0.15614518  1
  Al  Al8  1  0.44799786  0.09033858  0.90794411  1
  Al  Al9  1  0.56145741  0.20472209  0.64675691  1
  Al  Al10  1  0.11097408  0.42760141  0.40451989  1
  Al  Al11  1  0.22228383  0.53891272  0.15487854  1
  Al  Al12  1  0.77958777  0.42363011  0.89731536  1
  Al  Al13  1  0.88940650  0.53596267  0.65365444  1
  Al  Al14  1  0.45011351  0.42461062  0.40401580  1
  Al  Al15  1  0.55911400  0.54151844  0.15378167  1
  Al  Al16  1  0.11121428  0.42784245  0.90453841  1
  Al  Al17  1  0.22270303  0.53933247  0.65439968  1
  Al  Al18  1  0.77917380  0.41856475  0.40851296  1
  Al  Al19  1  0.88353311  0.54136657  0.15410739  1
  Al  Al20  1  0.44549411  0.42595534  0.90413903  1
  Al  Al21  1  0.55869801  0.53557596  0.65427002  1
  Al  Al22  1  0.10798150  0.76674178  0.40401578  1
  Al  Al23  1  0.22488983  0.87574274  0.15378169  1
  Al  Al24  1  0.77370958  0.76462654  0.90794428  1
  Al  Al25  1  0.88809252  0.87808650  0.64675667  1
  Al  Al26  1  0.44633491  0.76296447  0.39808528  1
  Al  Al27  1  0.10932582  0.76212366  0.90413903  1
  Al  Al28  1  0.21894505  0.87532888  0.65426992  1
  Al  Al29  1  0.77434108  0.76751746  0.39791637  1
  Al  Al30  1  0.88110055  0.88069106  0.15853496  1
  Al  Al31  1  0.44731606  0.76394567  0.90829048  1
  Al  Al32  1  0.55592194  0.87255138  0.65331835  1
  B  B33  1  0.88930834  0.20593813  0.65136820  1
  B  B34  1  0.78245669  0.09908549  0.40946679  1
  B  B35  1  0.55613730  0.87276555  0.15891376  1
  N  N36  1  0.22078623  0.20380868  0.34636554  1
  N  N37  1  0.10659947  0.09689236  0.09106319  1
  N  N38  1  0.88734850  0.20397764  0.81859108  1
  N  N39  1  0.78995260  0.10658188  0.58149179  1
  N  N40  1  0.58317856  0.19306354  0.35382307  1
  N  N41  1  0.45785362  0.07118905  0.10450373  1
  N  N42  1  0.22452497  0.20443072  0.84633147  1
  N  N43  1  0.08650242  0.10718550  0.60179029  1
  N  N44  1  0.87630871  0.19293696  0.34859816  1
  N  N45  1  0.77872648  0.09535490  0.08610320  1
  N  N46  1  0.55512426  0.20422521  0.84073302  1
  N  N47  1  0.44463392  0.09307721  0.59000733  1
  N  N48  1  0.22272804  0.53935636  0.34596037  1
  N  N49  1  0.11069915  0.42732689  0.09631393  1
  N  N50  1  0.88780214  0.54115375  0.84633163  1
  N  N51  1  0.79055522  0.40313237  0.60179056  1
  N  N52  1  0.55846565  0.53827012  0.34529670  1
  N  N53  1  0.44662097  0.42502440  0.09763317  1
  N  N54  1  0.22248744  0.53911687  0.84627535  1
  N  N55  1  0.11145603  0.42808594  0.59558701  1
  N  N56  1  0.88718115  0.53741352  0.34636552  1
  N  N57  1  0.78026371  0.42322768  0.09106316  1
  N  N58  1  0.55411720  0.54103526  0.84661878  1
  N  N59  1  0.44438162  0.42865548  0.59453764  1
  N  N60  1  0.22164093  0.87509414  0.34529659  1
  N  N61  1  0.10839529  0.76324997  0.09763320  1
  N  N62  1  0.88759586  0.87175321  0.84073282  1
  N  N63  1  0.77644750  0.76126323  0.59000700  1
  N  N64  1  0.55588688  0.87251525  0.32320136  1
  N  N65  1  0.45727030  0.77389905  0.10266383  1
  N  N66  1  0.22440570  0.87074653  0.84661860  1
  N  N67  1  0.11202587  0.76101111  0.59453759  1
  N  N68  1  0.87643450  0.89980692  0.35382308  1
  N  N69  1  0.75456071  0.77448135  0.10450390  1
  N  N70  1  0.55594274  0.87257169  0.84237978  1
  N  N71  1  0.44519414  0.76182474  0.59133294  1
