# generated using pymatgen
data_Al11BN12
_symmetry_space_group_name_H-M   'P 1'
_cell_length_a   9.27213705
_cell_length_b   9.27211291
_cell_length_c   10.17003230
_cell_angle_alpha   89.91235701
_cell_angle_beta   89.91700019
_cell_angle_gamma   60.18055576
_symmetry_Int_Tables_number   1
_chemical_formula_structural   Al11BN12
_chemical_formula_sum   'Al33 B3 N36'
_cell_volume   758.57435492
_cell_formula_units_Z   3
loop_
 _symmetry_equiv_pos_site_id
 _symmetry_equiv_pos_as_xyz
  1  'x, y, z'
loop_
 _atom_site_type_symbol
 _atom_site_label
 _atom_site_symmetry_multiplicity
 _atom_site_fract_x
 _atom_site_fract_y
 _atom_site_fract_z
 _atom_site_occupancy
  Al  Al0  1  0.09925821  0.09534830  0.39556476  1
  Al  Al1  1  0.21791217  0.20046739  0.13854912  1
  Al  Al2  1  0.77925383  0.09580310  0.81341344  1
  Al  Al3  1  0.45466411  0.08418175  0.32041467  1
  Al  Al4  1  0.55738733  0.19541382  0.07136028  1
  Al  Al5  1  0.11062185  0.09759191  0.88656024  1
  Al  Al6  1  0.21370347  0.21051915  0.63947429  1
  Al  Al7  1  0.88650610  0.20303697  0.14402480  1
  Al  Al8  1  0.45294312  0.09249267  0.81793119  1
  Al  Al9  1  0.56883674  0.20624416  0.56162312  1
  Al  Al10  1  0.11002796  0.42662889  0.38981677  1
  Al  Al11  1  0.21854890  0.53507398  0.13576740  1
  Al  Al12  1  0.78104666  0.42713423  0.88657018  1
  Al  Al13  1  0.89395086  0.53028179  0.63956837  1
  Al  Al14  1  0.45368731  0.41591294  0.31956845  1
  Al  Al15  1  0.56155447  0.54443630  0.13831703  1
  Al  Al16  1  0.11125796  0.42773916  0.89125920  1
  Al  Al17  1  0.22057145  0.53711956  0.63468049  1
  Al  Al18  1  0.77881499  0.41584245  0.39554224  1
  Al  Al19  1  0.88396177  0.53442994  0.13843863  1
  Al  Al20  1  0.44971656  0.42145656  0.82492702  1
  Al  Al21  1  0.56428960  0.53837595  0.64279741  1
  Al  Al22  1  0.09937675  0.77020901  0.31958154  1
  Al  Al23  1  0.22789958  0.87808827  0.13833150  1
  Al  Al24  1  0.77592608  0.76950229  0.81803212  1
  Al  Al25  1  0.88967427  0.88536192  0.56161777  1
  Al  Al26  1  0.44009309  0.75662646  0.39393963  1
  Al  Al27  1  0.10489956  0.76626636  0.82489642  1
  Al  Al28  1  0.22183169  0.88083410  0.64278768  1
  Al  Al29  1  0.76762755  0.77121531  0.32026325  1
  Al  Al30  1  0.87889799  0.87396020  0.07134626  1
  Al  Al31  1  0.44760812  0.76416896  0.89345583  1
  Al  Al32  1  0.56020834  0.87670504  0.57328887  1
  B  B33  1  0.89193691  0.20847222  0.64675090  1
  B  B34  1  0.77435868  0.09090521  0.31050196  1
  B  B35  1  0.55636338  0.87294753  0.08397255  1
  N  N36  1  0.21678934  0.20480628  0.32951037  1
  N  N37  1  0.10367701  0.09595575  0.07427600  1
  N  N38  1  0.89628335  0.21282302  0.80988050  1
  N  N39  1  0.79017440  0.10670236  0.62684794  1
  N  N40  1  0.58224106  0.18989654  0.37090431  1
  N  N41  1  0.45795963  0.06240798  0.12633901  1
  N  N42  1  0.22024971  0.20931886  0.82899488  1
  N  N43  1  0.08614925  0.10820113  0.58587222  1
  N  N44  1  0.87719397  0.19375807  0.33054932  1
  N  N45  1  0.76966458  0.08621104  0.14871966  1
  N  N46  1  0.56282106  0.20288955  0.88484055  1
  N  N47  1  0.45075636  0.09867490  0.62587391  1
  N  N48  1  0.22015562  0.53666991  0.33312074  1
  N  N49  1  0.10840598  0.42487009  0.07852152  1
  N  N50  1  0.89277403  0.53679447  0.82909277  1
  N  N51  1  0.79165221  0.40272898  0.58587443  1
  N  N52  1  0.56128449  0.54029505  0.32968260  1
  N  N53  1  0.44885698  0.41982056  0.12504621  1
  N  N54  1  0.22047093  0.53702029  0.83379788  1
  N  N55  1  0.11102537  0.42765026  0.57539080  1
  N  N56  1  0.88826135  0.53334502  0.32939826  1
  N  N57  1  0.77940800  0.42019844  0.07426549  1
  N  N58  1  0.55953644  0.54414005  0.83287490  1
  N  N59  1  0.45075647  0.42120826  0.62623003  1
  N  N60  1  0.22374001  0.87783285  0.32969821  1
  N  N61  1  0.10329077  0.76538690  0.12506045  1
  N  N62  1  0.88636420  0.87937673  0.88484629  1
  N  N63  1  0.78212440  0.76732387  0.62598653  1
  N  N64  1  0.55667951  0.87314322  0.38699915  1
  N  N65  1  0.45636087  0.77291460  0.08490035  1
  N  N66  1  0.22758108  0.87608610  0.83286401  1
  N  N67  1  0.10466672  0.76730193  0.62619983  1
  N  N68  1  0.87334554  0.89875999  0.37088373  1
  N  N69  1  0.74587548  0.77450720  0.12623127  1
  N  N70  1  0.56098130  0.87758392  0.87686043  1
  N  N71  1  0.44209883  0.75864785  0.58254935  1
