# generated using pymatgen
data_Al11BN12
_symmetry_space_group_name_H-M   'P 1'
_cell_length_a   9.28392608
_cell_length_b   9.29230762
_cell_length_c   10.04357186
_cell_angle_alpha   89.44019063
_cell_angle_beta   89.45617418
_cell_angle_gamma   60.01337257
_symmetry_Int_Tables_number   1
_chemical_formula_structural   Al11BN12
_chemical_formula_sum   'Al33 B3 N36'
_cell_volume   750.42225234
_cell_formula_units_Z   3
loop_
 _symmetry_equiv_pos_site_id
 _symmetry_equiv_pos_as_xyz
  1  'x, y, z'
loop_
 _atom_site_type_symbol
 _atom_site_label
 _atom_site_symmetry_multiplicity
 _atom_site_fract_x
 _atom_site_fract_y
 _atom_site_fract_z
 _atom_site_occupancy
  Al  Al0  1  0.09824866  0.09570208  0.39491898  1
  Al  Al1  1  0.22274517  0.19947657  0.13956531  1
  Al  Al2  1  0.77647898  0.09513833  0.81382729  1
  Al  Al3  1  0.44742355  0.08752603  0.37486216  1
  Al  Al4  1  0.56115465  0.19714227  0.08182042  1
  Al  Al5  1  0.11003144  0.09599939  0.88425346  1
  Al  Al6  1  0.22177346  0.20578658  0.63734434  1
  Al  Al7  1  0.88899013  0.20583102  0.14281138  1
  Al  Al8  1  0.44517081  0.08624627  0.89231776  1
  Al  Al9  1  0.57248382  0.20352108  0.55928903  1
  Al  Al10  1  0.10923373  0.42545188  0.38991811  1
  Al  Al11  1  0.22030454  0.53441112  0.13672425  1
  Al  Al12  1  0.78056058  0.42648866  0.88382920  1
  Al  Al13  1  0.88940475  0.53806485  0.63708555  1
  Al  Al14  1  0.44942387  0.42486968  0.35831733  1
  Al  Al15  1  0.56053310  0.54397978  0.13793913  1
  Al  Al16  1  0.11107424  0.42692143  0.88814819  1
  Al  Al17  1  0.22599606  0.53281589  0.63344571  1
  Al  Al18  1  0.77955008  0.41490165  0.39501414  1
  Al  Al19  1  0.88247937  0.54013334  0.13929415  1
  Al  Al20  1  0.44463519  0.43047332  0.87865895  1
  Al  Al21  1  0.55987050  0.53507621  0.63739001  1
  Al  Al22  1  0.10067748  0.77016650  0.31993621  1
  Al  Al23  1  0.22886967  0.87819886  0.13704639  1
  Al  Al24  1  0.76975847  0.76180369  0.89215618  1
  Al  Al25  1  0.89075453  0.88728878  0.55965888  1
  Al  Al26  1  0.44583959  0.76203042  0.38424267  1
  Al  Al27  1  0.10310558  0.76566517  0.82179592  1
  Al  Al28  1  0.22279637  0.87924881  0.63644955  1
  Al  Al29  1  0.77171270  0.76382923  0.37616867  1
  Al  Al30  1  0.88478393  0.87660359  0.07643687  1
  Al  Al31  1  0.44682035  0.76439093  0.89131159  1
  Al  Al32  1  0.55852585  0.87388189  0.63439089  1
  B  B33  1  0.89302136  0.21020520  0.64697840  1
  B  B34  1  0.77510393  0.09146862  0.30818337  1
  B  B35  1  0.55502481  0.87062736  0.14120605  1
  N  N36  1  0.21771274  0.20375210  0.32900081  1
  N  N37  1  0.10591895  0.09684138  0.07378214  1
  N  N38  1  0.89552267  0.21216783  0.81010786  1
  N  N39  1  0.78920319  0.10596635  0.62650292  1
  N  N40  1  0.58568996  0.18966107  0.36342174  1
  N  N41  1  0.45249671  0.06579445  0.08765868  1
  N  N42  1  0.22668773  0.20480387  0.82797875  1
  N  N43  1  0.08606676  0.10900085  0.58660088  1
  N  N44  1  0.87817846  0.19515716  0.33059022  1
  N  N45  1  0.77396592  0.08784947  0.14803593  1
  N  N46  1  0.56400230  0.20098506  0.88637134  1
  N  N47  1  0.44417631  0.09255700  0.56896339  1
  N  N48  1  0.21977004  0.53514536  0.33045135  1
  N  N49  1  0.10903389  0.42565374  0.07771867  1
  N  N50  1  0.88875800  0.54360034  0.82770948  1
  N  N51  1  0.79211908  0.40270779  0.58722166  1
  N  N52  1  0.56142362  0.54019352  0.32768098  1
  N  N53  1  0.44511397  0.43035575  0.09637584  1
  N  N54  1  0.22390102  0.53434852  0.82996848  1
  N  N55  1  0.11090733  0.42694883  0.57804390  1
  N  N56  1  0.88726931  0.53462120  0.32901522  1
  N  N57  1  0.78003522  0.42269766  0.07350416  1
  N  N58  1  0.55651685  0.54268807  0.82930976  1
  N  N59  1  0.44649142  0.42881872  0.58289320  1
  N  N60  1  0.22391184  0.87777221  0.33096966  1
  N  N61  1  0.10749501  0.76484033  0.12444771  1
  N  N62  1  0.88697374  0.87955154  0.88536716  1
  N  N63  1  0.77718086  0.76026759  0.56939390  1
  N  N64  1  0.55507067  0.87042648  0.30381522  1
  N  N65  1  0.45730622  0.77297106  0.08374505  1
  N  N66  1  0.22741737  0.87419702  0.83009975  1
  N  N67  1  0.10503382  0.76535810  0.62347372  1
  N  N68  1  0.87489267  0.90197642  0.36780149  1
  N  N69  1  0.74996631  0.76972643  0.08669758  1
  N  N70  1  0.55678320  0.87319413  0.82209243  1
  N  N71  1  0.44751985  0.76208292  0.57442747  1
