# generated using pymatgen
data_Al11BN12
_symmetry_space_group_name_H-M   'P 1'
_cell_length_a   9.25418390
_cell_length_b   9.25489513
_cell_length_c   9.93955083
_cell_angle_alpha   89.86709037
_cell_angle_beta   89.76415494
_cell_angle_gamma   60.01284735
_symmetry_Int_Tables_number   1
_chemical_formula_structural   Al11BN12
_chemical_formula_sum   'Al33 B3 N36'
_cell_volume   737.32596428
_cell_formula_units_Z   3
loop_
 _symmetry_equiv_pos_site_id
 _symmetry_equiv_pos_as_xyz
  1  'x, y, z'
loop_
 _atom_site_type_symbol
 _atom_site_label
 _atom_site_symmetry_multiplicity
 _atom_site_fract_x
 _atom_site_fract_y
 _atom_site_fract_z
 _atom_site_occupancy
  Al  Al0  1  0.10296392  0.09412127  0.31424442  1
  Al  Al1  1  0.22653529  0.19963768  0.06324921  1
  Al  Al2  1  0.78028964  0.09680203  0.81457631  1
  Al  Al3  1  0.45168458  0.08807286  0.30821209  1
  Al  Al4  1  0.55926862  0.19848746  0.06627482  1
  Al  Al5  1  0.10540190  0.09730718  0.81927340  1
  Al  Al6  1  0.21860045  0.20676315  0.56219532  1
  Al  Al7  1  0.88643350  0.20425756  0.07720382  1
  Al  Al8  1  0.44706861  0.09204618  0.81759324  1
  Al  Al9  1  0.56631011  0.20450326  0.55667003  1
  Al  Al10  1  0.11049210  0.42763454  0.31142266  1
  Al  Al11  1  0.22242452  0.53888654  0.06142773  1
  Al  Al12  1  0.78080106  0.42188509  0.81475558  1
  Al  Al13  1  0.89044064  0.53552455  0.56231012  1
  Al  Al14  1  0.44997083  0.42393388  0.31120288  1
  Al  Al15  1  0.55746353  0.54251017  0.06076964  1
  Al  Al16  1  0.11148806  0.42768813  0.81187066  1
  Al  Al17  1  0.22275673  0.53911906  0.56065630  1
  Al  Al18  1  0.77678347  0.42075196  0.31420681  1
  Al  Al19  1  0.88287475  0.54262469  0.06153854  1
  Al  Al20  1  0.44555051  0.42607380  0.81145412  1
  Al  Al21  1  0.55920967  0.53495516  0.56251178  1
  Al  Al22  1  0.10695952  0.76656357  0.31168495  1
  Al  Al23  1  0.22644043  0.87302407  0.06261094  1
  Al  Al24  1  0.77557848  0.76374678  0.81758955  1
  Al  Al25  1  0.88797035  0.88276392  0.55677642  1
  Al  Al26  1  0.44709993  0.76356177  0.30853079  1
  Al  Al27  1  0.10972686  0.76206457  0.81169849  1
  Al  Al28  1  0.21794683  0.87643035  0.56254263  1
  Al  Al29  1  0.77165482  0.76800199  0.30785515  1
  Al  Al30  1  0.88210516  0.87575563  0.06656038  1
  Al  Al31  1  0.44608989  0.76288531  0.81777804  1
  Al  Al32  1  0.55639877  0.87303646  0.56240143  1
  B  B33  1  0.88892011  0.20457423  0.58821504  1
  B  B34  1  0.77857301  0.09616720  0.30702546  1
  B  B35  1  0.55568290  0.87187204  0.05898778  1
  N  N36  1  0.22352937  0.20345649  0.37034199  1
  N  N37  1  0.11291760  0.09285298  0.12287285  1
  N  N38  1  0.88678265  0.20528000  0.88444859  1
  N  N39  1  0.79301638  0.10949764  0.62150903  1
  N  N40  1  0.57873585  0.19242061  0.36300145  1
  N  N41  1  0.45704453  0.06867259  0.11454785  1
  N  N42  1  0.22225880  0.20514145  0.87143872  1
  N  N43  1  0.08264535  0.10937989  0.61882897  1
  N  N44  1  0.87367719  0.19147192  0.35549216  1
  N  N45  1  0.77548223  0.09236580  0.14154644  1
  N  N46  1  0.55836253  0.20418055  0.87399001  1
  N  N47  1  0.44700491  0.09525499  0.62360352  1
  N  N48  1  0.22243846  0.53908748  0.36998138  1
  N  N49  1  0.11021868  0.42756724  0.12026292  1
  N  N50  1  0.88814679  0.53844927  0.86975644  1
  N  N51  1  0.79284627  0.39916872  0.61792021  1
  N  N52  1  0.55396758  0.54161141  0.37207223  1
  N  N53  1  0.44545760  0.42735971  0.12021740  1
  N  N54  1  0.22248414  0.53912047  0.87037052  1
  N  N55  1  0.11168965  0.42808213  0.62135565  1
  N  N56  1  0.88649774  0.54054980  0.37082113  1
  N  N57  1  0.77586085  0.43036428  0.12333698  1
  N  N58  1  0.55675020  0.53797634  0.86938994  1
  N  N59  1  0.44575631  0.42569963  0.61967684  1
  N  N60  1  0.22448134  0.87118856  0.37170545  1
  N  N61  1  0.11056424  0.76163899  0.12092826  1
  N  N62  1  0.88769765  0.87510956  0.87424180  1
  N  N63  1  0.77841400  0.76397923  0.62372320  1
  N  N64  1  0.55536179  0.87189524  0.37498501  1
  N  N65  1  0.45709039  0.77291496  0.11398571  1
  N  N66  1  0.22161532  0.87261908  0.87122681  1
  N  N67  1  0.10919851  0.76238093  0.61978243  1
  N  N68  1  0.87529778  0.89566545  0.36313057  1
  N  N69  1  0.75246150  0.77309551  0.11396406  1
  N  N70  1  0.55571539  0.87233026  0.89237685  1
  N  N71  1  0.44524412  0.76243163  0.62554420  1
