# generated using pymatgen
data_Al11BN12
_symmetry_space_group_name_H-M   'P 1'
_cell_length_a   9.25163775
_cell_length_b   9.25215538
_cell_length_c   9.93164549
_cell_angle_alpha   89.90041927
_cell_angle_beta   89.82158216
_cell_angle_gamma   60.01674964
_symmetry_Int_Tables_number   1
_chemical_formula_structural   Al11BN12
_chemical_formula_sum   'Al33 B3 N36'
_cell_volume   736.35041886
_cell_formula_units_Z   3
loop_
 _symmetry_equiv_pos_site_id
 _symmetry_equiv_pos_as_xyz
  1  'x, y, z'
loop_
 _atom_site_type_symbol
 _atom_site_label
 _atom_site_symmetry_multiplicity
 _atom_site_fract_x
 _atom_site_fract_y
 _atom_site_fract_z
 _atom_site_occupancy
  Al  Al0  1  0.10338351  0.09411528  0.31531778  1
  Al  Al1  1  0.22606550  0.19947090  0.06269585  1
  Al  Al2  1  0.78032230  0.09684953  0.81358944  1
  Al  Al3  1  0.45155200  0.08809279  0.30821331  1
  Al  Al4  1  0.55979837  0.19861732  0.06703708  1
  Al  Al5  1  0.10516152  0.09738407  0.81502225  1
  Al  Al6  1  0.21871792  0.20660434  0.56226176  1
  Al  Al7  1  0.88708873  0.20428225  0.07422312  1
  Al  Al8  1  0.44707453  0.09210214  0.81793146  1
  Al  Al9  1  0.56593838  0.20426137  0.55708690  1
  Al  Al10  1  0.11059828  0.42751545  0.31133382  1
  Al  Al11  1  0.22239845  0.53892386  0.06151986  1
  Al  Al12  1  0.78086741  0.42167082  0.81315617  1
  Al  Al13  1  0.89014915  0.53551898  0.56229679  1
  Al  Al14  1  0.44983156  0.42404254  0.31139941  1
  Al  Al15  1  0.55770748  0.54229794  0.06114663  1
  Al  Al16  1  0.11133790  0.42764741  0.81199745  1
  Al  Al17  1  0.22259000  0.53907319  0.56087385  1
  Al  Al18  1  0.77708128  0.42067517  0.31536785  1
  Al  Al19  1  0.88284184  0.54244210  0.06182746  1
  Al  Al20  1  0.44565804  0.42602486  0.81170599  1
  Al  Al21  1  0.55911579  0.53509436  0.56247120  1
  Al  Al22  1  0.10717794  0.76649618  0.31171701  1
  Al  Al23  1  0.22589044  0.87387184  0.06209592  1
  Al  Al24  1  0.77559199  0.76373393  0.81792946  1
  Al  Al25  1  0.88767210  0.88247899  0.55716130  1
  Al  Al26  1  0.44697263  0.76362248  0.30839593  1
  Al  Al27  1  0.10959787  0.76220352  0.81188076  1
  Al  Al28  1  0.21822896  0.87609566  0.56253086  1
  Al  Al29  1  0.77152411  0.76809183  0.30798300  1
  Al  Al30  1  0.88215115  0.87635983  0.06721104  1
  Al  Al31  1  0.44607922  0.76282797  0.81797175  1
  Al  Al32  1  0.55632137  0.87296923  0.56265096  1
  B  B33  1  0.88760710  0.20389005  0.57934201  1
  B  B34  1  0.77858357  0.09577103  0.30948164  1
  B  B35  1  0.55559921  0.87203053  0.05890153  1
  N  N36  1  0.22386504  0.20355236  0.37044979  1
  N  N37  1  0.11192299  0.09347029  0.12417163  1
  N  N38  1  0.88753031  0.20500727  0.88281414  1
  N  N39  1  0.79226036  0.10886434  0.62094015  1
  N  N40  1  0.57896430  0.19230522  0.36323953  1
  N  N41  1  0.45697198  0.06887648  0.11443673  1
  N  N42  1  0.22186405  0.20468460  0.87081298  1
  N  N43  1  0.08300272  0.10888865  0.61736258  1
  N  N44  1  0.87449257  0.19173851  0.36515737  1
  N  N45  1  0.77683487  0.09364596  0.14338187  1
  N  N46  1  0.55874974  0.20408376  0.87454064  1
  N  N47  1  0.44694100  0.09516447  0.62387916  1
  N  N48  1  0.22239325  0.53909226  0.37001070  1
  N  N49  1  0.11035193  0.42733222  0.12007660  1
  N  N50  1  0.88792897  0.53830587  0.86993964  1
  N  N51  1  0.79226691  0.39962733  0.61657641  1
  N  N52  1  0.55389066  0.54168628  0.37183401  1
  N  N53  1  0.44541311  0.42746894  0.12045551  1
  N  N54  1  0.22249564  0.53912367  0.87047401  1
  N  N55  1  0.11153380  0.42805436  0.62140618  1
  N  N56  1  0.88669141  0.54084754  0.37064997  1
  N  N57  1  0.77660883  0.42902628  0.12429754  1
  N  N58  1  0.55713334  0.53777370  0.86965651  1
  N  N59  1  0.44566563  0.42569794  0.61977523  1
  N  N60  1  0.22465619  0.87098536  0.37171167  1
  N  N61  1  0.11075125  0.76182731  0.12087862  1
  N  N62  1  0.88754099  0.87545996  0.87470127  1
  N  N63  1  0.77837327  0.76380402  0.62394856  1
  N  N64  1  0.55529360  0.87195340  0.37506646  1
  N  N65  1  0.45687826  0.77316433  0.11377709  1
  N  N66  1  0.22122414  0.87346757  0.87063165  1
  N  N67  1  0.10910182  0.76232583  0.61985456  1
  N  N68  1  0.87530670  0.89584557  0.36332104  1
  N  N69  1  0.75245528  0.77333874  0.11410612  1
  N  N70  1  0.55573459  0.87235443  0.89252066  1
  N  N71  1  0.44530611  0.76230030  0.62566893  1
