# generated using pymatgen
data_Al11BN12
_symmetry_space_group_name_H-M   'P 1'
_cell_length_a   9.28280363
_cell_length_b   9.28405317
_cell_length_c   9.95330071
_cell_angle_alpha   89.86262497
_cell_angle_beta   89.60419768
_cell_angle_gamma   60.05162691
_symmetry_Int_Tables_number   1
_chemical_formula_structural   Al11BN12
_chemical_formula_sum   'Al33 B3 N36'
_cell_volume   743.24081999
_cell_formula_units_Z   3
loop_
 _symmetry_equiv_pos_site_id
 _symmetry_equiv_pos_as_xyz
  1  'x, y, z'
loop_
 _atom_site_type_symbol
 _atom_site_label
 _atom_site_symmetry_multiplicity
 _atom_site_fract_x
 _atom_site_fract_y
 _atom_site_fract_z
 _atom_site_occupancy
  Al  Al0  1  0.09390065  0.10098385  0.36779301  1
  Al  Al1  1  0.22822154  0.19923127  0.10061352  1
  Al  Al2  1  0.78088065  0.09726987  0.81438205  1
  Al  Al3  1  0.45621226  0.08623606  0.31091289  1
  Al  Al4  1  0.55809124  0.19807233  0.06334334  1
  Al  Al5  1  0.10820608  0.09828207  0.88532502  1
  Al  Al6  1  0.21954953  0.20623048  0.58941920  1
  Al  Al7  1  0.88161808  0.20498554  0.09057437  1
  Al  Al8  1  0.44834004  0.09080821  0.81686744  1
  Al  Al9  1  0.56801749  0.20512755  0.55528515  1
  Al  Al10  1  0.10924902  0.43163272  0.31368908  1
  Al  Al11  1  0.22247135  0.53810056  0.06011989  1
  Al  Al12  1  0.78131549  0.42084358  0.81540759  1
  Al  Al13  1  0.89003019  0.53619636  0.56119602  1
  Al  Al14  1  0.45008490  0.42433869  0.31019750  1
  Al  Al15  1  0.55765785  0.54195818  0.05851191  1
  Al  Al16  1  0.10963128  0.43053675  0.81052713  1
  Al  Al17  1  0.22348236  0.53995330  0.55915722  1
  Al  Al18  1  0.77453662  0.42447701  0.31033589  1
  Al  Al19  1  0.88219419  0.54308282  0.05954099  1
  Al  Al20  1  0.44518584  0.42590119  0.81083890  1
  Al  Al21  1  0.55999820  0.53417633  0.56214135  1
  Al  Al22  1  0.10658065  0.76795979  0.31042037  1
  Al  Al23  1  0.23138846  0.86341723  0.06468760  1
  Al  Al24  1  0.77534525  0.76390507  0.81668251  1
  Al  Al25  1  0.88862088  0.88278242  0.55609744  1
  Al  Al26  1  0.44738713  0.76389840  0.30796506  1
  Al  Al27  1  0.10970134  0.76225713  0.81102467  1
  Al  Al28  1  0.22136045  0.87099094  0.56357117  1
  Al  Al29  1  0.77252838  0.76781757  0.30650740  1
  Al  Al30  1  0.88190497  0.87445426  0.06414501  1
  Al  Al31  1  0.44599413  0.76291711  0.81699975  1
  Al  Al32  1  0.55861982  0.87167498  0.56117084  1
  B  B33  1  0.88949753  0.20584740  0.59456085  1
  B  B34  1  0.77659141  0.09617206  0.30075144  1
  B  B35  1  0.55682664  0.87060334  0.05824600  1
  N  N36  1  0.22534641  0.20434691  0.35428134  1
  N  N37  1  0.11311305  0.09080185  0.08635092  1
  N  N38  1  0.87948919  0.20868140  0.88605466  1
  N  N39  1  0.79469460  0.11062294  0.61996743  1
  N  N40  1  0.57991992  0.19318462  0.36205102  1
  N  N41  1  0.46036258  0.06607497  0.11550851  1
  N  N42  1  0.22177521  0.20549179  0.84443085  1
  N  N43  1  0.07735699  0.11198442  0.57677859  1
  N  N44  1  0.87075566  0.19385989  0.33049961  1
  N  N45  1  0.77124137  0.08842825  0.13805195  1
  N  N46  1  0.55783767  0.20397335  0.87216496  1
  N  N47  1  0.45359764  0.09261812  0.62088775  1
  N  N48  1  0.22287135  0.54100357  0.36918980  1
  N  N49  1  0.10753478  0.43129574  0.12077930  1
  N  N50  1  0.88729086  0.53927145  0.86849068  1
  N  N51  1  0.79402970  0.39811640  0.61773624  1
  N  N52  1  0.55387833  0.54189821  0.37182687  1
  N  N53  1  0.44533735  0.42680255  0.11902046  1
  N  N54  1  0.22204304  0.53937372  0.86967282  1
  N  N55  1  0.10945395  0.43344462  0.61860661  1
  N  N56  1  0.88537503  0.54106512  0.37035737  1
  N  N57  1  0.77364338  0.43425261  0.12099721  1
  N  N58  1  0.55628898  0.53819682  0.86762383  1
  N  N59  1  0.44582536  0.42579092  0.61872578  1
  N  N60  1  0.22617689  0.86881619  0.37026636  1
  N  N61  1  0.10958197  0.76016264  0.12055915  1
  N  N62  1  0.88753056  0.87503743  0.87235040  1
  N  N63  1  0.77907953  0.76378066  0.62293960  1
  N  N64  1  0.55708620  0.87022394  0.37436784  1
  N  N65  1  0.45862003  0.77123725  0.11422479  1
  N  N66  1  0.22417309  0.86684883  0.87069787  1
  N  N67  1  0.10908161  0.76230036  0.61954606  1
  N  N68  1  0.87545370  0.89616130  0.36231895  1
  N  N69  1  0.75290047  0.77218860  0.11288489  1
  N  N70  1  0.55576127  0.87192725  0.89223362  1
  N  N71  1  0.44694361  0.76190778  0.62480050  1
