# generated using pymatgen
data_Al11BN12
_symmetry_space_group_name_H-M   'P 1'
_cell_length_a   9.27357888
_cell_length_b   9.27358216
_cell_length_c   10.15227948
_cell_angle_alpha   89.79138746
_cell_angle_beta   89.79108098
_cell_angle_gamma   60.15975634
_symmetry_Int_Tables_number   1
_chemical_formula_structural   Al11BN12
_chemical_formula_sum   'Al33 B3 N36'
_cell_volume   757.32470426
_cell_formula_units_Z   3
loop_
 _symmetry_equiv_pos_site_id
 _symmetry_equiv_pos_as_xyz
  1  'x, y, z'
loop_
 _atom_site_type_symbol
 _atom_site_label
 _atom_site_symmetry_multiplicity
 _atom_site_fract_x
 _atom_site_fract_y
 _atom_site_fract_z
 _atom_site_occupancy
  Al  Al0  1  0.09938488  0.09607860  0.39511128  1
  Al  Al1  1  0.21820209  0.20068144  0.13573542  1
  Al  Al2  1  0.77996687  0.09650891  0.81290516  1
  Al  Al3  1  0.45523883  0.08300840  0.31379670  1
  Al  Al4  1  0.55748844  0.19779395  0.07158190  1
  Al  Al5  1  0.11010414  0.09703217  0.88682284  1
  Al  Al6  1  0.21497665  0.20961300  0.64184832  1
  Al  Al7  1  0.88640687  0.20295039  0.14475041  1
  Al  Al8  1  0.45318038  0.09202909  0.82489281  1
  Al  Al9  1  0.56898397  0.20387664  0.56243335  1
  Al  Al10  1  0.10913347  0.42567513  0.38924464  1
  Al  Al11  1  0.21863495  0.53517760  0.13753406  1
  Al  Al12  1  0.78049126  0.42664758  0.88682239  1
  Al  Al13  1  0.89307420  0.53151498  0.64184357  1
  Al  Al14  1  0.45349671  0.41508143  0.32166398  1
  Al  Al15  1  0.56073174  0.54475863  0.13972329  1
  Al  Al16  1  0.11197994  0.42852537  0.89180651  1
  Al  Al17  1  0.22057395  0.53711559  0.63115956  1
  Al  Al18  1  0.77953528  0.41592668  0.39511213  1
  Al  Al19  1  0.88413751  0.53474599  0.13574128  1
  Al  Al20  1  0.44978257  0.42181689  0.82213341  1
  Al  Al21  1  0.56469386  0.53823305  0.63973670  1
  Al  Al22  1  0.09853505  0.77004338  0.32166197  1
  Al  Al23  1  0.22821425  0.87727512  0.13972224  1
  Al  Al24  1  0.77548643  0.76972304  0.82488618  1
  Al  Al25  1  0.88733524  0.88552657  0.56243293  1
  Al  Al26  1  0.44016934  0.75671321  0.39207056  1
  Al  Al27  1  0.10527380  0.76632489  0.82213480  1
  Al  Al28  1  0.22169107  0.88123444  0.63973694  1
  Al  Al29  1  0.76646232  0.77178499  0.31380202  1
  Al  Al30  1  0.88124797  0.87403070  0.07158220  1
  Al  Al31  1  0.44460309  0.76114494  0.89565212  1
  Al  Al32  1  0.56050004  0.87704462  0.56909029  1
  B  B33  1  0.89265339  0.20919459  0.64616018  1
  B  B34  1  0.77364641  0.09019109  0.31113022  1
  B  B35  1  0.55864922  0.87519037  0.06271330  1
  N  N36  1  0.21725068  0.20425691  0.32769154  1
  N  N37  1  0.10343539  0.09511933  0.07435450  1
  N  N38  1  0.89674772  0.21328946  0.80941923  1
  N  N39  1  0.79054986  0.10709209  0.62643939  1
  N  N40  1  0.58135229  0.18815815  0.37132436  1
  N  N41  1  0.45703150  0.06574467  0.12123881  1
  N  N42  1  0.22058632  0.20903113  0.83161552  1
  N  N43  1  0.08671686  0.10915502  0.58573171  1
  N  N44  1  0.87688768  0.19343020  0.33141303  1
  N  N45  1  0.76969580  0.08623943  0.14918364  1
  N  N46  1  0.56384758  0.20428417  0.88457811  1
  N  N47  1  0.45355390  0.09403815  0.63248977  1
  N  N48  1  0.21993478  0.53648179  0.33575126  1
  N  N49  1  0.10901753  0.42556341  0.07843715  1
  N  N50  1  0.89248906  0.53712920  0.83161039  1
  N  N51  1  0.79261468  0.40325598  0.58573137  1
  N  N52  1  0.56129696  0.53928543  0.33131442  1
  N  N53  1  0.44855136  0.42030056  0.12685869  1
  N  N54  1  0.22075647  0.53729887  0.83171035  1
  N  N55  1  0.11033224  0.42686813  0.57598282  1
  N  N56  1  0.88771221  0.53379620  0.32769745  1
  N  N57  1  0.77857724  0.41997935  0.07435525  1
  N  N58  1  0.56004165  0.54464720  0.82983458  1
  N  N59  1  0.45099133  0.42065945  0.62370344  1
  N  N60  1  0.22274223  0.87783977  0.33131341  1
  N  N61  1  0.10375600  0.76509454  0.12685704  1
  N  N62  1  0.88773946  0.88038985  0.88457758  1
  N  N63  1  0.77749700  0.77009316  0.63248328  1
  N  N64  1  0.55672901  0.87327867  0.38374058  1
  N  N65  1  0.45364125  0.77018448  0.08390220  1
  N  N66  1  0.22810556  0.87658260  0.82983487  1
  N  N67  1  0.10411653  0.76753296  0.62370456  1
  N  N68  1  0.87161293  0.89789856  0.37132475  1
  N  N69  1  0.74919982  0.77357475  0.12124355  1
  N  N70  1  0.56227431  0.87881391  0.90065625  1
  N  N71  1  0.44275100  0.75929256  0.58121363  1
