# generated using pymatgen
data_Al11BN12
_symmetry_space_group_name_H-M   'P 1'
_cell_length_a   9.26573330
_cell_length_b   9.27185924
_cell_length_c   9.94632302
_cell_angle_alpha   89.72095615
_cell_angle_beta   89.56475262
_cell_angle_gamma   59.95437905
_symmetry_Int_Tables_number   1
_chemical_formula_structural   Al11BN12
_chemical_formula_sum   'Al33 B3 N36'
_cell_volume   739.65146878
_cell_formula_units_Z   3
loop_
 _symmetry_equiv_pos_site_id
 _symmetry_equiv_pos_as_xyz
  1  'x, y, z'
loop_
 _atom_site_type_symbol
 _atom_site_label
 _atom_site_symmetry_multiplicity
 _atom_site_fract_x
 _atom_site_fract_y
 _atom_site_fract_z
 _atom_site_occupancy
  Al  Al0  1  0.09926461  0.09456851  0.40525245  1
  Al  Al1  1  0.22481368  0.20025715  0.15083030  1
  Al  Al2  1  0.78207061  0.09556505  0.87301697  1
  Al  Al3  1  0.45177150  0.08998617  0.39037085  1
  Al  Al4  1  0.56168703  0.19849663  0.11377803  1
  Al  Al5  1  0.10983799  0.09642866  0.89599898  1
  Al  Al6  1  0.21889106  0.20573022  0.64809431  1
  Al  Al7  1  0.88702016  0.20326252  0.14518416  1
  Al  Al8  1  0.44418896  0.08788090  0.90003132  1
  Al  Al9  1  0.56450297  0.20400866  0.63744344  1
  Al  Al10  1  0.11021824  0.42714603  0.40077810  1
  Al  Al11  1  0.22178457  0.53906524  0.15106596  1
  Al  Al12  1  0.77967137  0.42722070  0.89541749  1
  Al  Al13  1  0.88880289  0.53622801  0.64887959  1
  Al  Al14  1  0.45105255  0.42352013  0.39685461  1
  Al  Al15  1  0.55915410  0.54276860  0.15017751  1
  Al  Al16  1  0.11129875  0.42821142  0.89875389  1
  Al  Al17  1  0.22219610  0.53949723  0.64819579  1
  Al  Al18  1  0.77784179  0.41630352  0.40512673  1
  Al  Al19  1  0.88403883  0.54114443  0.15050257  1
  Al  Al20  1  0.44163563  0.43249781  0.89759154  1
  Al  Al21  1  0.55960116  0.53508113  0.64904101  1
  Al  Al22  1  0.10601132  0.76819476  0.39839075  1
  Al  Al23  1  0.22556546  0.87529848  0.15002419  1
  Al  Al24  1  0.77316994  0.76345975  0.90373350  1
  Al  Al25  1  0.89019271  0.87655915  0.64953067  1
  Al  Al26  1  0.44532144  0.76284489  0.39413403  1
  Al  Al27  1  0.11069143  0.76109862  0.90118861  1
  Al  Al28  1  0.21804789  0.87576936  0.64973541  1
  Al  Al29  1  0.77277880  0.76793605  0.39208759  1
  Al  Al30  1  0.88118405  0.87948476  0.14397881  1
  Al  Al31  1  0.44695786  0.76366835  0.90294149  1
  Al  Al32  1  0.55658330  0.87213061  0.64706305  1
  B  B33  1  0.88934108  0.20429200  0.65929328  1
  B  B34  1  0.77477546  0.09601363  0.35888177  1
  B  B35  1  0.55575128  0.87141520  0.15310926  1
  N  N36  1  0.21981859  0.20342665  0.34215914  1
  N  N37  1  0.10968484  0.09607626  0.08800778  1
  N  N38  1  0.89463276  0.21136233  0.82310674  1
  N  N39  1  0.79421972  0.10725970  0.62858793  1
  N  N40  1  0.58657135  0.19006449  0.34927565  1
  N  N41  1  0.45598527  0.06812692  0.09663130  1
  N  N42  1  0.22400606  0.20517685  0.83967257  1
  N  N43  1  0.08703524  0.10665340  0.59769568  1
  N  N44  1  0.87290216  0.18984949  0.33898955  1
  N  N45  1  0.78528524  0.09318198  0.07214126  1
  N  N46  1  0.54927086  0.20757904  0.85254363  1
  N  N47  1  0.44603484  0.09331602  0.58384880  1
  N  N48  1  0.22183784  0.53932541  0.34113831  1
  N  N49  1  0.11172026  0.42710052  0.09086843  1
  N  N50  1  0.88805039  0.54237863  0.84092470  1
  N  N51  1  0.79066890  0.40332238  0.59754366  1
  N  N52  1  0.55829628  0.53848764  0.34037709  1
  N  N53  1  0.44430995  0.43183657  0.09087460  1
  N  N54  1  0.22134889  0.54073961  0.83919003  1
  N  N55  1  0.11146061  0.42812790  0.59050697  1
  N  N56  1  0.88673032  0.53660781  0.34202146  1
  N  N57  1  0.77988371  0.42551245  0.08759699  1
  N  N58  1  0.55512152  0.54182197  0.84057558  1
  N  N59  1  0.44484920  0.42864246  0.58809903  1
  N  N60  1  0.22101438  0.87494313  0.34053900  1
  N  N61  1  0.11088089  0.76215295  0.09333179  1
  N  N62  1  0.89141706  0.86462896  0.84168705  1
  N  N63  1  0.77810064  0.76304492  0.58371362  1
  N  N64  1  0.55510631  0.87172913  0.31725405  1
  N  N65  1  0.45749341  0.77352630  0.09726978  1
  N  N66  1  0.22402261  0.87135112  0.84200208  1
  N  N67  1  0.11131778  0.76158426  0.58788173  1
  N  N68  1  0.87313179  0.90259665  0.34004378  1
  N  N69  1  0.75356818  0.77356158  0.09897347  1
  N  N70  1  0.55656287  0.87103988  0.83553260  1
  N  N71  1  0.44529410  0.76197493  0.58612414  1
