# generated using pymatgen
data_Al11BN12
_symmetry_space_group_name_H-M   'P 1'
_cell_length_a   9.27033070
_cell_length_b   9.27119492
_cell_length_c   9.94666946
_cell_angle_alpha   89.82864266
_cell_angle_beta   89.64140395
_cell_angle_gamma   60.00736493
_symmetry_Int_Tables_number   1
_chemical_formula_structural   Al11BN12
_chemical_formula_sum   'Al33 B3 N36'
_cell_volume   740.39413707
_cell_formula_units_Z   3
loop_
 _symmetry_equiv_pos_site_id
 _symmetry_equiv_pos_as_xyz
  1  'x, y, z'
loop_
 _atom_site_type_symbol
 _atom_site_label
 _atom_site_symmetry_multiplicity
 _atom_site_fract_x
 _atom_site_fract_y
 _atom_site_fract_z
 _atom_site_occupancy
  Al  Al0  1  0.10042823  0.09577445  0.32744316  1
  Al  Al1  1  0.22971094  0.20192622  0.06716854  1
  Al  Al2  1  0.78047771  0.09693274  0.81438040  1
  Al  Al3  1  0.45293681  0.08767243  0.30803958  1
  Al  Al4  1  0.55866919  0.19813439  0.06423008  1
  Al  Al5  1  0.10625068  0.09683900  0.86301965  1
  Al  Al6  1  0.21825278  0.20717605  0.56206774  1
  Al  Al7  1  0.88236146  0.20533834  0.08845683  1
  Al  Al8  1  0.44732858  0.09179672  0.81651825  1
  Al  Al9  1  0.56708275  0.20471789  0.55616612  1
  Al  Al10  1  0.11038664  0.42875455  0.31146389  1
  Al  Al11  1  0.22255216  0.53867036  0.06081851  1
  Al  Al12  1  0.78090576  0.42171998  0.81522734  1
  Al  Al13  1  0.89080668  0.53519434  0.56234059  1
  Al  Al14  1  0.45009367  0.42391615  0.31082225  1
  Al  Al15  1  0.55765230  0.54239231  0.05939187  1
  Al  Al16  1  0.11140834  0.42803944  0.81115346  1
  Al  Al17  1  0.22310169  0.53912015  0.56037999  1
  Al  Al18  1  0.77503958  0.42348455  0.31212807  1
  Al  Al19  1  0.88281556  0.54295360  0.06059916  1
  Al  Al20  1  0.44546365  0.42606973  0.81089346  1
  Al  Al21  1  0.55964363  0.53448833  0.56255985  1
  Al  Al22  1  0.10650615  0.76622924  0.31140615  1
  Al  Al23  1  0.22988763  0.86691132  0.06633562  1
  Al  Al24  1  0.77563873  0.76367198  0.81693658  1
  Al  Al25  1  0.88839795  0.88324264  0.55638685  1
  Al  Al26  1  0.44803614  0.76314636  0.30847151  1
  Al  Al27  1  0.10965811  0.76180378  0.81095719  1
  Al  Al28  1  0.21765041  0.87657728  0.56265362  1
  Al  Al29  1  0.77203374  0.76797805  0.30746284  1
  Al  Al30  1  0.88192862  0.87460161  0.06499863  1
  Al  Al31  1  0.44643197  0.76274394  0.81691908  1
  Al  Al32  1  0.55675657  0.87295396  0.56203864  1
  B  B33  1  0.89264030  0.20419052  0.59562528  1
  B  B34  1  0.77651760  0.09616900  0.30243276  1
  B  B35  1  0.55628616  0.87135440  0.05878032  1
  N  N36  1  0.22495154  0.20451809  0.36822643  1
  N  N37  1  0.11420769  0.09191106  0.10948742  1
  N  N38  1  0.88080278  0.20808730  0.88839475  1
  N  N39  1  0.79407307  0.11038107  0.62095438  1
  N  N40  1  0.57869007  0.19255923  0.36241996  1
  N  N41  1  0.45823001  0.06788194  0.11494011  1
  N  N42  1  0.22438594  0.20763009  0.87349020  1
  N  N43  1  0.07977521  0.11123690  0.59769574  1
  N  N44  1  0.87044802  0.19335010  0.33624806  1
  N  N45  1  0.77214490  0.08908860  0.13884965  1
  N  N46  1  0.55792814  0.20407742  0.87249733  1
  N  N47  1  0.44723458  0.09525033  0.62282200  1
  N  N48  1  0.22260397  0.53928155  0.36988782  1
  N  N49  1  0.10952586  0.42907613  0.12074141  1
  N  N50  1  0.88836443  0.53840147  0.86902149  1
  N  N51  1  0.79338691  0.39877983  0.61855602  1
  N  N52  1  0.55372370  0.54169515  0.37223620  1
  N  N53  1  0.44563244  0.42707146  0.11948576  1
  N  N54  1  0.22232953  0.53914641  0.86989909  1
  N  N55  1  0.11190611  0.42832086  0.62104626  1
  N  N56  1  0.88647060  0.54037561  0.37082601  1
  N  N57  1  0.77406262  0.43396196  0.12204731  1
  N  N58  1  0.55635847  0.53825370  0.86835736  1
  N  N59  1  0.44581957  0.42568407  0.61918834  1
  N  N60  1  0.22548295  0.86923218  0.36986361  1
  N  N61  1  0.10975699  0.76056305  0.12110294  1
  N  N62  1  0.88782950  0.87490763  0.87308260  1
  N  N63  1  0.77856609  0.76410061  0.62322071  1
  N  N64  1  0.55572274  0.87172033  0.37468463  1
  N  N65  1  0.45858995  0.77170573  0.11445700  1
  N  N66  1  0.22374744  0.86800311  0.87320127  1
  N  N67  1  0.10938259  0.76218110  0.61953060  1
  N  N68  1  0.87525618  0.89579652  0.36270031  1
  N  N69  1  0.75264381  0.77256461  0.11339919  1
  N  N70  1  0.55552102  0.87235184  0.89202524  1
  N  N71  1  0.44537896  0.76246207  0.62499306  1
