# generated using pymatgen
data_Al11BN12
_symmetry_space_group_name_H-M   'P 1'
_cell_length_a   9.25676974
_cell_length_b   9.25676903
_cell_length_c   9.88915729
_cell_angle_alpha   90.07596120
_cell_angle_beta   90.07596300
_cell_angle_gamma   60.02532989
_symmetry_Int_Tables_number   1
_chemical_formula_structural   Al11BN12
_chemical_formula_sum   'Al33 B3 N36'
_cell_volume   734.03892182
_cell_formula_units_Z   3
loop_
 _symmetry_equiv_pos_site_id
 _symmetry_equiv_pos_as_xyz
  1  'x, y, z'
loop_
 _atom_site_type_symbol
 _atom_site_label
 _atom_site_symmetry_multiplicity
 _atom_site_fract_x
 _atom_site_fract_y
 _atom_site_fract_z
 _atom_site_occupancy
  Al  Al0  1  0.10516623  0.09434623  0.30729484  1
  Al  Al1  1  0.22515043  0.19935010  0.05037108  1
  Al  Al2  1  0.78047605  0.09714856  0.79788609  1
  Al  Al3  1  0.45186499  0.08780741  0.29597579  1
  Al  Al4  1  0.56140710  0.19889889  0.05655316  1
  Al  Al5  1  0.10418519  0.09754047  0.79548963  1
  Al  Al6  1  0.21892643  0.20594230  0.55021521  1
  Al  Al7  1  0.88806833  0.20474141  0.05807725  1
  Al  Al8  1  0.44684843  0.09223777  0.80705430  1
  Al  Al9  1  0.56416825  0.20334650  0.54630115  1
  Al  Al10  1  0.11118806  0.42785984  0.29890413  1
  Al  Al11  1  0.22245979  0.53913278  0.04955516  1
  Al  Al12  1  0.78086740  0.42085829  0.79548945  1
  Al  Al13  1  0.88926813  0.53560040  0.55021531  1
  Al  Al14  1  0.44959564  0.42429295  0.29978203  1
  Al  Al15  1  0.55908045  0.54143366  0.04996493  1
  Al  Al16  1  0.11068667  0.42735903  0.80043682  1
  Al  Al17  1  0.22191105  0.53858471  0.54970427  1
  Al  Al18  1  0.77767305  0.42183949  0.30729496  1
  Al  Al19  1  0.88267775  0.54182235  0.05037089  1
  Al  Al20  1  0.44591138  0.42575945  0.80044647  1
  Al  Al21  1  0.55795777  0.53564471  0.55027665  1
  Al  Al22  1  0.10761954  0.76626841  0.29978184  1
  Al  Al23  1  0.22476073  0.87575372  0.04996514  1
  Al  Al24  1  0.77556440  0.76352145  0.80705463  1
  Al  Al25  1  0.88667354  0.88084097  0.54630114  1
  Al  Al26  1  0.44699859  0.76367235  0.29570476  1
  Al  Al27  1  0.10908601  0.76258486  0.80044670  1
  Al  Al28  1  0.21897005  0.87463251  0.55027651  1
  Al  Al29  1  0.77113533  0.76853675  0.29597559  1
  Al  Al30  1  0.88222565  0.87807988  0.05655327  1
  Al  Al31  1  0.44581485  0.76248908  0.80672850  1
  Al  Al32  1  0.55577485  0.87244794  0.55160305  1
  B  B33  1  0.88420929  0.20088296  0.54377537  1
  B  B34  1  0.77703528  0.09370840  0.30237490  1
  B  B35  1  0.55574986  0.87242269  0.04612984  1
  N  N36  1  0.22567067  0.20443558  0.35790380  1
  N  N37  1  0.10988747  0.09511863  0.11534273  1
  N  N38  1  0.88829983  0.20497298  0.86707210  1
  N  N39  1  0.79040577  0.10707870  0.60531789  1
  N  N40  1  0.57964005  0.19185115  0.35168528  1
  N  N41  1  0.45733639  0.06935973  0.10179617  1
  N  N42  1  0.22091135  0.20373542  0.85769849  1
  N  N43  1  0.08467879  0.10682170  0.59911895  1
  N  N44  1  0.87674148  0.19341470  0.37330907  1
  N  N45  1  0.77947619  0.09614905  0.13590800  1
  N  N46  1  0.56016265  0.20356536  0.86311515  1
  N  N47  1  0.44644691  0.09460064  0.61253587  1
  N  N48  1  0.22264619  0.53931908  0.35794405  1
  N  N49  1  0.11066132  0.42733374  0.10719250  1
  N  N50  1  0.88706279  0.53758400  0.85769833  1
  N  N51  1  0.79014742  0.40135280  0.59911878  1
  N  N52  1  0.55346845  0.54209279  0.35888907  1
  N  N53  1  0.44560314  0.42772152  0.10850710  1
  N  N54  1  0.22242328  0.53909657  0.85823020  1
  N  N55  1  0.11095499  0.42762887  0.60925167  1
  N  N56  1  0.88776344  0.54234287  0.35790380  1
  N  N57  1  0.77844534  0.42656045  0.11534276  1
  N  N58  1  0.55850695  0.53691204  0.85766112  1
  N  N59  1  0.44521208  0.42536276  0.60769881  1
  N  N60  1  0.22541906  0.87014178  0.35888901  1
  N  N61  1  0.11104842  0.76227620  0.10850701  1
  N  N62  1  0.88689215  0.87683553  0.86311534  1
  N  N63  1  0.77792716  0.76312040  0.61253618  1
  N  N64  1  0.55533295  0.87200512  0.36312142  1
  N  N65  1  0.45690649  0.77357954  0.10085509  1
  N  N66  1  0.22023834  0.87518043  0.85766148  1
  N  N67  1  0.10868943  0.76188564  0.60769900  1
  N  N68  1  0.87517798  0.89631288  0.35168529  1
  N  N69  1  0.75268715  0.77400859  0.10179599  1
  N  N70  1  0.55570710  0.87238040  0.88050241  1
  N  N71  1  0.44508606  0.76176058  0.61385283  1
