# generated using pymatgen
data_Al11BN12
_symmetry_space_group_name_H-M   'P 1'
_cell_length_a   9.25123593
_cell_length_b   9.25158631
_cell_length_c   9.92020802
_cell_angle_alpha   89.93466861
_cell_angle_beta   89.87300359
_cell_angle_gamma   60.01941709
_symmetry_Int_Tables_number   1
_chemical_formula_structural   Al11BN12
_chemical_formula_sum   'Al33 B3 N36'
_cell_volume   735.44677185
_cell_formula_units_Z   3
loop_
 _symmetry_equiv_pos_site_id
 _symmetry_equiv_pos_as_xyz
  1  'x, y, z'
loop_
 _atom_site_type_symbol
 _atom_site_label
 _atom_site_symmetry_multiplicity
 _atom_site_fract_x
 _atom_site_fract_y
 _atom_site_fract_z
 _atom_site_occupancy
  Al  Al0  1  0.10397540  0.09414231  0.31662632  1
  Al  Al1  1  0.22574244  0.19941649  0.06252092  1
  Al  Al2  1  0.78040429  0.09695893  0.81242755  1
  Al  Al3  1  0.45156866  0.08805109  0.30821838  1
  Al  Al4  1  0.56029680  0.19872538  0.06763950  1
  Al  Al5  1  0.10482391  0.09749509  0.81225630  1
  Al  Al6  1  0.21875827  0.20639154  0.56231479  1
  Al  Al7  1  0.88746045  0.20438524  0.07232613  1
  Al  Al8  1  0.44705633  0.09215255  0.81824046  1
  Al  Al9  1  0.56552250  0.20399606  0.55756572  1
  Al  Al10  1  0.11073026  0.42753972  0.31126698  1
  Al  Al11  1  0.22238725  0.53894989  0.06156420  1
  Al  Al12  1  0.78095338  0.42136455  0.81137334  1
  Al  Al13  1  0.88985151  0.53550452  0.56232627  1
  Al  Al14  1  0.44970166  0.42416528  0.31156972  1
  Al  Al15  1  0.55802496  0.54205173  0.06144328  1
  Al  Al16  1  0.11118290  0.42759388  0.81210729  1
  Al  Al17  1  0.22244036  0.53900060  0.56112953  1
  Al  Al18  1  0.77725735  0.42101511  0.31665763  1
  Al  Al19  1  0.88281239  0.54224875  0.06205592  1
  Al  Al20  1  0.44577033  0.42597190  0.81192854  1
  Al  Al21  1  0.55898404  0.53526705  0.56247879  1
  Al  Al22  1  0.10736536  0.76638914  0.31177318  1
  Al  Al23  1  0.22550702  0.87443931  0.06196317  1
  Al  Al24  1  0.77561184  0.76369729  0.81825021  1
  Al  Al25  1  0.88736985  0.88212472  0.55761727  1
  Al  Al26  1  0.44693879  0.76364597  0.30827080  1
  Al  Al27  1  0.10947897  0.76233810  0.81204795  1
  Al  Al28  1  0.21847141  0.87584138  0.56252972  1
  Al  Al29  1  0.77141293  0.76820203  0.30807208  1
  Al  Al30  1  0.88220056  0.87689350  0.06775142  1
  Al  Al31  1  0.44605825  0.76276062  0.81815530  1
  Al  Al32  1  0.55623110  0.87288605  0.56294452  1
  B  B33  1  0.88635652  0.20292743  0.56956997  1
  B  B34  1  0.77813435  0.09510891  0.31172826  1
  B  B35  1  0.55559042  0.87214618  0.05876134  1
  N  N36  1  0.22437064  0.20375727  0.37036365  1
  N  N37  1  0.11103107  0.09404039  0.12534868  1
  N  N38  1  0.88786470  0.20492580  0.88163377  1
  N  N39  1  0.79156828  0.10824600  0.62000777  1
  N  N40  1  0.57925207  0.19217096  0.36346329  1
  N  N41  1  0.45703306  0.06902044  0.11434606  1
  N  N42  1  0.22156555  0.20436582  0.87047720  1
  N  N43  1  0.08349872  0.10831015  0.61543681  1
  N  N44  1  0.87539778  0.19239445  0.37456154  1
  N  N45  1  0.77792184  0.09468411  0.14525549  1
  N  N46  1  0.55917305  0.20394541  0.87490593  1
  N  N47  1  0.44682185  0.09507667  0.62409830  1
  N  N48  1  0.22240267  0.53912369  0.37002956  1
  N  N49  1  0.11042868  0.42724841  0.11990558  1
  N  N50  1  0.88769103  0.53811124  0.87000713  1
  N  N51  1  0.79162932  0.40018758  0.61495076  1
  N  N52  1  0.55375047  0.54178156  0.37158221  1
  N  N53  1  0.44540627  0.42754268  0.12059210  1
  N  N54  1  0.22249549  0.53912654  0.87049426  1
  N  N55  1  0.11139721  0.42799640  0.62139577  1
  N  N56  1  0.88694571  0.54128113  0.37045628  1
  N  N57  1  0.77724377  0.42796658  0.12537341  1
  N  N58  1  0.55755056  0.53754942  0.86979218  1
  N  N59  1  0.44556695  0.42567891  0.61980637  1
  N  N60  1  0.22484823  0.87071954  0.37154251  1
  N  N61  1  0.11085475  0.76193459  0.12084698  1
  N  N62  1  0.88736137  0.87586838  0.87501240  1
  N  N63  1  0.77831474  0.76362417  0.62414437  1
  N  N64  1  0.55527608  0.87199083  0.37512992  1
  N  N65  1  0.45681584  0.77331300  0.11359466  1
  N  N66  1  0.22093173  0.87406600  0.87033238  1
  N  N67  1  0.10902750  0.76225075  0.61986589  1
  N  N68  1  0.87526253  0.89608843  0.36351400  1
  N  N69  1  0.75248755  0.77355160  0.11415529  1
  N  N70  1  0.55574465  0.87237558  0.89261132  1
  N  N71  1  0.44530873  0.76219209  0.62574754  1
