# generated using pymatgen
data_Al11BN12
_symmetry_space_group_name_H-M   'P 1'
_cell_length_a   9.26925009
_cell_length_b   9.28004617
_cell_length_c   10.14719170
_cell_angle_alpha   89.72951807
_cell_angle_beta   89.78723689
_cell_angle_gamma   60.13018368
_symmetry_Int_Tables_number   1
_chemical_formula_structural   Al11BN12
_chemical_formula_sum   'Al33 B3 N36'
_cell_volume   756.89228770
_cell_formula_units_Z   3
loop_
 _symmetry_equiv_pos_site_id
 _symmetry_equiv_pos_as_xyz
  1  'x, y, z'
loop_
 _atom_site_type_symbol
 _atom_site_label
 _atom_site_symmetry_multiplicity
 _atom_site_fract_x
 _atom_site_fract_y
 _atom_site_fract_z
 _atom_site_occupancy
  Al  Al0  1  0.10099530  0.09300877  0.39417021  1
  Al  Al1  1  0.21780526  0.20159365  0.13486396  1
  Al  Al2  1  0.77867630  0.09661480  0.81191007  1
  Al  Al3  1  0.45599154  0.08534893  0.31279320  1
  Al  Al4  1  0.55708333  0.19782591  0.07069089  1
  Al  Al5  1  0.10863314  0.09683456  0.88622916  1
  Al  Al6  1  0.21438456  0.21030011  0.63933791  1
  Al  Al7  1  0.88774250  0.20199004  0.14332820  1
  Al  Al8  1  0.45270681  0.09463799  0.82294725  1
  Al  Al9  1  0.56795101  0.20380754  0.56150883  1
  Al  Al10  1  0.10842468  0.42339984  0.38573745  1
  Al  Al11  1  0.22458980  0.54202482  0.06914062  1
  Al  Al12  1  0.78437921  0.42349367  0.88206627  1
  Al  Al13  1  0.89224916  0.53218095  0.63917159  1
  Al  Al14  1  0.45170190  0.42227981  0.31645776  1
  Al  Al15  1  0.55400636  0.53942578  0.06912357  1
  Al  Al16  1  0.10849301  0.42540634  0.88941623  1
  Al  Al17  1  0.22539796  0.54329662  0.56613446  1
  Al  Al18  1  0.78747089  0.41042981  0.39264350  1
  Al  Al19  1  0.88326603  0.53522647  0.13500292  1
  Al  Al20  1  0.44486173  0.42789456  0.81663423  1
  Al  Al21  1  0.55805382  0.53243906  0.57749399  1
  Al  Al22  1  0.10289627  0.76225298  0.31600463  1
  Al  Al23  1  0.22908533  0.87654020  0.13713546  1
  Al  Al24  1  0.77444515  0.77115806  0.82191762  1
  Al  Al25  1  0.88849696  0.88474786  0.56131317  1
  Al  Al26  1  0.44108081  0.76147537  0.38079999  1
  Al  Al27  1  0.10654694  0.75886781  0.81837723  1
  Al  Al28  1  0.22036258  0.88104315  0.64080228  1
  Al  Al29  1  0.76751374  0.77276720  0.31249501  1
  Al  Al30  1  0.88108081  0.87368140  0.07012280  1
  Al  Al31  1  0.44091452  0.76951294  0.88316577  1
  Al  Al32  1  0.55954679  0.87756478  0.56938974  1
  B  B33  1  0.89290176  0.20909089  0.64480858  1
  B  B34  1  0.77434339  0.09025368  0.30977807  1
  B  B35  1  0.55727698  0.87473636  0.06288726  1
  N  N36  1  0.21784935  0.20316423  0.32666904  1
  N  N37  1  0.10443884  0.09418624  0.07325975  1
  N  N38  1  0.89668371  0.21196022  0.80746187  1
  N  N39  1  0.79002576  0.10664245  0.62490174  1
  N  N40  1  0.58051084  0.19112531  0.36908280  1
  N  N41  1  0.45681655  0.06699532  0.12036133  1
  N  N42  1  0.21985764  0.20833155  0.82902135  1
  N  N43  1  0.08729251  0.10701637  0.58426880  1
  N  N44  1  0.87903125  0.19128012  0.32944629  1
  N  N45  1  0.76999023  0.08628991  0.14744116  1
  N  N46  1  0.56150979  0.20753341  0.88292904  1
  N  N47  1  0.45311126  0.09548780  0.63043980  1
  N  N48  1  0.22657385  0.54069002  0.37590170  1
  N  N49  1  0.10753738  0.42450393  0.07879401  1
  N  N50  1  0.89085165  0.53862292  0.82814452  1
  N  N51  1  0.79647111  0.39899487  0.58606366  1
  N  N52  1  0.55723479  0.53274604  0.38111105  1
  N  N53  1  0.44547171  0.42502961  0.12960710  1
  N  N54  1  0.22572682  0.54167012  0.87913279  1
  N  N55  1  0.10879574  0.42608554  0.57516884  1
  N  N56  1  0.88721501  0.53471228  0.32604483  1
  N  N57  1  0.78509040  0.41574170  0.07308438  1
  N  N58  1  0.55248284  0.54006315  0.87355262  1
  N  N59  1  0.44488905  0.42342028  0.62908005  1
  N  N60  1  0.22219660  0.87651688  0.32831124  1
  N  N61  1  0.10590502  0.76008228  0.12740280  1
  N  N62  1  0.88795119  0.87938124  0.88267388  1
  N  N63  1  0.77779223  0.77075650  0.62969545  1
  N  N64  1  0.55750337  0.87481770  0.38286194  1
  N  N65  1  0.45450435  0.77362910  0.08577568  1
  N  N66  1  0.22182005  0.87782748  0.82971294  1
  N  N67  1  0.10643175  0.76097768  0.62686193  1
  N  N68  1  0.87479822  0.89632147  0.36951858  1
  N  N69  1  0.74904471  0.77419805  0.12005891  1
  N  N70  1  0.56122197  0.88075070  0.89787091  1
  N  N71  1  0.44277054  0.76376666  0.59143241  1
