# generated using pymatgen
data_Al11BN12
_symmetry_space_group_name_H-M   'P 1'
_cell_length_a   9.28786395
_cell_length_b   9.29664835
_cell_length_c   10.13709550
_cell_angle_alpha   89.68015673
_cell_angle_beta   89.87177755
_cell_angle_gamma   60.07365081
_symmetry_Int_Tables_number   1
_chemical_formula_structural   Al11BN12
_chemical_formula_sum   'Al33 B3 N36'
_cell_volume   758.58002191
_cell_formula_units_Z   3
loop_
 _symmetry_equiv_pos_site_id
 _symmetry_equiv_pos_as_xyz
  1  'x, y, z'
loop_
 _atom_site_type_symbol
 _atom_site_label
 _atom_site_symmetry_multiplicity
 _atom_site_fract_x
 _atom_site_fract_y
 _atom_site_fract_z
 _atom_site_occupancy
  Al  Al0  1  0.09918934  0.09442518  0.39523828  1
  Al  Al1  1  0.22720854  0.19499322  0.14171125  1
  Al  Al2  1  0.77981769  0.09535966  0.81334308  1
  Al  Al3  1  0.44349828  0.09453875  0.39146148  1
  Al  Al4  1  0.55992822  0.19619230  0.07349684  1
  Al  Al5  1  0.11026271  0.09775071  0.88732019  1
  Al  Al6  1  0.21686226  0.20994191  0.63899115  1
  Al  Al7  1  0.88841347  0.20313168  0.14426807  1
  Al  Al8  1  0.44766904  0.08938059  0.86114496  1
  Al  Al9  1  0.57301435  0.21101354  0.56369275  1
  Al  Al10  1  0.10886631  0.42810396  0.38922988  1
  Al  Al11  1  0.21876320  0.53478269  0.13430889  1
  Al  Al12  1  0.78138286  0.42672070  0.88668860  1
  Al  Al13  1  0.89492246  0.52899379  0.63698466  1
  Al  Al14  1  0.45427570  0.41615591  0.31817861  1
  Al  Al15  1  0.56266929  0.54447105  0.13649735  1
  Al  Al16  1  0.11036678  0.42776481  0.89179710  1
  Al  Al17  1  0.21967565  0.53748531  0.63501009  1
  Al  Al18  1  0.77806415  0.41669923  0.39460457  1
  Al  Al19  1  0.88478291  0.53388592  0.13934933  1
  Al  Al20  1  0.44872793  0.42167410  0.82601756  1
  Al  Al21  1  0.56391930  0.53766300  0.64344630  1
  Al  Al22  1  0.10017568  0.77003869  0.31838963  1
  Al  Al23  1  0.22842468  0.87824757  0.13626703  1
  Al  Al24  1  0.77949091  0.76782160  0.81046761  1
  Al  Al25  1  0.89078785  0.88447389  0.55942017  1
  Al  Al26  1  0.44126495  0.75704037  0.39549129  1
  Al  Al27  1  0.10385430  0.76598076  0.82638859  1
  Al  Al28  1  0.22024185  0.88056999  0.64324130  1
  Al  Al29  1  0.76457002  0.77406812  0.32419067  1
  Al  Al30  1  0.87788879  0.87489737  0.07211623  1
  Al  Al31  1  0.44929582  0.76503388  0.88587925  1
  Al  Al32  1  0.55748311  0.87260979  0.60076686  1
  B  B33  1  0.89372040  0.20776550  0.64685959  1
  B  B34  1  0.77415148  0.09175274  0.31051489  1
  B  B35  1  0.55387940  0.87341294  0.10169456  1
  N  N36  1  0.21925336  0.20372721  0.33093766  1
  N  N37  1  0.10557784  0.09707648  0.07555135  1
  N  N38  1  0.89654470  0.21256604  0.81080815  1
  N  N39  1  0.79276302  0.10510834  0.62721118  1
  N  N40  1  0.58556722  0.19247155  0.37183954  1
  N  N41  1  0.45679540  0.05994952  0.08775287  1
  N  N42  1  0.22172707  0.20882989  0.82757662  1
  N  N43  1  0.08640658  0.10853229  0.58662525  1
  N  N44  1  0.87780595  0.19451587  0.33067303  1
  N  N45  1  0.77099578  0.08673988  0.14852563  1
  N  N46  1  0.56455338  0.20287842  0.88423030  1
  N  N47  1  0.44032691  0.10761229  0.58594380  1
  N  N48  1  0.22051931  0.53642241  0.33219906  1
  N  N49  1  0.11033428  0.42231880  0.07970551  1
  N  N50  1  0.89238160  0.53643129  0.82873991  1
  N  N51  1  0.79131432  0.40224816  0.58580504  1
  N  N52  1  0.56051426  0.54137152  0.32784074  1
  N  N53  1  0.44915004  0.42072610  0.12320139  1
  N  N54  1  0.21955989  0.53694111  0.83544149  1
  N  N55  1  0.11132940  0.42764531  0.57540093  1
  N  N56  1  0.88762722  0.53456066  0.32925906  1
  N  N57  1  0.78068323  0.42026834  0.07451620  1
  N  N58  1  0.55963730  0.54254053  0.83459776  1
  N  N59  1  0.44997681  0.42227436  0.62883199  1
  N  N60  1  0.22435514  0.87723868  0.32811231  1
  N  N61  1  0.10389557  0.76521952  0.12279267  1
  N  N62  1  0.88326500  0.87885812  0.88488760  1
  N  N63  1  0.79028234  0.76253393  0.61904546  1
  N  N64  1  0.55644464  0.86980236  0.38777549  1
  N  N65  1  0.46040422  0.77510627  0.08049920  1
  N  N66  1  0.22521725  0.87631901  0.83485723  1
  N  N67  1  0.10437108  0.76732395  0.62709576  1
  N  N68  1  0.87395703  0.89961600  0.36895744  1
  N  N69  1  0.74299169  0.77641082  0.12547180  1
  N  N70  1  0.55212068  0.87331049  0.81399766  1
  N  N71  1  0.43871449  0.75570910  0.58274355  1
