# generated using pymatgen
data_Al11BN12
_symmetry_space_group_name_H-M   'P 1'
_cell_length_a   9.29228416
_cell_length_b   9.29319259
_cell_length_c   9.97896506
_cell_angle_alpha   89.42352200
_cell_angle_beta   89.38177825
_cell_angle_gamma   59.96701152
_symmetry_Int_Tables_number   1
_chemical_formula_structural   Al11BN12
_chemical_formula_sum   'Al33 B3 N36'
_cell_volume   745.98056941
_cell_formula_units_Z   3
loop_
 _symmetry_equiv_pos_site_id
 _symmetry_equiv_pos_as_xyz
  1  'x, y, z'
loop_
 _atom_site_type_symbol
 _atom_site_label
 _atom_site_symmetry_multiplicity
 _atom_site_fract_x
 _atom_site_fract_y
 _atom_site_fract_z
 _atom_site_occupancy
  Al  Al0  1  0.09981743  0.09494282  0.40597694  1
  Al  Al1  1  0.22495364  0.20035031  0.15120570  1
  Al  Al2  1  0.77818552  0.09742201  0.85164849  1
  Al  Al3  1  0.45050652  0.08879081  0.38924832  1
  Al  Al4  1  0.56030895  0.19925376  0.08326098  1
  Al  Al5  1  0.10905939  0.09630819  0.89835944  1
  Al  Al6  1  0.21840592  0.20554765  0.64941092  1
  Al  Al7  1  0.88693871  0.20350082  0.14977111  1
  Al  Al8  1  0.44187734  0.08630327  0.89988124  1
  Al  Al9  1  0.56971411  0.20115670  0.59282579  1
  Al  Al10  1  0.11032466  0.42738921  0.40107492  1
  Al  Al11  1  0.22206506  0.53939516  0.15160065  1
  Al  Al12  1  0.77962107  0.42592696  0.89848662  1
  Al  Al13  1  0.88924762  0.53408759  0.64966392  1
  Al  Al14  1  0.44885694  0.42915955  0.39591211  1
  Al  Al15  1  0.55931456  0.54266852  0.15070886  1
  Al  Al16  1  0.11117365  0.42765281  0.89965706  1
  Al  Al17  1  0.22277267  0.53760606  0.64907081  1
  Al  Al18  1  0.77844707  0.41657167  0.40583685  1
  Al  Al19  1  0.88369170  0.54182346  0.15133095  1
  Al  Al20  1  0.44049355  0.43447693  0.89857206  1
  Al  Al21  1  0.55913354  0.53465712  0.65039029  1
  Al  Al22  1  0.10967206  0.76736894  0.39753298  1
  Al  Al23  1  0.22563285  0.87591328  0.15075942  1
  Al  Al24  1  0.76964343  0.75894635  0.89956346  1
  Al  Al25  1  0.88688312  0.88154122  0.61009172  1
  Al  Al26  1  0.44658003  0.76317595  0.39441959  1
  Al  Al27  1  0.11720593  0.75767207  0.89780760  1
  Al  Al28  1  0.21885929  0.87568202  0.65042263  1
  Al  Al29  1  0.77302410  0.76833306  0.39062417  1
  Al  Al30  1  0.88240892  0.87701704  0.08739242  1
  Al  Al31  1  0.44647907  0.76321704  0.90428944  1
  Al  Al32  1  0.55476848  0.87177270  0.64723764  1
  B  B33  1  0.89097250  0.20762008  0.66293702  1
  B  B34  1  0.77915320  0.09333924  0.36352745  1
  B  B35  1  0.55503979  0.87212962  0.15266817  1
  N  N36  1  0.21963486  0.20435178  0.34237118  1
  N  N37  1  0.10916156  0.09690252  0.08948514  1
  N  N38  1  0.89623563  0.21312868  0.82425957  1
  N  N39  1  0.78940763  0.10700422  0.64731826  1
  N  N40  1  0.59072639  0.18969871  0.38103632  1
  N  N41  1  0.45492342  0.06670846  0.09843112  1
  N  N42  1  0.22293581  0.20513919  0.84021305  1
  N  N43  1  0.08525096  0.10694931  0.59864566  1
  N  N44  1  0.87423070  0.19065148  0.34301918  1
  N  N45  1  0.78315088  0.09917595  0.08501544  1
  N  N46  1  0.54820121  0.20727083  0.87921523  1
  N  N47  1  0.44294626  0.09165648  0.58388359  1
  N  N48  1  0.22164556  0.53987127  0.34142377  1
  N  N49  1  0.11147643  0.42805926  0.09126851  1
  N  N50  1  0.88860826  0.53958297  0.84037109  1
  N  N51  1  0.79052386  0.40155705  0.59854925  1
  N  N52  1  0.55952578  0.53955662  0.34075264  1
  N  N53  1  0.44333295  0.43434230  0.09380190  1
  N  N54  1  0.22217060  0.53875694  0.83857205  1
  N  N55  1  0.11132593  0.42767630  0.59061965  1
  N  N56  1  0.88732710  0.53704481  0.34263325  1
  N  N57  1  0.78042224  0.42579432  0.08959233  1
  N  N58  1  0.55550742  0.54161347  0.84144462  1
  N  N59  1  0.44332247  0.43138724  0.58847876  1
  N  N60  1  0.22266818  0.87572574  0.34106743  1
  N  N61  1  0.11679048  0.76033483  0.09223413  1
  N  N62  1  0.89027680  0.86542390  0.87146994  1
  N  N63  1  0.77560684  0.75931003  0.58515162  1
  N  N64  1  0.55614997  0.87199547  0.31695890  1
  N  N65  1  0.45688186  0.77363001  0.09770181  1
  N  N66  1  0.22507344  0.87222478  0.84138060  1
  N  N67  1  0.11533108  0.75932266  0.58977217  1
  N  N68  1  0.87337538  0.90655269  0.37598585  1
  N  N69  1  0.75054044  0.77165949  0.09724724  1
  N  N70  1  0.55426113  0.87113285  0.83453201  1
  N  N71  1  0.44516944  0.76123194  0.58613694  1
