# generated using pymatgen
data_Al11BN12
_symmetry_space_group_name_H-M   'P 1'
_cell_length_a   9.28174617
_cell_length_b   9.28309227
_cell_length_c   9.96256793
_cell_angle_alpha   89.86253999
_cell_angle_beta   89.59635417
_cell_angle_gamma   60.06566482
_symmetry_Int_Tables_number   1
_chemical_formula_structural   Al11BN12
_chemical_formula_sum   'Al33 B3 N36'
_cell_volume   743.87528397
_cell_formula_units_Z   3
loop_
 _symmetry_equiv_pos_site_id
 _symmetry_equiv_pos_as_xyz
  1  'x, y, z'
loop_
 _atom_site_type_symbol
 _atom_site_label
 _atom_site_symmetry_multiplicity
 _atom_site_fract_x
 _atom_site_fract_y
 _atom_site_fract_z
 _atom_site_occupancy
  Al  Al0  1  0.09406103  0.10165115  0.36972824  1
  Al  Al1  1  0.22693565  0.19779889  0.11870925  1
  Al  Al2  1  0.78101218  0.09728617  0.81431963  1
  Al  Al3  1  0.45805916  0.08538216  0.31122721  1
  Al  Al4  1  0.55780840  0.19799850  0.06333055  1
  Al  Al5  1  0.10883453  0.09889461  0.88629018  1
  Al  Al6  1  0.21810116  0.20473171  0.60921521  1
  Al  Al7  1  0.88168135  0.20501875  0.09016524  1
  Al  Al8  1  0.44955217  0.09001260  0.81713570  1
  Al  Al9  1  0.56796397  0.20516689  0.55512554  1
  Al  Al10  1  0.10845518  0.43322989  0.31362797  1
  Al  Al11  1  0.22239148  0.53799913  0.06008024  1
  Al  Al12  1  0.78123605  0.42078511  0.81535023  1
  Al  Al13  1  0.89010081  0.53618984  0.56088882  1
  Al  Al14  1  0.45012160  0.42437909  0.31002610  1
  Al  Al15  1  0.55761487  0.54197993  0.05849652  1
  Al  Al16  1  0.10861137  0.43235872  0.81060872  1
  Al  Al17  1  0.22355909  0.53985759  0.55891479  1
  Al  Al18  1  0.77456336  0.42437899  0.31013224  1
  Al  Al19  1  0.88225837  0.54309331  0.05945316  1
  Al  Al20  1  0.44523462  0.42595865  0.81069960  1
  Al  Al21  1  0.55999807  0.53420061  0.56205413  1
  Al  Al22  1  0.10660533  0.76824397  0.31026195  1
  Al  Al23  1  0.23148127  0.86346606  0.06427459  1
  Al  Al24  1  0.77527653  0.76394744  0.81651627  1
  Al  Al25  1  0.88865509  0.88268592  0.55604544  1
  Al  Al26  1  0.44732308  0.76388694  0.30786212  1
  Al  Al27  1  0.10973529  0.76246647  0.81091559  1
  Al  Al28  1  0.22160541  0.87069174  0.56327763  1
  Al  Al29  1  0.77263409  0.76770670  0.30629780  1
  Al  Al30  1  0.88192780  0.87443923  0.06411353  1
  Al  Al31  1  0.44592724  0.76286257  0.81692125  1
  Al  Al32  1  0.55876996  0.87161849  0.56100128  1
  B  B33  1  0.88924141  0.20605605  0.59422546  1
  B  B34  1  0.77689046  0.09618587  0.30062912  1
  B  B35  1  0.55671058  0.87105570  0.05831552  1
  N  N36  1  0.22468623  0.20341462  0.34023430  1
  N  N37  1  0.11346638  0.09139862  0.08371694  1
  N  N38  1  0.87959427  0.20869736  0.88582535  1
  N  N39  1  0.79485849  0.11065095  0.61989070  1
  N  N40  1  0.58016139  0.19334753  0.36205612  1
  N  N41  1  0.46097012  0.06546856  0.11473239  1
  N  N42  1  0.22016264  0.20386663  0.82962750  1
  N  N43  1  0.07760323  0.11228886  0.57531254  1
  N  N44  1  0.87122637  0.19365740  0.33034983  1
  N  N45  1  0.77129780  0.08850278  0.13800604  1
  N  N46  1  0.55765216  0.20411530  0.87222235  1
  N  N47  1  0.45496412  0.09208377  0.62010142  1
  N  N48  1  0.22301007  0.54116032  0.36913985  1
  N  N49  1  0.10689869  0.43216708  0.11972458  1
  N  N50  1  0.88700158  0.53937841  0.86850258  1
  N  N51  1  0.79412411  0.39806408  0.61770904  1
  N  N52  1  0.55394039  0.54185813  0.37185431  1
  N  N53  1  0.44530532  0.42676988  0.11901647  1
  N  N54  1  0.22218159  0.53931442  0.86969400  1
  N  N55  1  0.10896740  0.43449538  0.61769589  1
  N  N56  1  0.88514528  0.54114537  0.37032498  1
  N  N57  1  0.77360927  0.43423225  0.12096123  1
  N  N58  1  0.55628023  0.53819457  0.86765053  1
  N  N59  1  0.44586342  0.42580925  0.61874292  1
  N  N60  1  0.22617175  0.86901491  0.37027940  1
  N  N61  1  0.10965295  0.76034335  0.12051991  1
  N  N62  1  0.88750357  0.87502991  0.87231856  1
  N  N63  1  0.77913953  0.76366446  0.62292444  1
  N  N64  1  0.55732593  0.86986902  0.37439019  1
  N  N65  1  0.45851671  0.77127020  0.11426626  1
  N  N66  1  0.22420471  0.86692738  0.87055618  1
  N  N67  1  0.10913644  0.76235506  0.61953674  1
  N  N68  1  0.87547999  0.89613688  0.36230632  1
  N  N69  1  0.75294647  0.77215466  0.11284131  1
  N  N70  1  0.55572944  0.87182071  0.89218541  1
  N  N71  1  0.44695718  0.76196140  0.62480068  1
