# generated using pymatgen
data_Al11BN12
_symmetry_space_group_name_H-M   'P 1'
_cell_length_a   9.31272112
_cell_length_b   9.28379271
_cell_length_c   10.08317030
_cell_angle_alpha   89.71003845
_cell_angle_beta   89.57652941
_cell_angle_gamma   59.95861838
_symmetry_Int_Tables_number   1
_chemical_formula_structural   Al11BN12
_chemical_formula_sum   'Al33 B3 N36'
_cell_volume   754.63356971
_cell_formula_units_Z   3
loop_
 _symmetry_equiv_pos_site_id
 _symmetry_equiv_pos_as_xyz
  1  'x, y, z'
loop_
 _atom_site_type_symbol
 _atom_site_label
 _atom_site_symmetry_multiplicity
 _atom_site_fract_x
 _atom_site_fract_y
 _atom_site_fract_z
 _atom_site_occupancy
  Al  Al0  1  0.10278229  0.09116023  0.39407643  1
  Al  Al1  1  0.21790075  0.20194713  0.13704750  1
  Al  Al2  1  0.77831620  0.09559268  0.81299761  1
  Al  Al3  1  0.45750400  0.08486704  0.31526220  1
  Al  Al4  1  0.55687811  0.19879119  0.07244448  1
  Al  Al5  1  0.10888447  0.09559299  0.88749950  1
  Al  Al6  1  0.21610402  0.20828334  0.64112991  1
  Al  Al7  1  0.88595660  0.20490329  0.14479497  1
  Al  Al8  1  0.45361397  0.09063374  0.82649332  1
  Al  Al9  1  0.56814602  0.20384884  0.56306921  1
  Al  Al10  1  0.11275281  0.42151396  0.38671940  1
  Al  Al11  1  0.22530392  0.54165369  0.07008552  1
  Al  Al12  1  0.78045994  0.42171307  0.87863523  1
  Al  Al13  1  0.88728381  0.53955988  0.59244384  1
  Al  Al14  1  0.45176390  0.42399197  0.31807800  1
  Al  Al15  1  0.54949602  0.54510172  0.06645834  1
  Al  Al16  1  0.11426144  0.42249950  0.88609720  1
  Al  Al17  1  0.22722155  0.54281566  0.56779680  1
  Al  Al18  1  0.78431689  0.40990903  0.39285477  1
  Al  Al19  1  0.87891296  0.54592793  0.07710524  1
  Al  Al20  1  0.44509495  0.42690636  0.81711034  1
  Al  Al21  1  0.55377343  0.53938125  0.57514086  1
  Al  Al22  1  0.10402656  0.76270171  0.31783546  1
  Al  Al23  1  0.22292954  0.87879952  0.13290451  1
  Al  Al24  1  0.77404624  0.76835832  0.82349149  1
  Al  Al25  1  0.88780775  0.88513398  0.56181851  1
  Al  Al26  1  0.45586066  0.75825604  0.31782903  1
  Al  Al27  1  0.10517407  0.75930114  0.81993958  1
  Al  Al28  1  0.21581990  0.88347490  0.63971020  1
  Al  Al29  1  0.77273282  0.76529470  0.31438645  1
  Al  Al30  1  0.88041458  0.87562582  0.07144195  1
  Al  Al31  1  0.44993833  0.76307160  0.82689322  1
  Al  Al32  1  0.55770144  0.87496970  0.56879840  1
  B  B33  1  0.89079701  0.21003221  0.64654768  1
  B  B34  1  0.77485090  0.08945425  0.31056840  1
  B  B35  1  0.55456760  0.87302208  0.06648500  1
  N  N36  1  0.21950126  0.20175448  0.32891928  1
  N  N37  1  0.10292771  0.09723660  0.07472173  1
  N  N38  1  0.89707630  0.20982958  0.80856492  1
  N  N39  1  0.78962746  0.10645560  0.62554958  1
  N  N40  1  0.58074010  0.19179168  0.36997163  1
  N  N41  1  0.45731516  0.06693089  0.12126367  1
  N  N42  1  0.22144191  0.20467821  0.83073241  1
  N  N43  1  0.08690129  0.10845585  0.58475525  1
  N  N44  1  0.87934750  0.19052360  0.33140243  1
  N  N45  1  0.76970537  0.08778593  0.14798322  1
  N  N46  1  0.56091713  0.20604771  0.88344823  1
  N  N47  1  0.45491791  0.09351863  0.63133767  1
  N  N48  1  0.22731700  0.54008926  0.37652658  1
  N  N49  1  0.11135551  0.42350517  0.08194760  1
  N  N50  1  0.88664271  0.54486485  0.86522780  1
  N  N51  1  0.79220440  0.39872285  0.59016117  1
  N  N52  1  0.55321855  0.54036600  0.38248172  1
  N  N53  1  0.44515270  0.42701478  0.13013271  1
  N  N54  1  0.22652443  0.54099013  0.87839135  1
  N  N55  1  0.11539323  0.42401990  0.58238275  1
  N  N56  1  0.88364325  0.54211327  0.36978341  1
  N  N57  1  0.77946519  0.41656563  0.07515399  1
  N  N58  1  0.54903464  0.54173416  0.87601620  1
  N  N59  1  0.44618902  0.42508747  0.62865320  1
  N  N60  1  0.22356177  0.87467027  0.32969551  1
  N  N61  1  0.10461399  0.76071434  0.12691072  1
  N  N62  1  0.88569677  0.87905571  0.88294804  1
  N  N63  1  0.77764712  0.76965074  0.63206694  1
  N  N64  1  0.55724620  0.87146623  0.38341620  1
  N  N65  1  0.46149821  0.77099167  0.12153677  1
  N  N66  1  0.21874056  0.87679076  0.83396435  1
  N  N67  1  0.10607922  0.76173579  0.62608120  1
  N  N68  1  0.87437301  0.89596645  0.36955316  1
  N  N69  1  0.75077520  0.77391813  0.12197204  1
  N  N70  1  0.55592728  0.87352533  0.90189059  1
  N  N71  1  0.45239515  0.76194940  0.63340377  1
