# generated using pymatgen
data_Al11BN12
_symmetry_space_group_name_H-M   'P 1'
_cell_length_a   9.30422741
_cell_length_b   9.28657111
_cell_length_c   10.03354365
_cell_angle_alpha   89.80562816
_cell_angle_beta   89.67217250
_cell_angle_gamma   60.05429740
_symmetry_Int_Tables_number   1
_chemical_formula_structural   Al11BN12
_chemical_formula_sum   'Al33 B3 N36'
_cell_volume   751.19181600
_cell_formula_units_Z   3
loop_
 _symmetry_equiv_pos_site_id
 _symmetry_equiv_pos_as_xyz
  1  'x, y, z'
loop_
 _atom_site_type_symbol
 _atom_site_label
 _atom_site_symmetry_multiplicity
 _atom_site_fract_x
 _atom_site_fract_y
 _atom_site_fract_z
 _atom_site_occupancy
  Al  Al0  1  0.09776717  0.10046291  0.39401527  1
  Al  Al1  1  0.21894815  0.19992321  0.13583919  1
  Al  Al2  1  0.77902876  0.09471254  0.81392537  1
  Al  Al3  1  0.45852610  0.08358980  0.31622710  1
  Al  Al4  1  0.55717712  0.19845521  0.07317092  1
  Al  Al5  1  0.10669201  0.10018122  0.88551686  1
  Al  Al6  1  0.21627440  0.20605022  0.64024352  1
  Al  Al7  1  0.88634941  0.20427959  0.14445081  1
  Al  Al8  1  0.45504929  0.08919709  0.82733076  1
  Al  Al9  1  0.56808190  0.20335576  0.56410671  1
  Al  Al10  1  0.11222265  0.42599738  0.36527325  1
  Al  Al11  1  0.22394752  0.54063701  0.07239782  1
  Al  Al12  1  0.77965753  0.42227552  0.87966626  1
  Al  Al13  1  0.88815301  0.54002127  0.57806576  1
  Al  Al14  1  0.45136907  0.42408438  0.31896751  1
  Al  Al15  1  0.55022024  0.54442972  0.06888729  1
  Al  Al16  1  0.11316323  0.42752790  0.86626306  1
  Al  Al17  1  0.22541598  0.54065626  0.56940792  1
  Al  Al18  1  0.78043536  0.41053927  0.39189777  1
  Al  Al19  1  0.88109687  0.54562359  0.07212736  1
  Al  Al20  1  0.44560844  0.42658746  0.81850495  1
  Al  Al21  1  0.55409767  0.53852915  0.57694017  1
  Al  Al22  1  0.10762673  0.76874726  0.31906419  1
  Al  Al23  1  0.22786581  0.86826261  0.06876196  1
  Al  Al24  1  0.77563053  0.76697519  0.82376161  1
  Al  Al25  1  0.88758719  0.88441394  0.56365724  1
  Al  Al26  1  0.44672822  0.76333531  0.31772068  1
  Al  Al27  1  0.10990075  0.76313844  0.81872426  1
  Al  Al28  1  0.22209595  0.87135252  0.57585092  1
  Al  Al29  1  0.77167329  0.76593818  0.31497239  1
  Al  Al30  1  0.88209774  0.87445689  0.07318365  1
  Al  Al31  1  0.44625616  0.76439205  0.82493621  1
  Al  Al32  1  0.55745545  0.87402444  0.56998601  1
  B  B33  1  0.89206533  0.20959914  0.64657715  1
  B  B34  1  0.77467261  0.08878054  0.31086360  1
  B  B35  1  0.55492628  0.87330265  0.06719556  1
  N  N36  1  0.22130527  0.19996051  0.33039751  1
  N  N37  1  0.10123664  0.09976282  0.07665894  1
  N  N38  1  0.89633685  0.21064944  0.80916828  1
  N  N39  1  0.78948156  0.10564941  0.62605237  1
  N  N40  1  0.58067868  0.19167790  0.37035728  1
  N  N41  1  0.45822333  0.06597291  0.12137828  1
  N  N42  1  0.22350343  0.20355022  0.83280161  1
  N  N43  1  0.08414447  0.11034447  0.58747825  1
  N  N44  1  0.87828513  0.19122128  0.33148495  1
  N  N45  1  0.77000346  0.08693724  0.14823672  1
  N  N46  1  0.56159501  0.20557201  0.88379563  1
  N  N47  1  0.45511290  0.09238382  0.63157822  1
  N  N48  1  0.22600190  0.54227508  0.37719402  1
  N  N49  1  0.10975392  0.42749489  0.09965132  1
  N  N50  1  0.88615857  0.54641231  0.87460282  1
  N  N51  1  0.79126876  0.39914901  0.58977977  1
  N  N52  1  0.55103738  0.54266979  0.38201527  1
  N  N53  1  0.44527762  0.42610764  0.13042318  1
  N  N54  1  0.22601124  0.54249657  0.87981665  1
  N  N55  1  0.11381187  0.42670479  0.59695211  1
  N  N56  1  0.88260093  0.54373747  0.37748235  1
  N  N57  1  0.77898096  0.41734544  0.07796612  1
  N  N58  1  0.54932808  0.54235876  0.87613137  1
  N  N59  1  0.44573930  0.42460616  0.62910553  1
  N  N60  1  0.22629601  0.86882939  0.38206286  1
  N  N61  1  0.10956928  0.76330367  0.13021948  1
  N  N62  1  0.88845116  0.87781246  0.88324095  1
  N  N63  1  0.77810808  0.76707653  0.63203591  1
  N  N64  1  0.55640728  0.87041942  0.38367589  1
  N  N65  1  0.45542328  0.77313370  0.12410186  1
  N  N66  1  0.22464346  0.86806529  0.87704025  1
  N  N67  1  0.10842412  0.76252601  0.62885319  1
  N  N68  1  0.87508368  0.89571485  0.36974268  1
  N  N69  1  0.75109682  0.77267678  0.12311401  1
  N  N70  1  0.55680321  0.87196202  0.90181695  1
  N  N71  1  0.44660658  0.76413044  0.63489873  1
