# generated using pymatgen
data_Al11BN12
_symmetry_space_group_name_H-M   'P 1'
_cell_length_a   9.28062681
_cell_length_b   9.28938625
_cell_length_c   10.02529493
_cell_angle_alpha   89.52980038
_cell_angle_beta   89.44651449
_cell_angle_gamma   59.97768026
_symmetry_Int_Tables_number   1
_chemical_formula_structural   Al11BN12
_chemical_formula_sum   'Al33 B3 N36'
_cell_volume   748.29154676
_cell_formula_units_Z   3
loop_
 _symmetry_equiv_pos_site_id
 _symmetry_equiv_pos_as_xyz
  1  'x, y, z'
loop_
 _atom_site_type_symbol
 _atom_site_label
 _atom_site_symmetry_multiplicity
 _atom_site_fract_x
 _atom_site_fract_y
 _atom_site_fract_z
 _atom_site_occupancy
  Al  Al0  1  0.09778548  0.09641925  0.39465732  1
  Al  Al1  1  0.22221175  0.19983722  0.13881184  1
  Al  Al2  1  0.77706319  0.09456106  0.81393588  1
  Al  Al3  1  0.44732558  0.08903569  0.37356466  1
  Al  Al4  1  0.55983007  0.19780305  0.08161407  1
  Al  Al5  1  0.10992476  0.09687622  0.88351917  1
  Al  Al6  1  0.22134580  0.20545202  0.63651099  1
  Al  Al7  1  0.88866513  0.20644384  0.14228837  1
  Al  Al8  1  0.44570820  0.08629229  0.89112783  1
  Al  Al9  1  0.57356301  0.19931601  0.56113537  1
  Al  Al10  1  0.10943711  0.42597006  0.38927271  1
  Al  Al11  1  0.22243829  0.53455420  0.13840028  1
  Al  Al12  1  0.77995706  0.42663613  0.88306037  1
  Al  Al13  1  0.88972019  0.53784218  0.63631797  1
  Al  Al14  1  0.44671674  0.43057771  0.38107351  1
  Al  Al15  1  0.55859960  0.54314532  0.13877091  1
  Al  Al16  1  0.11211560  0.42685024  0.88698029  1
  Al  Al17  1  0.22436497  0.53687632  0.63453053  1
  Al  Al18  1  0.77899107  0.41554954  0.39411035  1
  Al  Al19  1  0.88269605  0.53975852  0.13830421  1
  Al  Al20  1  0.44460109  0.43230730  0.89062971  1
  Al  Al21  1  0.55906457  0.53424141  0.63751651  1
  Al  Al22  1  0.10521107  0.76790721  0.34175200  1
  Al  Al23  1  0.22799589  0.87759347  0.13688801  1
  Al  Al24  1  0.77009460  0.76165996  0.89178511  1
  Al  Al25  1  0.89014217  0.88635862  0.55939910  1
  Al  Al26  1  0.44584808  0.76298898  0.38382213  1
  Al  Al27  1  0.11188056  0.76138211  0.86094738  1
  Al  Al28  1  0.21983998  0.87613337  0.63619702  1
  Al  Al29  1  0.77115722  0.76436938  0.37475386  1
  Al  Al30  1  0.88217618  0.87719675  0.08026560  1
  Al  Al31  1  0.44853742  0.76332268  0.89070355  1
  Al  Al32  1  0.55795134  0.87258620  0.63372741  1
  B  B33  1  0.89368206  0.20963327  0.64658229  1
  B  B34  1  0.77284913  0.09371894  0.30775190  1
  B  B35  1  0.55428365  0.87013541  0.14075766  1
  N  N36  1  0.21721038  0.20420982  0.32863843  1
  N  N37  1  0.10568619  0.09686340  0.07310759  1
  N  N38  1  0.89565826  0.21200266  0.80979211  1
  N  N39  1  0.78991037  0.10479352  0.62649851  1
  N  N40  1  0.58396052  0.19229170  0.36383698  1
  N  N41  1  0.45199035  0.06607752  0.08717238  1
  N  N42  1  0.22697531  0.20458188  0.82726404  1
  N  N43  1  0.08611123  0.10828371  0.58680306  1
  N  N44  1  0.87789431  0.19568375  0.33028284  1
  N  N45  1  0.77220162  0.09026123  0.14752981  1
  N  N46  1  0.56351677  0.20096504  0.88424188  1
  N  N47  1  0.44396243  0.09151740  0.56884162  1
  N  N48  1  0.22226531  0.53439033  0.32816949  1
  N  N49  1  0.11012211  0.42622081  0.07717646  1
  N  N50  1  0.88921727  0.54316675  0.82744448  1
  N  N51  1  0.79164348  0.40248998  0.58684983  1
  N  N52  1  0.55922014  0.54009760  0.32784390  1
  N  N53  1  0.44314674  0.43426052  0.08332847  1
  N  N54  1  0.22607099  0.53491076  0.82776652  1
  N  N55  1  0.11201079  0.42699733  0.57794764  1
  N  N56  1  0.88727792  0.53475769  0.32836141  1
  N  N57  1  0.77882579  0.42332948  0.07329630  1
  N  N58  1  0.55561110  0.54150733  0.82812144  1
  N  N59  1  0.44527015  0.42976158  0.57407038  1
  N  N60  1  0.22395021  0.87854799  0.32832181  1
  N  N61  1  0.11196010  0.76225058  0.10703787  1
  N  N62  1  0.88556986  0.87997648  0.88562521  1
  N  N63  1  0.77672145  0.76003287  0.56854872  1
  N  N64  1  0.55428523  0.87110358  0.30335212  1
  N  N65  1  0.45735696  0.77262215  0.08344983  1
  N  N66  1  0.22727488  0.87326664  0.82946814  1
  N  N67  1  0.11185403  0.76130550  0.59517935  1
  N  N68  1  0.87283504  0.90287138  0.36427145  1
  N  N69  1  0.74945294  0.76951515  0.08684483  1
  N  N70  1  0.55714319  0.87250624  0.82162364  1
  N  N71  1  0.44693647  0.76129528  0.57444722  1
