# generated using pymatgen
data_Al11BN12
_symmetry_space_group_name_H-M   'P 1'
_cell_length_a   9.27381913
_cell_length_b   9.27535163
_cell_length_c   10.12580622
_cell_angle_alpha   89.69092091
_cell_angle_beta   89.74393657
_cell_angle_gamma   60.10789015
_symmetry_Int_Tables_number   1
_chemical_formula_structural   Al11BN12
_chemical_formula_sum   'Al33 B3 N36'
_cell_volume   755.11507397
_cell_formula_units_Z   3
loop_
 _symmetry_equiv_pos_site_id
 _symmetry_equiv_pos_as_xyz
  1  'x, y, z'
loop_
 _atom_site_type_symbol
 _atom_site_label
 _atom_site_symmetry_multiplicity
 _atom_site_fract_x
 _atom_site_fract_y
 _atom_site_fract_z
 _atom_site_occupancy
  Al  Al0  1  0.10143808  0.09249412  0.39427519  1
  Al  Al1  1  0.21809583  0.20156646  0.13509587  1
  Al  Al2  1  0.77866347  0.09662177  0.81201985  1
  Al  Al3  1  0.45577455  0.08601262  0.31377661  1
  Al  Al4  1  0.55705217  0.19823875  0.07118187  1
  Al  Al5  1  0.10841420  0.09697492  0.88659880  1
  Al  Al6  1  0.21483760  0.21015000  0.63933312  1
  Al  Al7  1  0.88711420  0.20282965  0.14342366  1
  Al  Al8  1  0.45264309  0.09356086  0.82403879  1
  Al  Al9  1  0.56805563  0.20395959  0.56208448  1
  Al  Al10  1  0.10829569  0.42335621  0.38582385  1
  Al  Al11  1  0.22484073  0.54180498  0.06926031  1
  Al  Al12  1  0.78446105  0.42325139  0.88272822  1
  Al  Al13  1  0.89194287  0.53244451  0.63906348  1
  Al  Al14  1  0.45146825  0.42269729  0.31702467  1
  Al  Al15  1  0.55220490  0.54312751  0.06743181  1
  Al  Al16  1  0.10833909  0.42531006  0.88940911  1
  Al  Al17  1  0.22561604  0.54304965  0.56621170  1
  Al  Al18  1  0.78719538  0.41061380  0.39340841  1
  Al  Al19  1  0.88318742  0.53533006  0.13503432  1
  Al  Al20  1  0.44474343  0.42740142  0.81680515  1
  Al  Al21  1  0.55605018  0.53688543  0.57682406  1
  Al  Al22  1  0.10298774  0.76233696  0.31644338  1
  Al  Al23  1  0.22609292  0.87749890  0.13400437  1
  Al  Al24  1  0.77356311  0.77125294  0.82268262  1
  Al  Al25  1  0.88824604  0.88484050  0.56160697  1
  Al  Al26  1  0.45005030  0.75876344  0.33750055  1
  Al  Al27  1  0.10563773  0.75885321  0.81890808  1
  Al  Al28  1  0.21859019  0.88192787  0.64053700  1
  Al  Al29  1  0.76845748  0.77292687  0.31341429  1
  Al  Al30  1  0.88067890  0.87384360  0.07032227  1
  Al  Al31  1  0.44684940  0.76537663  0.84483686  1
  Al  Al32  1  0.55823486  0.87541764  0.57012409  1
  B  B33  1  0.89225025  0.20966783  0.64495400  1
  B  B34  1  0.77449290  0.09041935  0.30983079  1
  B  B35  1  0.55641300  0.87260561  0.06541352  1
  N  N36  1  0.21794135  0.20300780  0.32709323  1
  N  N37  1  0.10379386  0.09543341  0.07347819  1
  N  N38  1  0.89633303  0.21219720  0.80769854  1
  N  N39  1  0.79018033  0.10677689  0.62490923  1
  N  N40  1  0.58059301  0.19136933  0.36937853  1
  N  N41  1  0.45697598  0.06732938  0.12093968  1
  N  N42  1  0.21991938  0.20802445  0.82921437  1
  N  N43  1  0.08739701  0.10731569  0.58436030  1
  N  N44  1  0.87867589  0.19164225  0.32980610  1
  N  N45  1  0.77006678  0.08653245  0.14748856  1
  N  N46  1  0.56145210  0.20683525  0.88300585  1
  N  N47  1  0.45353058  0.09504201  0.63039103  1
  N  N48  1  0.22640168  0.54039328  0.37571889  1
  N  N49  1  0.10755102  0.42456970  0.07908635  1
  N  N50  1  0.89048738  0.53864270  0.82837164  1
  N  N51  1  0.79580483  0.39941939  0.58614061  1
  N  N52  1  0.55512235  0.53653185  0.38321575  1
  N  N53  1  0.44574951  0.42589720  0.12986594  1
  N  N54  1  0.22559499  0.54124990  0.87891527  1
  N  N55  1  0.10877141  0.42618286  0.57547554  1
  N  N56  1  0.88685862  0.53481920  0.32650415  1
  N  N57  1  0.78439792  0.41647997  0.07339725  1
  N  N58  1  0.55179609  0.53986987  0.87618749  1
  N  N59  1  0.44530752  0.42422330  0.62881370  1
  N  N60  1  0.22123028  0.87637823  0.32952380  1
  N  N61  1  0.10531001  0.76004969  0.12721845  1
  N  N62  1  0.88678518  0.87940079  0.88270402  1
  N  N63  1  0.77783898  0.77118492  0.62955598  1
  N  N64  1  0.55648029  0.87345658  0.38428358  1
  N  N65  1  0.45963050  0.77169366  0.11005944  1
  N  N66  1  0.21811376  0.87846988  0.83279185  1
  N  N67  1  0.10662356  0.76091463  0.62650649  1
  N  N68  1  0.87462149  0.89657931  0.36968551  1
  N  N69  1  0.74976722  0.77434539  0.12065884  1
  N  N70  1  0.55819716  0.87728416  0.90055977  1
  N  N71  1  0.45047476  0.76151687  0.62450901  1
