# generated using pymatgen
data_Al11BN12
_symmetry_space_group_name_H-M   'P 1'
_cell_length_a   9.27077159
_cell_length_b   9.27848283
_cell_length_c   9.97012589
_cell_angle_alpha   89.70750119
_cell_angle_beta   89.49602508
_cell_angle_gamma   59.94438848
_symmetry_Int_Tables_number   1
_chemical_formula_structural   Al11BN12
_chemical_formula_sum   'Al33 B3 N36'
_cell_volume   742.27278578
_cell_formula_units_Z   3
loop_
 _symmetry_equiv_pos_site_id
 _symmetry_equiv_pos_as_xyz
  1  'x, y, z'
loop_
 _atom_site_type_symbol
 _atom_site_label
 _atom_site_symmetry_multiplicity
 _atom_site_fract_x
 _atom_site_fract_y
 _atom_site_fract_z
 _atom_site_occupancy
  Al  Al0  1  0.09933167  0.09452682  0.40559268  1
  Al  Al1  1  0.22522131  0.20010164  0.15093110  1
  Al  Al2  1  0.78111227  0.09638644  0.86751753  1
  Al  Al3  1  0.44976627  0.08844243  0.38916984  1
  Al  Al4  1  0.56086687  0.19886241  0.08331112  1
  Al  Al5  1  0.10948106  0.09643715  0.89680948  1
  Al  Al6  1  0.21893291  0.20582941  0.64852228  1
  Al  Al7  1  0.88706387  0.20308597  0.14563756  1
  Al  Al8  1  0.44222217  0.08636774  0.89928646  1
  Al  Al9  1  0.57300897  0.19950272  0.59518337  1
  Al  Al10  1  0.10978116  0.42738951  0.40112799  1
  Al  Al11  1  0.22174852  0.53925907  0.15120650  1
  Al  Al12  1  0.77964836  0.42746170  0.89617589  1
  Al  Al13  1  0.88871579  0.53610699  0.64929583  1
  Al  Al14  1  0.44814816  0.42857635  0.39545903  1
  Al  Al15  1  0.55920706  0.54303261  0.15030045  1
  Al  Al16  1  0.11123061  0.42823604  0.89900092  1
  Al  Al17  1  0.22255550  0.53887762  0.64863057  1
  Al  Al18  1  0.77792003  0.41656424  0.40531011  1
  Al  Al19  1  0.88413248  0.54123126  0.15060563  1
  Al  Al20  1  0.43984730  0.43543184  0.89766545  1
  Al  Al21  1  0.55952019  0.53457651  0.64965217  1
  Al  Al22  1  0.10568392  0.76862551  0.39877280  1
  Al  Al23  1  0.22550436  0.87527055  0.15010962  1
  Al  Al24  1  0.77305725  0.76350208  0.90434139  1
  Al  Al25  1  0.89100605  0.87470349  0.65116656  1
  Al  Al26  1  0.44537359  0.76295795  0.39459211  1
  Al  Al27  1  0.11017499  0.76154093  0.90192623  1
  Al  Al28  1  0.21808165  0.87561716  0.65006038  1
  Al  Al29  1  0.77276020  0.76788292  0.39231521  1
  Al  Al30  1  0.88083878  0.88004153  0.14432828  1
  Al  Al31  1  0.44676592  0.76356728  0.90330401  1
  Al  Al32  1  0.55636608  0.87201312  0.64736041  1
  B  B33  1  0.89011043  0.20494389  0.66087565  1
  B  B34  1  0.77658522  0.09511538  0.35987045  1
  B  B35  1  0.55517233  0.87206970  0.15305635  1
  N  N36  1  0.21893175  0.20398233  0.34203982  1
  N  N37  1  0.10998251  0.09616093  0.08834675  1
  N  N38  1  0.89517846  0.21242336  0.82356471  1
  N  N39  1  0.79430234  0.10647650  0.63609748  1
  N  N40  1  0.58974662  0.18865094  0.37504432  1
  N  N41  1  0.45582285  0.06649504  0.09852149  1
  N  N42  1  0.22326304  0.20531165  0.83944305  1
  N  N43  1  0.08676595  0.10668852  0.59790290  1
  N  N44  1  0.87302347  0.18979277  0.33975205  1
  N  N45  1  0.78844014  0.09179193  0.07445394  1
  N  N46  1  0.54847753  0.20756782  0.87783462  1
  N  N47  1  0.44434114  0.09195463  0.58348735  1
  N  N48  1  0.22050425  0.54016756  0.34109496  1
  N  N49  1  0.11201950  0.42698322  0.09080944  1
  N  N50  1  0.88792900  0.54250928  0.84097024  1
  N  N51  1  0.79063120  0.40288865  0.59762769  1
  N  N52  1  0.55886447  0.53905082  0.34018107  1
  N  N53  1  0.44362948  0.43427580  0.09325382  1
  N  N54  1  0.22071127  0.54126100  0.83906068  1
  N  N55  1  0.11138377  0.42808854  0.59055660  1
  N  N56  1  0.88671138  0.53669993  0.34210176  1
  N  N57  1  0.78014564  0.42554281  0.08793450  1
  N  N58  1  0.55526865  0.54187545  0.84054602  1
  N  N59  1  0.44387349  0.43040969  0.58770719  1
  N  N60  1  0.22112344  0.87492058  0.34074569  1
  N  N61  1  0.11082984  0.76213010  0.09357671  1
  N  N62  1  0.89142863  0.86407578  0.84220637  1
  N  N63  1  0.77800069  0.76315281  0.58378451  1
  N  N64  1  0.55547947  0.87115439  0.31732922  1
  N  N65  1  0.45748366  0.77345152  0.09722868  1
  N  N66  1  0.22383236  0.87143289  0.84209178  1
  N  N67  1  0.11135112  0.76141324  0.58802047  1
  N  N68  1  0.87307968  0.90277756  0.34057152  1
  N  N69  1  0.75372200  0.77348264  0.09916984  1
  N  N70  1  0.55669069  0.87042188  0.83535576  1
  N  N71  1  0.44543861  0.76154405  0.58632357  1
