# generated using pymatgen
data_Al11BN12
_symmetry_space_group_name_H-M   'P 1'
_cell_length_a   9.29136198
_cell_length_b   9.29420397
_cell_length_c   10.12447976
_cell_angle_alpha   89.78900086
_cell_angle_beta   89.88788456
_cell_angle_gamma   60.11604240
_symmetry_Int_Tables_number   1
_chemical_formula_structural   Al11BN12
_chemical_formula_sum   'Al33 B3 N36'
_cell_volume   758.05134182
_cell_formula_units_Z   3
loop_
 _symmetry_equiv_pos_site_id
 _symmetry_equiv_pos_as_xyz
  1  'x, y, z'
loop_
 _atom_site_type_symbol
 _atom_site_label
 _atom_site_symmetry_multiplicity
 _atom_site_fract_x
 _atom_site_fract_y
 _atom_site_fract_z
 _atom_site_occupancy
  Al  Al0  1  0.09800591  0.09424421  0.39542650  1
  Al  Al1  1  0.22566254  0.19567947  0.14279166  1
  Al  Al2  1  0.78013522  0.09527276  0.81432011  1
  Al  Al3  1  0.44706515  0.09200989  0.37018815  1
  Al  Al4  1  0.55701950  0.19258434  0.07247628  1
  Al  Al5  1  0.11164879  0.09789109  0.88724752  1
  Al  Al6  1  0.21080385  0.21224560  0.63594100  1
  Al  Al7  1  0.88765089  0.20320924  0.14349475  1
  Al  Al8  1  0.45053789  0.09587406  0.81434192  1
  Al  Al9  1  0.57269893  0.21077617  0.56303930  1
  Al  Al10  1  0.10820704  0.42934142  0.38948377  1
  Al  Al11  1  0.21904183  0.53468624  0.13358865  1
  Al  Al12  1  0.78152877  0.42696931  0.88676651  1
  Al  Al13  1  0.89467465  0.52942797  0.63758041  1
  Al  Al14  1  0.45398445  0.41667227  0.31760619  1
  Al  Al15  1  0.56238681  0.54437417  0.13570948  1
  Al  Al16  1  0.11131814  0.42659012  0.89174074  1
  Al  Al17  1  0.22008925  0.53753276  0.63571854  1
  Al  Al18  1  0.77790577  0.41662962  0.39472693  1
  Al  Al19  1  0.88456679  0.53410253  0.13930075  1
  Al  Al20  1  0.44898937  0.42217978  0.82790913  1
  Al  Al21  1  0.56375593  0.53762866  0.64432503  1
  Al  Al22  1  0.10034690  0.77010306  0.31819326  1
  Al  Al23  1  0.22856657  0.87845127  0.13603259  1
  Al  Al24  1  0.77951870  0.76768946  0.81159751  1
  Al  Al25  1  0.89127666  0.88444396  0.55995777  1
  Al  Al26  1  0.44072475  0.75662358  0.39588996  1
  Al  Al27  1  0.10419866  0.76607514  0.82719114  1
  Al  Al28  1  0.22061778  0.88010532  0.64390948  1
  Al  Al29  1  0.76579078  0.77305858  0.32521021  1
  Al  Al30  1  0.87766351  0.87467785  0.07253710  1
  Al  Al31  1  0.44973553  0.76695979  0.88760915  1
  Al  Al32  1  0.55971595  0.86986642  0.59629424  1
  B  B33  1  0.89282977  0.20761076  0.64731505  1
  B  B34  1  0.77478094  0.09147179  0.30977940  1
  B  B35  1  0.55297234  0.87526354  0.10684593  1
  N  N36  1  0.21665645  0.20496884  0.33403148  1
  N  N37  1  0.10533639  0.09732630  0.07569151  1
  N  N38  1  0.89673935  0.21237802  0.81115694  1
  N  N39  1  0.79216853  0.10535352  0.62743148  1
  N  N40  1  0.58444700  0.19275352  0.37256954  1
  N  N41  1  0.45842231  0.05936002  0.11538662  1
  N  N42  1  0.22043580  0.20945494  0.82552114  1
  N  N43  1  0.08522359  0.10769792  0.58617569  1
  N  N44  1  0.87706280  0.19439640  0.33044387  1
  N  N45  1  0.77005618  0.08718806  0.14787494  1
  N  N46  1  0.56261247  0.20098193  0.88297410  1
  N  N47  1  0.44382163  0.10644416  0.60423045  1
  N  N48  1  0.22058593  0.53657428  0.33200006  1
  N  N49  1  0.11019529  0.42211648  0.08008281  1
  N  N50  1  0.89293663  0.53629197  0.82915846  1
  N  N51  1  0.79121300  0.40227004  0.58613303  1
  N  N52  1  0.56061512  0.54138199  0.32772333  1
  N  N53  1  0.44950819  0.41947774  0.12240387  1
  N  N54  1  0.21981418  0.53697022  0.83603298  1
  N  N55  1  0.11071395  0.42897970  0.57513992  1
  N  N56  1  0.88743391  0.53433637  0.32977481  1
  N  N57  1  0.78063977  0.42030074  0.07463968  1
  N  N58  1  0.55952954  0.54318944  0.83554630  1
  N  N59  1  0.45010384  0.42202917  0.62900806  1
  N  N60  1  0.22457850  0.87747904  0.32825810  1
  N  N61  1  0.10395527  0.76527105  0.12280146  1
  N  N62  1  0.88386627  0.87876929  0.88523130  1
  N  N63  1  0.79107538  0.76223607  0.61922398  1
  N  N64  1  0.55784651  0.86963365  0.39348218  1
  N  N65  1  0.46013857  0.77576008  0.08196958  1
  N  N66  1  0.22579702  0.87619519  0.83532814  1
  N  N67  1  0.10460483  0.76718748  0.62734099  1
  N  N68  1  0.87408940  0.89989704  0.36910921  1
  N  N69  1  0.74363243  0.77577877  0.12740984  1
  N  N70  1  0.55405817  0.87216509  0.81760550  1
  N  N71  1  0.43854320  0.75512911  0.58294181  1
