# generated using pymatgen
data_Al11BN12
_symmetry_space_group_name_H-M   'P 1'
_cell_length_a   9.28756391
_cell_length_b   9.29044043
_cell_length_c   9.96544105
_cell_angle_alpha   89.47271765
_cell_angle_beta   89.39162460
_cell_angle_gamma   59.96519212
_symmetry_Int_Tables_number   1
_chemical_formula_structural   Al11BN12
_chemical_formula_sum   'Al33 B3 N36'
_cell_volume   744.36162769
_cell_formula_units_Z   3
loop_
 _symmetry_equiv_pos_site_id
 _symmetry_equiv_pos_as_xyz
  1  'x, y, z'
loop_
 _atom_site_type_symbol
 _atom_site_label
 _atom_site_symmetry_multiplicity
 _atom_site_fract_x
 _atom_site_fract_y
 _atom_site_fract_z
 _atom_site_occupancy
  Al  Al0  1  0.09965583  0.09480100  0.40585463  1
  Al  Al1  1  0.22495176  0.20037520  0.15123112  1
  Al  Al2  1  0.77812259  0.09881637  0.85615209  1
  Al  Al3  1  0.45040574  0.08861355  0.38915022  1
  Al  Al4  1  0.56022966  0.19931318  0.08262463  1
  Al  Al5  1  0.10915809  0.09633188  0.89799384  1
  Al  Al6  1  0.21850921  0.20554540  0.64913665  1
  Al  Al7  1  0.88692176  0.20338647  0.14858366  1
  Al  Al8  1  0.44177726  0.08628676  0.89950911  1
  Al  Al9  1  0.57136730  0.20008063  0.59229586  1
  Al  Al10  1  0.11017102  0.42761015  0.40100753  1
  Al  Al11  1  0.22203130  0.53929047  0.15157277  1
  Al  Al12  1  0.77964989  0.42645522  0.89803901  1
  Al  Al13  1  0.88905204  0.53429323  0.64931102  1
  Al  Al14  1  0.44860928  0.42919124  0.39577689  1
  Al  Al15  1  0.55930435  0.54281684  0.15074816  1
  Al  Al16  1  0.11119639  0.42769803  0.89938786  1
  Al  Al17  1  0.22304028  0.53761275  0.64864788  1
  Al  Al18  1  0.77838960  0.41653510  0.40564158  1
  Al  Al19  1  0.88396339  0.54149463  0.15129970  1
  Al  Al20  1  0.44007081  0.43488524  0.89819181  1
  Al  Al21  1  0.55926028  0.53445520  0.65017171  1
  Al  Al22  1  0.10644141  0.76909810  0.39855539  1
  Al  Al23  1  0.22561872  0.87589257  0.15072536  1
  Al  Al24  1  0.77086744  0.76036932  0.90022788  1
  Al  Al25  1  0.88966096  0.87557184  0.63997729  1
  Al  Al26  1  0.44638418  0.76307516  0.39432552  1
  Al  Al27  1  0.11470947  0.75901472  0.89808905  1
  Al  Al28  1  0.21874582  0.87575005  0.65000429  1
  Al  Al29  1  0.77375818  0.76925815  0.39155921  1
  Al  Al30  1  0.88201306  0.87787730  0.11174076  1
  Al  Al31  1  0.44650274  0.76328215  0.90395738  1
  Al  Al32  1  0.55500540  0.87181670  0.64703784  1
  B  B33  1  0.89046675  0.20706196  0.66256889  1
  B  B34  1  0.77928590  0.09225233  0.36198145  1
  B  B35  1  0.55444379  0.87259650  0.15286684  1
  N  N36  1  0.21949180  0.20435077  0.34235066  1
  N  N37  1  0.10936329  0.09672022  0.08939729  1
  N  N38  1  0.89622712  0.21345611  0.82424041  1
  N  N39  1  0.79028156  0.10757516  0.64528275  1
  N  N40  1  0.59092025  0.18906153  0.37987395  1
  N  N41  1  0.45524017  0.06657009  0.09857568  1
  N  N42  1  0.22292987  0.20515342  0.84017614  1
  N  N43  1  0.08559134  0.10696957  0.59846850  1
  N  N44  1  0.87384741  0.19023627  0.34202065  1
  N  N45  1  0.78511059  0.09765747  0.07767981  1
  N  N46  1  0.54731554  0.20777354  0.87900239  1
  N  N47  1  0.44317538  0.09169097  0.58378472  1
  N  N48  1  0.22112826  0.54055236  0.34144366  1
  N  N49  1  0.11163370  0.42784603  0.09125821  1
  N  N50  1  0.88845147  0.54024425  0.84054109  1
  N  N51  1  0.79047523  0.40190109  0.59829988  1
  N  N52  1  0.55947459  0.53941613  0.34067840  1
  N  N53  1  0.44345363  0.43439615  0.09388374  1
  N  N54  1  0.22175583  0.53934567  0.83864915  1
  N  N55  1  0.11135014  0.42770887  0.59065045  1
  N  N56  1  0.88703225  0.53739598  0.34265196  1
  N  N57  1  0.78033297  0.42583644  0.08946454  1
  N  N58  1  0.55547443  0.54163094  0.84141854  1
  N  N59  1  0.44363267  0.43089766  0.58830173  1
  N  N60  1  0.22223436  0.87532292  0.34116016  1
  N  N61  1  0.11493113  0.76089341  0.09103032  1
  N  N62  1  0.89101519  0.86426098  0.85217375  1
  N  N63  1  0.77658266  0.76087715  0.58505883  1
  N  N64  1  0.55631200  0.87161277  0.31692550  1
  N  N65  1  0.45703221  0.77365958  0.09768166  1
  N  N66  1  0.22481506  0.87208399  0.84153119  1
  N  N67  1  0.11334223  0.76040570  0.58955664  1
  N  N68  1  0.87372548  0.90458949  0.35678641  1
  N  N69  1  0.75186677  0.77218463  0.09638673  1
  N  N70  1  0.55475270  0.87093097  0.83474007  1
  N  N71  1  0.44531046  0.76113091  0.58613745  1
