# generated using pymatgen
data_Al11BN12
_symmetry_space_group_name_H-M   'P 1'
_cell_length_a   9.28683528
_cell_length_b   9.29324052
_cell_length_c   10.04435742
_cell_angle_alpha   89.43548602
_cell_angle_beta   89.45634053
_cell_angle_gamma   60.01197036
_symmetry_Int_Tables_number   1
_chemical_formula_structural   Al11BN12
_chemical_formula_sum   'Al33 B3 N36'
_cell_volume   750.78047937
_cell_formula_units_Z   3
loop_
 _symmetry_equiv_pos_site_id
 _symmetry_equiv_pos_as_xyz
  1  'x, y, z'
loop_
 _atom_site_type_symbol
 _atom_site_label
 _atom_site_symmetry_multiplicity
 _atom_site_fract_x
 _atom_site_fract_y
 _atom_site_fract_z
 _atom_site_occupancy
  Al  Al0  1  0.09826913  0.09572236  0.39494668  1
  Al  Al1  1  0.22283671  0.19939497  0.13962943  1
  Al  Al2  1  0.77667270  0.09500559  0.81372100  1
  Al  Al3  1  0.44738596  0.08743118  0.37517064  1
  Al  Al4  1  0.56108107  0.19757744  0.08145639  1
  Al  Al5  1  0.11003629  0.09603252  0.88425939  1
  Al  Al6  1  0.22188606  0.20576669  0.63731439  1
  Al  Al7  1  0.88900994  0.20573513  0.14285000  1
  Al  Al8  1  0.44505104  0.08617857  0.89250061  1
  Al  Al9  1  0.57190592  0.20492268  0.55894922  1
  Al  Al10  1  0.10917664  0.42548155  0.39007240  1
  Al  Al11  1  0.21945628  0.53478933  0.13630547  1
  Al  Al12  1  0.78073972  0.42646215  0.88403396  1
  Al  Al13  1  0.88939191  0.53805684  0.63712640  1
  Al  Al14  1  0.45053447  0.42267520  0.34565753  1
  Al  Al15  1  0.56110111  0.54441339  0.13776904  1
  Al  Al16  1  0.11077808  0.42691731  0.88836797  1
  Al  Al17  1  0.22508723  0.53335116  0.63305042  1
  Al  Al18  1  0.77950171  0.41487962  0.39519051  1
  Al  Al19  1  0.88250500  0.54010485  0.13945192  1
  Al  Al20  1  0.44555059  0.42857390  0.86728326  1
  Al  Al21  1  0.56040415  0.53560741  0.63724718  1
  Al  Al22  1  0.10071191  0.77014429  0.32015874  1
  Al  Al23  1  0.22882297  0.87822875  0.13713804  1
  Al  Al24  1  0.76972101  0.76178704  0.89218551  1
  Al  Al25  1  0.89053845  0.88750101  0.55966882  1
  Al  Al26  1  0.44577628  0.76196210  0.38438575  1
  Al  Al27  1  0.10282404  0.76605596  0.82195174  1
  Al  Al28  1  0.22277391  0.87926948  0.63646208  1
  Al  Al29  1  0.77169886  0.76378618  0.37619715  1
  Al  Al30  1  0.88467979  0.87665126  0.07654477  1
  Al  Al31  1  0.44669933  0.76458468  0.89149432  1
  Al  Al32  1  0.55848870  0.87411590  0.63437010  1
  B  B33  1  0.89297186  0.21016567  0.64695630  1
  B  B34  1  0.77534592  0.09124859  0.30827134  1
  B  B35  1  0.55501623  0.87077881  0.14128581  1
  N  N36  1  0.21777514  0.20377327  0.32900999  1
  N  N37  1  0.10593109  0.09684025  0.07379077  1
  N  N38  1  0.89547951  0.21219300  0.81017961  1
  N  N39  1  0.78916377  0.10598722  0.62648121  1
  N  N40  1  0.58586005  0.18954585  0.36395358  1
  N  N41  1  0.45259592  0.06581174  0.08759095  1
  N  N42  1  0.22673363  0.20488405  0.82802272  1
  N  N43  1  0.08607810  0.10901524  0.58663141  1
  N  N44  1  0.87819254  0.19511831  0.33060458  1
  N  N45  1  0.77388895  0.08781612  0.14808210  1
  N  N46  1  0.56400271  0.20127349  0.88696957  1
  N  N47  1  0.44417908  0.09265807  0.56892202  1
  N  N48  1  0.21908741  0.53562191  0.33132161  1
  N  N49  1  0.10888300  0.42552680  0.07779607  1
  N  N50  1  0.88870135  0.54361670  0.82775045  1
  N  N51  1  0.79230210  0.40267845  0.58724359  1
  N  N52  1  0.56180502  0.54044060  0.32831656  1
  N  N53  1  0.44610456  0.42842464  0.10530863  1
  N  N54  1  0.22241747  0.53526724  0.83094312  1
  N  N55  1  0.11070005  0.42689835  0.57813091  1
  N  N56  1  0.88727938  0.53457873  0.32907034  1
  N  N57  1  0.78024655  0.42260655  0.07355757  1
  N  N58  1  0.55708380  0.54332084  0.82989460  1
  N  N59  1  0.44726620  0.42724026  0.59221459  1
  N  N60  1  0.22389460  0.87781116  0.33096787  1
  N  N61  1  0.10743610  0.76492483  0.12446139  1
  N  N62  1  0.88674566  0.87973203  0.88547453  1
  N  N63  1  0.77715198  0.76027064  0.56942652  1
  N  N64  1  0.55504103  0.87049127  0.30382870  1
  N  N65  1  0.45718365  0.77312199  0.08378962  1
  N  N66  1  0.22741037  0.87424636  0.83011288  1
  N  N67  1  0.10478562  0.76563444  0.62356910  1
  N  N68  1  0.87488455  0.90198777  0.36779867  1
  N  N69  1  0.74995938  0.76967949  0.08672228  1
  N  N70  1  0.55675992  0.87332795  0.82213119  1
  N  N71  1  0.44743305  0.76232159  0.57448145  1
