# generated using pymatgen
data_Al11BN12
_symmetry_space_group_name_H-M   'P 1'
_cell_length_a   9.26222092
_cell_length_b   9.26763474
_cell_length_c   10.07195704
_cell_angle_alpha   89.85115611
_cell_angle_beta   89.57583724
_cell_angle_gamma   60.04996506
_symmetry_Int_Tables_number   1
_chemical_formula_structural   Al11BN12
_chemical_formula_sum   'Al33 B3 N36'
_cell_volume   749.09126058
_cell_formula_units_Z   3
loop_
 _symmetry_equiv_pos_site_id
 _symmetry_equiv_pos_as_xyz
  1  'x, y, z'
loop_
 _atom_site_type_symbol
 _atom_site_label
 _atom_site_symmetry_multiplicity
 _atom_site_fract_x
 _atom_site_fract_y
 _atom_site_fract_z
 _atom_site_occupancy
  Al  Al0  1  0.09167195  0.10639904  0.38891239  1
  Al  Al1  1  0.22130701  0.19627780  0.12775118  1
  Al  Al2  1  0.77893671  0.09173181  0.80851971  1
  Al  Al3  1  0.45643495  0.08511694  0.31033489  1
  Al  Al4  1  0.55652395  0.19831341  0.06491933  1
  Al  Al5  1  0.10923329  0.09968610  0.88006010  1
  Al  Al6  1  0.21870454  0.20196878  0.63147082  1
  Al  Al7  1  0.88951351  0.19745599  0.13628224  1
  Al  Al8  1  0.45443521  0.08847632  0.81993540  1
  Al  Al9  1  0.56870224  0.20391750  0.55599957  1
  Al  Al10  1  0.10724942  0.43489866  0.31161376  1
  Al  Al11  1  0.22222299  0.53853327  0.06091491  1
  Al  Al12  1  0.77778212  0.43177754  0.80758593  1
  Al  Al13  1  0.89028527  0.53616277  0.56133491  1
  Al  Al14  1  0.44876805  0.42474208  0.31056321  1
  Al  Al15  1  0.55809675  0.54038465  0.06073712  1
  Al  Al16  1  0.10866936  0.43523849  0.81305734  1
  Al  Al17  1  0.22343302  0.53851315  0.56017368  1
  Al  Al18  1  0.77155389  0.43035254  0.31585330  1
  Al  Al19  1  0.88191987  0.54156296  0.06064815  1
  Al  Al20  1  0.44704863  0.42581750  0.81094997  1
  Al  Al21  1  0.56043139  0.53461905  0.56185038  1
  Al  Al22  1  0.10680645  0.76978913  0.31175988  1
  Al  Al23  1  0.22936357  0.86541269  0.06062228  1
  Al  Al24  1  0.77652402  0.76385470  0.81692574  1
  Al  Al25  1  0.88771568  0.88339063  0.55684658  1
  Al  Al26  1  0.44311427  0.76693219  0.30909083  1
  Al  Al27  1  0.11101302  0.76224811  0.81076185  1
  Al  Al28  1  0.22308865  0.86991268  0.56735506  1
  Al  Al29  1  0.77114978  0.76874633  0.30678602  1
  Al  Al30  1  0.88224268  0.87262616  0.06513946  1
  Al  Al31  1  0.44811540  0.76147215  0.81751047  1
  Al  Al32  1  0.55883527  0.87185745  0.56248487  1
  B  B33  1  0.89536204  0.20275031  0.64375540  1
  B  B34  1  0.77393748  0.09145750  0.30502592  1
  B  B35  1  0.55586920  0.87151262  0.06029498  1
  N  N36  1  0.21935973  0.20168922  0.32514869  1
  N  N37  1  0.10259852  0.09854351  0.06881460  1
  N  N38  1  0.89983700  0.20151466  0.80818922  1
  N  N39  1  0.78994149  0.10548747  0.62016491  1
  N  N40  1  0.57939068  0.19286994  0.36294815  1
  N  N41  1  0.45882116  0.06519863  0.11476490  1
  N  N42  1  0.22377423  0.20374552  0.82647393  1
  N  N43  1  0.08239009  0.11134047  0.58099145  1
  N  N44  1  0.87506098  0.19257315  0.32545301  1
  N  N45  1  0.76963633  0.08589693  0.13970014  1
  N  N46  1  0.56085218  0.20467826  0.87626626  1
  N  N47  1  0.45633998  0.09137643  0.62329678  1
  N  N48  1  0.22197430  0.54110572  0.37113731  1
  N  N49  1  0.10584186  0.43354981  0.11952701  1
  N  N50  1  0.88771217  0.54018204  0.87223268  1
  N  N51  1  0.78777282  0.41008878  0.61684525  1
  N  N52  1  0.55061790  0.54387172  0.37245387  1
  N  N53  1  0.44463126  0.42646781  0.12146449  1
  N  N54  1  0.22408495  0.53971398  0.87203958  1
  N  N55  1  0.10903714  0.43369847  0.62098508  1
  N  N56  1  0.88535248  0.54331979  0.37141945  1
  N  N57  1  0.77533788  0.42943081  0.12306286  1
  N  N58  1  0.55855434  0.53655318  0.87182996  1
  N  N59  1  0.44630429  0.42565106  0.62033135  1
  N  N60  1  0.22354158  0.87193559  0.37509744  1
  N  N61  1  0.11002411  0.76176427  0.12290142  1
  N  N62  1  0.88927081  0.87434590  0.87583921  1
  N  N63  1  0.77986966  0.76345492  0.62458985  1
  N  N64  1  0.55581024  0.87072583  0.37636780  1
  N  N65  1  0.45578192  0.77267421  0.11606748  1
  N  N66  1  0.22659242  0.86559427  0.87037593  1
  N  N67  1  0.10908221  0.76164899  0.62130226  1
  N  N68  1  0.87407480  0.89710915  0.36313266  1
  N  N69  1  0.75198670  0.77119564  0.11503363  1
  N  N70  1  0.55726008  0.87077050  0.89426798  1
  N  N71  1  0.44827590  0.76099021  0.62717164  1
