# generated using pymatgen
data_Al11BN12
_symmetry_space_group_name_H-M   'P 1'
_cell_length_a   9.30398389
_cell_length_b   9.28122836
_cell_length_c   10.08051412
_cell_angle_alpha   89.70762540
_cell_angle_beta   89.58780424
_cell_angle_gamma   59.98814565
_symmetry_Int_Tables_number   1
_chemical_formula_structural   Al11BN12
_chemical_formula_sum   'Al33 B3 N36'
_cell_volume   753.74412104
_cell_formula_units_Z   3
loop_
 _symmetry_equiv_pos_site_id
 _symmetry_equiv_pos_as_xyz
  1  'x, y, z'
loop_
 _atom_site_type_symbol
 _atom_site_label
 _atom_site_symmetry_multiplicity
 _atom_site_fract_x
 _atom_site_fract_y
 _atom_site_fract_z
 _atom_site_occupancy
  Al  Al0  1  0.10262997  0.09138241  0.39384765  1
  Al  Al1  1  0.21818724  0.20166846  0.13686670  1
  Al  Al2  1  0.77829862  0.09581888  0.81285374  1
  Al  Al3  1  0.45709791  0.08527762  0.31537539  1
  Al  Al4  1  0.55683100  0.19881157  0.07236313  1
  Al  Al5  1  0.10886479  0.09570781  0.88720396  1
  Al  Al6  1  0.21633535  0.20829988  0.64042568  1
  Al  Al7  1  0.88601176  0.20473999  0.14466554  1
  Al  Al8  1  0.45322979  0.09096989  0.82627677  1
  Al  Al9  1  0.56819670  0.20391258  0.56293967  1
  Al  Al10  1  0.10968763  0.42297127  0.38706440  1
  Al  Al11  1  0.22522099  0.54176939  0.06956743  1
  Al  Al12  1  0.78160898  0.42242953  0.87984936  1
  Al  Al13  1  0.89009801  0.53507567  0.62596180  1
  Al  Al14  1  0.45178625  0.42406156  0.31823036  1
  Al  Al15  1  0.54941771  0.54541243  0.06602185  1
  Al  Al16  1  0.11176053  0.42343053  0.88679721  1
  Al  Al17  1  0.22673139  0.54279833  0.56733161  1
  Al  Al18  1  0.78595623  0.41156343  0.39326212  1
  Al  Al19  1  0.88083114  0.54120991  0.10805757  1
  Al  Al20  1  0.44502061  0.42692030  0.81703564  1
  Al  Al21  1  0.55401188  0.53946177  0.57470948  1
  Al  Al22  1  0.10416012  0.76248423  0.31789019  1
  Al  Al23  1  0.22294674  0.87873336  0.13290620  1
  Al  Al24  1  0.77294893  0.77025884  0.82449788  1
  Al  Al25  1  0.88768442  0.88497889  0.56170073  1
  Al  Al26  1  0.45589337  0.75810144  0.31784227  1
  Al  Al27  1  0.10531867  0.75913539  0.81980753  1
  Al  Al28  1  0.21588142  0.88336971  0.63962605  1
  Al  Al29  1  0.77181761  0.76767496  0.31471439  1
  Al  Al30  1  0.88041251  0.87565871  0.07118993  1
  Al  Al31  1  0.44992161  0.76290152  0.82676492  1
  Al  Al32  1  0.55805774  0.87471552  0.56865068  1
  B  B33  1  0.89102858  0.20973087  0.64617450  1
  B  B34  1  0.77480440  0.09007637  0.31065652  1
  B  B35  1  0.55491339  0.87299556  0.06613454  1
  N  N36  1  0.21939797  0.20223681  0.32883721  1
  N  N37  1  0.10295105  0.09716155  0.07459626  1
  N  N38  1  0.89674281  0.21017494  0.80858127  1
  N  N39  1  0.78979198  0.10665923  0.62533773  1
  N  N40  1  0.58078161  0.19181599  0.36988628  1
  N  N41  1  0.45712852  0.06717677  0.12118124  1
  N  N42  1  0.22119052  0.20520743  0.83039076  1
  N  N43  1  0.08696750  0.10827032  0.58466345  1
  N  N44  1  0.87888865  0.19130113  0.33129583  1
  N  N45  1  0.76971629  0.08795680  0.14780242  1
  N  N46  1  0.56092366  0.20600496  0.88337509  1
  N  N47  1  0.45471687  0.09371088  0.63102732  1
  N  N48  1  0.22703794  0.53993716  0.37642428  1
  N  N49  1  0.11011028  0.42368620  0.07950592  1
  N  N50  1  0.88894331  0.54061309  0.84107444  1
  N  N51  1  0.79308463  0.39969392  0.58887603  1
  N  N52  1  0.55369910  0.54031748  0.38246186  1
  N  N53  1  0.44520277  0.42703571  0.13005212  1
  N  N54  1  0.22613618  0.54084983  0.87825390  1
  N  N55  1  0.11264226  0.42493632  0.58011276  1
  N  N56  1  0.88598037  0.53774998  0.34372125  1
  N  N57  1  0.78068395  0.41705607  0.07321859  1
  N  N58  1  0.54935852  0.54160182  0.87603196  1
  N  N59  1  0.44602055  0.42515059  0.62850748  1
  N  N60  1  0.22351045  0.87476231  0.32965028  1
  N  N61  1  0.10453941  0.76049836  0.12691646  1
  N  N62  1  0.88590854  0.87912330  0.88299783  1
  N  N63  1  0.77701207  0.77130950  0.63099936  1
  N  N64  1  0.55706129  0.87159485  0.38333481  1
  N  N65  1  0.46166162  0.77083973  0.12153148  1
  N  N66  1  0.21871036  0.87681636  0.83399766  1
  N  N67  1  0.10609612  0.76156079  0.62605184  1
  N  N68  1  0.87452488  0.89627058  0.36948056  1
  N  N69  1  0.74973443  0.77549060  0.12027402  1
  N  N70  1  0.55556654  0.87366364  0.90183766  1
  N  N71  1  0.45248272  0.76186395  0.63338752  1
