# generated using pymatgen
data_Al11BN12
_symmetry_space_group_name_H-M   'P 1'
_cell_length_a   9.26583807
_cell_length_b   9.26613788
_cell_length_c   10.05090536
_cell_angle_alpha   89.81243327
_cell_angle_beta   89.45808136
_cell_angle_gamma   60.07537218
_symmetry_Int_Tables_number   1
_chemical_formula_structural   Al11BN12
_chemical_formula_sum   'Al33 B3 N36'
_cell_volume   747.87427786
_cell_formula_units_Z   3
loop_
 _symmetry_equiv_pos_site_id
 _symmetry_equiv_pos_as_xyz
  1  'x, y, z'
loop_
 _atom_site_type_symbol
 _atom_site_label
 _atom_site_symmetry_multiplicity
 _atom_site_fract_x
 _atom_site_fract_y
 _atom_site_fract_z
 _atom_site_occupancy
  Al  Al0  1  0.09382897  0.10454288  0.37901848  1
  Al  Al1  1  0.22495758  0.19577870  0.13017290  1
  Al  Al2  1  0.78115161  0.09650255  0.81346144  1
  Al  Al3  1  0.45918576  0.08477312  0.31059018  1
  Al  Al4  1  0.55765527  0.19765063  0.06320888  1
  Al  Al5  1  0.10712296  0.10081803  0.88764773  1
  Al  Al6  1  0.21646856  0.20296307  0.62948492  1
  Al  Al7  1  0.88729203  0.20004572  0.11649611  1
  Al  Al8  1  0.45201861  0.08868687  0.81917828  1
  Al  Al9  1  0.56689290  0.20512244  0.55583307  1
  Al  Al10  1  0.10759907  0.43529229  0.31197817  1
  Al  Al11  1  0.22260419  0.53797498  0.06046305  1
  Al  Al12  1  0.78053759  0.42309248  0.81391131  1
  Al  Al13  1  0.89089411  0.53593855  0.56112781  1
  Al  Al14  1  0.44984094  0.42447266  0.30999550  1
  Al  Al15  1  0.55874405  0.54042915  0.05878506  1
  Al  Al16  1  0.10768099  0.43508270  0.81257150  1
  Al  Al17  1  0.22319176  0.53891316  0.55953710  1
  Al  Al18  1  0.77303313  0.42831789  0.31151600  1
  Al  Al19  1  0.88239140  0.54200152  0.05923762  1
  Al  Al20  1  0.44600673  0.42599181  0.81095679  1
  Al  Al21  1  0.55932649  0.53463565  0.56205874  1
  Al  Al22  1  0.10691838  0.76959958  0.31068020  1
  Al  Al23  1  0.23200192  0.86341425  0.06216292  1
  Al  Al24  1  0.77536255  0.76415975  0.81647274  1
  Al  Al25  1  0.88845214  0.88278678  0.55654175  1
  Al  Al26  1  0.44555981  0.76529186  0.30828961  1
  Al  Al27  1  0.11018297  0.76300065  0.81108465  1
  Al  Al28  1  0.22212415  0.86980436  0.56513426  1
  Al  Al29  1  0.77238606  0.76814985  0.30608144  1
  Al  Al30  1  0.88247747  0.87314054  0.06350201  1
  Al  Al31  1  0.44655859  0.76254623  0.81734663  1
  Al  Al32  1  0.55852981  0.87198214  0.56139365  1
  B  B33  1  0.88871286  0.20695071  0.60689334  1
  B  B34  1  0.77609244  0.09282349  0.30155633  1
  B  B35  1  0.55662163  0.87117715  0.05992191  1
  N  N36  1  0.22259197  0.20257322  0.32772936  1
  N  N37  1  0.11293860  0.09254815  0.07813440  1
  N  N38  1  0.88419666  0.20766517  0.86696258  1
  N  N39  1  0.79331161  0.11034586  0.61961756  1
  N  N40  1  0.58068996  0.19318746  0.36333447  1
  N  N41  1  0.46103284  0.06466460  0.11508146  1
  N  N42  1  0.22033242  0.20297359  0.82396801  1
  N  N43  1  0.07672390  0.11402374  0.57690453  1
  N  N44  1  0.87571074  0.19247836  0.32098121  1
  N  N45  1  0.76991621  0.08568879  0.13925147  1
  N  N46  1  0.55796698  0.20439323  0.87373555  1
  N  N47  1  0.45514003  0.09158949  0.62201806  1
  N  N48  1  0.22262556  0.54150176  0.37052226  1
  N  N49  1  0.10626165  0.43292652  0.11938914  1
  N  N50  1  0.88651681  0.54044963  0.86990825  1
  N  N51  1  0.79213599  0.40081931  0.61724819  1
  N  N52  1  0.55278440  0.54255971  0.37295665  1
  N  N53  1  0.44537556  0.42617657  0.12045542  1
  N  N54  1  0.22296670  0.53973030  0.87128155  1
  N  N55  1  0.10871802  0.43407070  0.61999463  1
  N  N56  1  0.88539601  0.54220521  0.37166366  1
  N  N57  1  0.77421908  0.43296273  0.12246073  1
  N  N58  1  0.55647605  0.53827922  0.86927783  1
  N  N59  1  0.44553393  0.42596835  0.61992817  1
  N  N60  1  0.22515454  0.87078012  0.37375222  1
  N  N61  1  0.11016101  0.76099723  0.12196623  1
  N  N62  1  0.88787087  0.87446741  0.87328524  1
  N  N63  1  0.77907370  0.76365541  0.62366039  1
  N  N64  1  0.55697765  0.87010015  0.37554959  1
  N  N65  1  0.45809174  0.77090548  0.11567821  1
  N  N66  1  0.22507971  0.86682143  0.87070974  1
  N  N67  1  0.10880037  0.76204732  0.62083854  1
  N  N68  1  0.87500100  0.89701229  0.36333122  1
  N  N69  1  0.75317871  0.77113228  0.11404678  1
  N  N70  1  0.55623343  0.87122990  0.89366695  1
  N  N71  1  0.44723958  0.76176096  0.62616083  1
