# generated using pymatgen
data_Al11BN12
_symmetry_space_group_name_H-M   'P 1'
_cell_length_a   9.28242421
_cell_length_b   9.28353401
_cell_length_c   9.95131215
_cell_angle_alpha   89.86053961
_cell_angle_beta   89.60605364
_cell_angle_gamma   60.04482962
_symmetry_Int_Tables_number   1
_chemical_formula_structural   Al11BN12
_chemical_formula_sum   'Al33 B3 N36'
_cell_volume   742.96983138
_cell_formula_units_Z   3
loop_
 _symmetry_equiv_pos_site_id
 _symmetry_equiv_pos_as_xyz
  1  'x, y, z'
loop_
 _atom_site_type_symbol
 _atom_site_label
 _atom_site_symmetry_multiplicity
 _atom_site_fract_x
 _atom_site_fract_y
 _atom_site_fract_z
 _atom_site_occupancy
  Al  Al0  1  0.09386986  0.10067018  0.36672582  1
  Al  Al1  1  0.22880016  0.19999356  0.09074100  1
  Al  Al2  1  0.78080554  0.09725684  0.81437520  1
  Al  Al3  1  0.45534128  0.08662659  0.31054206  1
  Al  Al4  1  0.55818771  0.19806261  0.06341875  1
  Al  Al5  1  0.10776791  0.09787056  0.88485158  1
  Al  Al6  1  0.22010209  0.20692919  0.58054790  1
  Al  Al7  1  0.88173820  0.20493153  0.09079895  1
  Al  Al8  1  0.44794196  0.09110420  0.81678379  1
  Al  Al9  1  0.56795934  0.20509992  0.55540161  1
  Al  Al10  1  0.10962722  0.43085804  0.31348115  1
  Al  Al11  1  0.22246770  0.53812790  0.06020913  1
  Al  Al12  1  0.78128437  0.42091990  0.81539790  1
  Al  Al13  1  0.89011137  0.53609203  0.56137498  1
  Al  Al14  1  0.45007171  0.42431806  0.31026044  1
  Al  Al15  1  0.55767224  0.54195384  0.05853544  1
  Al  Al16  1  0.11005833  0.42983045  0.81058845  1
  Al  Al17  1  0.22343139  0.53989422  0.55932023  1
  Al  Al18  1  0.77451336  0.42453117  0.31040908  1
  Al  Al19  1  0.88225657  0.54303435  0.05965064  1
  Al  Al20  1  0.44518560  0.42589924  0.81088132  1
  Al  Al21  1  0.56000107  0.53416701  0.56216016  1
  Al  Al22  1  0.10657429  0.76781413  0.31048043  1
  Al  Al23  1  0.23130887  0.86354818  0.06494234  1
  Al  Al24  1  0.77537924  0.76388200  0.81674450  1
  Al  Al25  1  0.88861309  0.88282713  0.55610747  1
  Al  Al26  1  0.44742546  0.76389748  0.30799068  1
  Al  Al27  1  0.10968428  0.76215424  0.81104417  1
  Al  Al28  1  0.22122371  0.87120632  0.56370432  1
  Al  Al29  1  0.77247926  0.76786793  0.30659708  1
  Al  Al30  1  0.88189977  0.87445934  0.06417660  1
  Al  Al31  1  0.44606662  0.76288877  0.81700574  1
  Al  Al32  1  0.55846460  0.87178847  0.56128538  1
  B  B33  1  0.88969895  0.20573979  0.59470704  1
  B  B34  1  0.77647498  0.09614215  0.30081134  1
  B  B35  1  0.55679041  0.87055404  0.05831100  1
  N  N36  1  0.22561120  0.20472710  0.36031443  1
  N  N37  1  0.11310414  0.09069906  0.08754772  1
  N  N38  1  0.87941296  0.20871632  0.88609632  1
  N  N39  1  0.79462391  0.11060176  0.62001092  1
  N  N40  1  0.57975910  0.19310368  0.36208562  1
  N  N41  1  0.45990017  0.06644190  0.11579675  1
  N  N42  1  0.22261807  0.20630832  0.85256557  1
  N  N43  1  0.07739088  0.11194311  0.57754920  1
  N  N44  1  0.87054489  0.19395666  0.33061554  1
  N  N45  1  0.77124466  0.08841330  0.13808998  1
  N  N46  1  0.55788855  0.20393800  0.87215990  1
  N  N47  1  0.45257015  0.09302680  0.62138546  1
  N  N48  1  0.22279373  0.54086089  0.36925918  1
  N  N49  1  0.10791208  0.43074994  0.12118800  1
  N  N50  1  0.88744321  0.53917433  0.86850599  1
  N  N51  1  0.79396725  0.39815825  0.61776660  1
  N  N52  1  0.55384582  0.54191884  0.37182683  1
  N  N53  1  0.44536127  0.42682532  0.11903831  1
  N  N54  1  0.22201193  0.53937311  0.86968859  1
  N  N55  1  0.10988506  0.43252540  0.61919045  1
  N  N56  1  0.88554836  0.54096667  0.37041097  1
  N  N57  1  0.77365138  0.43425659  0.12102515  1
  N  N58  1  0.55628759  0.53819995  0.86764010  1
  N  N59  1  0.44581579  0.42578909  0.61874315  1
  N  N60  1  0.22618189  0.86873887  0.37027912  1
  N  N61  1  0.10956917  0.76011122  0.12058708  1
  N  N62  1  0.88754757  0.87503937  0.87238179  1
  N  N63  1  0.77905306  0.76382785  0.62295158  1
  N  N64  1  0.55692955  0.87044830  0.37439187  1
  N  N65  1  0.45866816  0.77121043  0.11421968  1
  N  N66  1  0.22418694  0.86681771  0.87072128  1
  N  N67  1  0.10906910  0.76224511  0.61955615  1
  N  N68  1  0.87544504  0.89617244  0.36233335  1
  N  N69  1  0.75287708  0.77220755  0.11291877  1
  N  N70  1  0.55573782  0.87199693  0.89223514  1
  N  N71  1  0.44693718  0.76186342  0.62481387  1
