# generated using pymatgen
data_Al11BN12
_symmetry_space_group_name_H-M   'P 1'
_cell_length_a   9.28986013
_cell_length_b   9.29090906
_cell_length_c   10.08821462
_cell_angle_alpha   89.54796621
_cell_angle_beta   89.67941817
_cell_angle_gamma   60.11217773
_symmetry_Int_Tables_number   1
_chemical_formula_structural   Al11BN12
_chemical_formula_sum   'Al33 B3 N36'
_cell_volume   754.89721079
_cell_formula_units_Z   3
loop_
 _symmetry_equiv_pos_site_id
 _symmetry_equiv_pos_as_xyz
  1  'x, y, z'
loop_
 _atom_site_type_symbol
 _atom_site_label
 _atom_site_symmetry_multiplicity
 _atom_site_fract_x
 _atom_site_fract_y
 _atom_site_fract_z
 _atom_site_occupancy
  Al  Al0  1  0.09738424  0.09638287  0.39566012  1
  Al  Al1  1  0.22356736  0.19875735  0.14109086  1
  Al  Al2  1  0.77758986  0.09570779  0.81373598  1
  Al  Al3  1  0.44358578  0.09150570  0.37907926  1
  Al  Al4  1  0.56078286  0.20109610  0.07844974  1
  Al  Al5  1  0.11113401  0.09601071  0.88512999  1
  Al  Al6  1  0.22250239  0.20558255  0.63916831  1
  Al  Al7  1  0.88892249  0.20392362  0.14351513  1
  Al  Al8  1  0.44639662  0.08486209  0.89528853  1
  Al  Al9  1  0.57301782  0.20655125  0.55952824  1
  Al  Al10  1  0.10788265  0.42712471  0.39024054  1
  Al  Al11  1  0.21829725  0.53597334  0.13568925  1
  Al  Al12  1  0.78009860  0.42571477  0.88578963  1
  Al  Al13  1  0.89385061  0.53010956  0.63742055  1
  Al  Al14  1  0.45253237  0.41841544  0.32125084  1
  Al  Al15  1  0.56170073  0.54571152  0.13895572  1
  Al  Al16  1  0.11345257  0.42534465  0.89027649  1
  Al  Al17  1  0.22043342  0.53643310  0.63191320  1
  Al  Al18  1  0.77859302  0.41583808  0.39527913  1
  Al  Al19  1  0.88507177  0.53535373  0.13681022  1
  Al  Al20  1  0.44996256  0.41930618  0.82343108  1
  Al  Al21  1  0.56388447  0.53889946  0.63808307  1
  Al  Al22  1  0.09929116  0.77024057  0.32152631  1
  Al  Al23  1  0.22713587  0.87822497  0.13824121  1
  Al  Al24  1  0.78164414  0.76417077  0.82605659  1
  Al  Al25  1  0.88837884  0.88422873  0.56083629  1
  Al  Al26  1  0.44288679  0.76236262  0.38597246  1
  Al  Al27  1  0.10636266  0.76531759  0.82314668  1
  Al  Al28  1  0.22247405  0.88020381  0.63763170  1
  Al  Al29  1  0.77147459  0.77105246  0.31932642  1
  Al  Al30  1  0.88035901  0.87424819  0.07234139  1
  Al  Al31  1  0.44900842  0.76280607  0.89421773  1
  Al  Al32  1  0.55282184  0.87795154  0.63515612  1
  B  B33  1  0.89354867  0.20814278  0.64722760  1
  B  B34  1  0.77407714  0.09256093  0.30945900  1
  B  B35  1  0.54927736  0.87553457  0.14544759  1
  N  N36  1  0.21558195  0.20563541  0.32964508  1
  N  N37  1  0.10566045  0.09679141  0.07440448  1
  N  N38  1  0.89648790  0.21147688  0.81052321  1
  N  N39  1  0.79083428  0.10492582  0.62675142  1
  N  N40  1  0.58486840  0.19196235  0.36805017  1
  N  N41  1  0.45279715  0.06707667  0.08852064  1
  N  N42  1  0.22861362  0.20408347  0.82905332  1
  N  N43  1  0.08645396  0.10926797  0.58716516  1
  N  N44  1  0.87712474  0.19484343  0.33091295  1
  N  N45  1  0.77296463  0.08655508  0.14843213  1
  N  N46  1  0.56422544  0.20301449  0.88752645  1
  N  N47  1  0.44355549  0.09490076  0.57003750  1
  N  N48  1  0.21907091  0.53675393  0.33512393  1
  N  N49  1  0.11048858  0.42389057  0.07875981  1
  N  N50  1  0.89409188  0.53405949  0.82944595  1
  N  N51  1  0.79235121  0.40147136  0.58630875  1
  N  N52  1  0.56082710  0.54125882  0.33158119  1
  N  N53  1  0.44796894  0.42430786  0.12593066  1
  N  N54  1  0.22068114  0.53634987  0.83232730  1
  N  N55  1  0.11220860  0.42510433  0.57726456  1
  N  N56  1  0.88671585  0.53418963  0.33057067  1
  N  N57  1  0.77943436  0.42127471  0.07440786  1
  N  N58  1  0.55870408  0.54386987  0.83062573  1
  N  N59  1  0.45101284  0.42033616  0.62392692  1
  N  N60  1  0.22111901  0.87874835  0.33143547  1
  N  N61  1  0.10424103  0.76561909  0.12489530  1
  N  N62  1  0.88722936  0.87876593  0.88386482  1
  N  N63  1  0.78319440  0.76390146  0.61671994  1
  N  N64  1  0.54125161  0.87864688  0.30818011  1
  N  N65  1  0.45667758  0.77395596  0.08582250  1
  N  N66  1  0.22890159  0.87437011  0.83085480  1
  N  N67  1  0.10588957  0.76658874  0.62263768  1
  N  N68  1  0.87157697  0.90047226  0.37031624  1
  N  N69  1  0.75368802  0.77186363  0.12079553  1
  N  N70  1  0.55236152  0.87524868  0.82433048  1
  N  N71  1  0.44663552  0.76281422  0.57439590  1
