# generated using pymatgen
data_Al11BN12
_symmetry_space_group_name_H-M   'P 1'
_cell_length_a   9.27545628
_cell_length_b   9.27545557
_cell_length_c   10.13299790
_cell_angle_alpha   89.82476839
_cell_angle_beta   89.82464841
_cell_angle_gamma   60.16023079
_symmetry_Int_Tables_number   1
_chemical_formula_structural   Al11BN12
_chemical_formula_sum   'Al33 B3 N36'
_cell_volume   756.19769399
_cell_formula_units_Z   3
loop_
 _symmetry_equiv_pos_site_id
 _symmetry_equiv_pos_as_xyz
  1  'x, y, z'
loop_
 _atom_site_type_symbol
 _atom_site_label
 _atom_site_symmetry_multiplicity
 _atom_site_fract_x
 _atom_site_fract_y
 _atom_site_fract_z
 _atom_site_occupancy
  Al  Al0  1  0.09929073  0.09571797  0.39543331  1
  Al  Al1  1  0.21830010  0.20007772  0.13625932  1
  Al  Al2  1  0.78000478  0.09654790  0.81353647  1
  Al  Al3  1  0.45544593  0.08306232  0.31433413  1
  Al  Al4  1  0.55759506  0.19739036  0.07153279  1
  Al  Al5  1  0.11015911  0.09662149  0.88687018  1
  Al  Al6  1  0.21506655  0.20976921  0.64221966  1
  Al  Al7  1  0.88638720  0.20293073  0.14477684  1
  Al  Al8  1  0.45325295  0.09223156  0.82511398  1
  Al  Al9  1  0.56935411  0.20349340  0.56262986  1
  Al  Al10  1  0.10827097  0.42481490  0.38798634  1
  Al  Al11  1  0.22048248  0.53702514  0.11825997  1
  Al  Al12  1  0.78007911  0.42670244  0.88687024  1
  Al  Al13  1  0.89322676  0.53160899  0.64222010  1
  Al  Al14  1  0.45166581  0.41616477  0.32140794  1
  Al  Al15  1  0.56095793  0.54487278  0.14026778  1
  Al  Al16  1  0.11152709  0.42806993  0.89170680  1
  Al  Al17  1  0.22327359  0.53981804  0.60382596  1
  Al  Al18  1  0.77917495  0.41583441  0.39543321  1
  Al  Al19  1  0.88353477  0.53484333  0.13625933  1
  Al  Al20  1  0.44641742  0.42344951  0.82147415  1
  Al  Al21  1  0.56513866  0.53829925  0.64057146  1
  Al  Al22  1  0.09962038  0.76821006  0.32140756  1
  Al  Al23  1  0.22832846  0.87750143  0.14026757  1
  Al  Al24  1  0.77568650  0.76979793  0.82511353  1
  Al  Al25  1  0.88694917  0.88589797  0.56262979  1
  Al  Al26  1  0.44016331  0.75670651  0.39205072  1
  Al  Al27  1  0.10690595  0.76295937  0.82147455  1
  Al  Al28  1  0.22175539  0.88168160  0.64057162  1
  Al  Al29  1  0.76651760  0.77199050  0.31433400  1
  Al  Al30  1  0.88084566  0.87413906  0.07153284  1
  Al  Al31  1  0.44437677  0.76092060  0.89543116  1
  Al  Al32  1  0.56041218  0.87695639  0.56944582  1
  B  B33  1  0.89269710  0.20924039  0.64664962  1
  B  B34  1  0.77374640  0.09029064  0.31133083  1
  B  B35  1  0.55861427  0.87515833  0.06281830  1
  N  N36  1  0.21757729  0.20358816  0.32805710  1
  N  N37  1  0.10337423  0.09476784  0.07464563  1
  N  N38  1  0.89676962  0.21331271  0.80980456  1
  N  N39  1  0.79058896  0.10713288  0.62667537  1
  N  N40  1  0.58123918  0.18864981  0.37141848  1
  N  N41  1  0.45706762  0.06562330  0.12141685  1
  N  N42  1  0.22072327  0.20870951  0.83190448  1
  N  N43  1  0.08665955  0.10906166  0.58612908  1
  N  N44  1  0.87688293  0.19342637  0.33165918  1
  N  N45  1  0.76970957  0.08625362  0.14910836  1
  N  N46  1  0.56358737  0.20491788  0.88437168  1
  N  N47  1  0.45352480  0.09418247  0.63232223  1
  N  N48  1  0.22185248  0.53839686  0.35147439  1
  N  N49  1  0.10774517  0.42428791  0.08021389  1
  N  N50  1  0.89216634  0.53726771  0.83190480  1
  N  N51  1  0.79251894  0.40320261  0.58612907  1
  N  N52  1  0.56124075  0.53919496  0.33158286  1
  N  N53  1  0.44832494  0.41995124  0.12869981  1
  N  N54  1  0.22275564  0.53929794  0.85070496  1
  N  N55  1  0.10946163  0.42600431  0.57624292  1
  N  N56  1  0.88704441  0.53412164  0.32805709  1
  N  N57  1  0.77822470  0.41991768  0.07464574  1
  N  N58  1  0.55991229  0.54427148  0.82999620  1
  N  N59  1  0.45038936  0.42090801  0.62469668  1
  N  N60  1  0.22265162  0.87778371  0.33158269  1
  N  N61  1  0.10340700  0.76486824  0.12869941  1
  N  N62  1  0.88837390  0.88013093  0.88437176  1
  N  N63  1  0.77763857  0.77006783  0.63232185  1
  N  N64  1  0.55669643  0.87324108  0.38391900  1
  N  N65  1  0.45349706  0.77004103  0.08414100  1
  N  N66  1  0.22772784  0.87645462  0.82999627  1
  N  N67  1  0.10436320  0.76693348  0.62469710  1
  N  N68  1  0.87210547  0.89778344  0.37141840  1
  N  N69  1  0.74907922  0.77361119  0.12141680  1
  N  N70  1  0.56215885  0.87870357  0.90048856  1
  N  N71  1  0.44258016  0.75912396  0.58155044  1
