# generated using pymatgen
data_Al11BN12
_symmetry_space_group_name_H-M   'P 1'
_cell_length_a   9.25672108
_cell_length_b   9.25672473
_cell_length_c   9.88932240
_cell_angle_alpha   90.07369673
_cell_angle_beta   90.07269101
_cell_angle_gamma   60.02511878
_symmetry_Int_Tables_number   1
_chemical_formula_structural   Al11BN12
_chemical_formula_sum   'Al33 B3 N36'
_cell_volume   734.04230750
_cell_formula_units_Z   3
loop_
 _symmetry_equiv_pos_site_id
 _symmetry_equiv_pos_as_xyz
  1  'x, y, z'
loop_
 _atom_site_type_symbol
 _atom_site_label
 _atom_site_symmetry_multiplicity
 _atom_site_fract_x
 _atom_site_fract_y
 _atom_site_fract_z
 _atom_site_occupancy
  Al  Al0  1  0.10518622  0.09438351  0.31803516  1
  Al  Al1  1  0.22517634  0.19938581  0.06111942  1
  Al  Al2  1  0.78050210  0.09718558  0.80864363  1
  Al  Al3  1  0.45188798  0.08784537  0.30673231  1
  Al  Al4  1  0.56142775  0.19893312  0.06730016  1
  Al  Al5  1  0.10421355  0.09757774  0.80625393  1
  Al  Al6  1  0.21894985  0.20598160  0.56096209  1
  Al  Al7  1  0.88808917  0.20477471  0.06882968  1
  Al  Al8  1  0.44687477  0.09227487  0.81780046  1
  Al  Al9  1  0.56419881  0.20338813  0.55705529  1
  Al  Al10  1  0.11121048  0.42789536  0.30965011  1
  Al  Al11  1  0.22248304  0.53916692  0.06029826  1
  Al  Al12  1  0.78089416  0.42089710  0.80625179  1
  Al  Al13  1  0.88929525  0.53563677  0.56096252  1
  Al  Al14  1  0.44962059  0.42432881  0.31052677  1
  Al  Al15  1  0.55909982  0.54147245  0.06071011  1
  Al  Al16  1  0.11071470  0.42739706  0.81117933  1
  Al  Al17  1  0.22193936  0.53862567  0.56044541  1
  Al  Al18  1  0.77769670  0.42187399  0.31803465  1
  Al  Al19  1  0.88270211  0.54185984  0.06111793  1
  Al  Al20  1  0.44593682  0.42579883  0.81118961  1
  Al  Al21  1  0.55798995  0.53568225  0.56102428  1
  Al  Al22  1  0.10764194  0.76630613  0.31052737  1
  Al  Al23  1  0.22478751  0.87578448  0.06071235  1
  Al  Al24  1  0.77559088  0.76355902  0.81780160  1
  Al  Al25  1  0.88670247  0.88088436  0.55705570  1
  Al  Al26  1  0.44702253  0.76370934  0.30646052  1
  Al  Al27  1  0.10911474  0.76262137  0.81119087  1
  Al  Al28  1  0.21899419  0.87467829  0.56102424  1
  Al  Al29  1  0.77116059  0.76857254  0.30673160  1
  Al  Al30  1  0.88224888  0.87811193  0.06730129  1
  Al  Al31  1  0.44584236  0.76252823  0.81747264  1
  Al  Al32  1  0.55580361  0.87248915  0.56235496  1
  B  B33  1  0.88423859  0.20092803  0.55454585  1
  B  B34  1  0.77705584  0.09374396  0.31312759  1
  B  B35  1  0.55577154  0.87245736  0.05688715  1
  N  N36  1  0.22568884  0.20447001  0.36865331  1
  N  N37  1  0.10991020  0.09515129  0.12608699  1
  N  N38  1  0.88832195  0.20500851  0.87783105  1
  N  N39  1  0.79043307  0.10712060  0.61607892  1
  N  N40  1  0.57966375  0.19188827  0.36244090  1
  N  N41  1  0.45735806  0.06939421  0.11255317  1
  N  N42  1  0.22093756  0.20377477  0.86845112  1
  N  N43  1  0.08470326  0.10686356  0.60988448  1
  N  N44  1  0.87676652  0.19345519  0.38405880  1
  N  N45  1  0.77949492  0.09618091  0.14665844  1
  N  N46  1  0.56018261  0.20360419  0.87386511  1
  N  N47  1  0.44647154  0.09464275  0.62328520  1
  N  N48  1  0.22266761  0.53935460  0.36868966  1
  N  N49  1  0.11068312  0.42736839  0.11794269  1
  N  N50  1  0.88709027  0.53762199  0.86844962  1
  N  N51  1  0.79017569  0.40139046  0.60988269  1
  N  N52  1  0.55349243  0.54212632  0.36963962  1
  N  N53  1  0.44562443  0.42775584  0.11925502  1
  N  N54  1  0.22244774  0.53913318  0.86897689  1
  N  N55  1  0.11098179  0.42766906  0.61999776  1
  N  N56  1  0.88778338  0.54237590  0.36865381  1
  N  N57  1  0.77846427  0.42659749  0.12608633  1
  N  N58  1  0.55852706  0.53695233  0.86841079  1
  N  N59  1  0.44523731  0.42540518  0.61844710  1
  N  N60  1  0.22543754  0.87018062  0.36963932  1
  N  N61  1  0.11107030  0.76230931  0.11925593  1
  N  N62  1  0.88691882  0.87686853  0.87386632  1
  N  N63  1  0.77795518  0.76315918  0.62328619  1
  N  N64  1  0.55535479  0.87204150  0.37387699  1
  N  N65  1  0.45692888  0.77361471  0.11161118  1
  N  N66  1  0.22026627  0.87521278  0.86841333  1
  N  N67  1  0.10871799  0.76192493  0.61844799  1
  N  N68  1  0.87520020  0.89635098  0.36244124  1
  N  N69  1  0.75270951  0.77404250  0.11255244  1
  N  N70  1  0.55573163  0.87241714  0.89125510  1
  N  N71  1  0.44511176  0.76180068  0.62460077  1
