# generated using pymatgen
data_Al11BN12
_symmetry_space_group_name_H-M   'P 1'
_cell_length_a   9.26926575
_cell_length_b   9.27647146
_cell_length_c   9.95430295
_cell_angle_alpha   89.71336885
_cell_angle_beta   89.53421918
_cell_angle_gamma   59.94982841
_symmetry_Int_Tables_number   1
_chemical_formula_structural   Al11BN12
_chemical_formula_sum   'Al33 B3 N36'
_cell_volume   740.85845971
_cell_formula_units_Z   3
loop_
 _symmetry_equiv_pos_site_id
 _symmetry_equiv_pos_as_xyz
  1  'x, y, z'
loop_
 _atom_site_type_symbol
 _atom_site_label
 _atom_site_symmetry_multiplicity
 _atom_site_fract_x
 _atom_site_fract_y
 _atom_site_fract_z
 _atom_site_occupancy
  Al  Al0  1  0.09920475  0.09457598  0.40530922  1
  Al  Al1  1  0.22500306  0.20016247  0.15099372  1
  Al  Al2  1  0.78228081  0.09560850  0.87070867  1
  Al  Al3  1  0.45131510  0.08950609  0.38964911  1
  Al  Al4  1  0.56092424  0.19881399  0.09509835  1
  Al  Al5  1  0.10968773  0.09643242  0.89642795  1
  Al  Al6  1  0.21863028  0.20586357  0.64831213  1
  Al  Al7  1  0.88703006  0.20318256  0.14556501  1
  Al  Al8  1  0.44300078  0.08684478  0.89953397  1
  Al  Al9  1  0.56781861  0.20218485  0.61913014  1
  Al  Al10  1  0.11006709  0.42722719  0.40085241  1
  Al  Al11  1  0.22177106  0.53916346  0.15124153  1
  Al  Al12  1  0.77968979  0.42733894  0.89577185  1
  Al  Al13  1  0.88876112  0.53618750  0.64902891  1
  Al  Al14  1  0.45019394  0.42511880  0.39610610  1
  Al  Al15  1  0.55920309  0.54287107  0.15035081  1
  Al  Al16  1  0.11126138  0.42822538  0.89889155  1
  Al  Al17  1  0.22205633  0.53945307  0.64841635  1
  Al  Al18  1  0.77789716  0.41629914  0.40513363  1
  Al  Al19  1  0.88406764  0.54117956  0.15055316  1
  Al  Al20  1  0.44056163  0.43441382  0.89746030  1
  Al  Al21  1  0.55964299  0.53509720  0.64931199  1
  Al  Al22  1  0.10580967  0.76840393  0.39845756  1
  Al  Al23  1  0.22550916  0.87529015  0.15007136  1
  Al  Al24  1  0.77317217  0.76344624  0.90402619  1
  Al  Al25  1  0.89068472  0.87555145  0.65024207  1
  Al  Al26  1  0.44532518  0.76290908  0.39424536  1
  Al  Al27  1  0.11044930  0.76129370  0.90157790  1
  Al  Al28  1  0.21804884  0.87571930  0.64985621  1
  Al  Al29  1  0.77279330  0.76798069  0.39209863  1
  Al  Al30  1  0.88100099  0.87976486  0.14437511  1
  Al  Al31  1  0.44687982  0.76359761  0.90316353  1
  Al  Al32  1  0.55656980  0.87183391  0.64722197  1
  B  B33  1  0.88986140  0.20465906  0.66012433  1
  B  B34  1  0.77472545  0.09603101  0.35922774  1
  B  B35  1  0.55548911  0.87167647  0.15315519  1
  N  N36  1  0.21955453  0.20359538  0.34223699  1
  N  N37  1  0.10983515  0.09613230  0.08819736  1
  N  N38  1  0.89498183  0.21190571  0.82334058  1
  N  N39  1  0.79472120  0.10667744  0.63237014  1
  N  N40  1  0.58802559  0.18941866  0.36187051  1
  N  N41  1  0.45576450  0.06714529  0.09734672  1
  N  N42  1  0.22357431  0.20527828  0.83953474  1
  N  N43  1  0.08688567  0.10667614  0.59780904  1
  N  N44  1  0.87297963  0.18984247  0.33934105  1
  N  N45  1  0.78739685  0.09221024  0.07293221  1
  N  N46  1  0.54904913  0.20748177  0.86608951  1
  N  N47  1  0.44511431  0.09259446  0.58399522  1
  N  N48  1  0.22137744  0.53961922  0.34123910  1
  N  N49  1  0.11191128  0.42700937  0.09087864  1
  N  N50  1  0.88801694  0.54243077  0.84094415  1
  N  N51  1  0.79065492  0.40311728  0.59761830  1
  N  N52  1  0.55850486  0.53875158  0.34041366  1
  N  N53  1  0.44381024  0.43342095  0.09181126  1
  N  N54  1  0.22095236  0.54103864  0.83909975  1
  N  N55  1  0.11144010  0.42811119  0.59053910  1
  N  N56  1  0.88672810  0.53663636  0.34208876  1
  N  N57  1  0.77997861  0.42551349  0.08775333  1
  N  N58  1  0.55524286  0.54193710  0.84049850  1
  N  N59  1  0.44419155  0.42985744  0.58822512  1
  N  N60  1  0.22105680  0.87493510  0.34065489  1
  N  N61  1  0.11085742  0.76211055  0.09347870  1
  N  N62  1  0.89151541  0.86423043  0.84186281  1
  N  N63  1  0.77803047  0.76311721  0.58376277  1
  N  N64  1  0.55524278  0.87148054  0.31733290  1
  N  N65  1  0.45749735  0.77345030  0.09729200  1
  N  N66  1  0.22394529  0.87138547  0.84206343  1
  N  N67  1  0.11134847  0.76154837  0.58793244  1
  N  N68  1  0.87315944  0.90257574  0.34028795  1
  N  N69  1  0.75362549  0.77354628  0.09906039  1
  N  N70  1  0.55668526  0.87060287  0.83542498  1
  N  N71  1  0.44530770  0.76185237  0.58619092  1
