# generated using pymatgen
data_Al11BN12
_symmetry_space_group_name_H-M   'P 1'
_cell_length_a   9.26281548
_cell_length_b   9.27064671
_cell_length_c   10.15517529
_cell_angle_alpha   89.76396915
_cell_angle_beta   89.77859229
_cell_angle_gamma   60.17017114
_symmetry_Int_Tables_number   1
_chemical_formula_structural   Al11BN12
_chemical_formula_sum   'Al33 B3 N36'
_cell_volume   756.49945975
_cell_formula_units_Z   3
loop_
 _symmetry_equiv_pos_site_id
 _symmetry_equiv_pos_as_xyz
  1  'x, y, z'
loop_
 _atom_site_type_symbol
 _atom_site_label
 _atom_site_symmetry_multiplicity
 _atom_site_fract_x
 _atom_site_fract_y
 _atom_site_fract_z
 _atom_site_occupancy
  Al  Al0  1  0.09989102  0.09392930  0.39359451  1
  Al  Al1  1  0.21793293  0.20148198  0.13452441  1
  Al  Al2  1  0.77943176  0.09659874  0.81171435  1
  Al  Al3  1  0.45574352  0.08366599  0.31241432  1
  Al  Al4  1  0.55741921  0.19684264  0.06994479  1
  Al  Al5  1  0.10976147  0.09622721  0.88575995  1
  Al  Al6  1  0.21460343  0.21061977  0.63925828  1
  Al  Al7  1  0.88780599  0.20166832  0.14331878  1
  Al  Al8  1  0.45330709  0.09399419  0.82222672  1
  Al  Al9  1  0.56807905  0.20428097  0.56037219  1
  Al  Al10  1  0.10760080  0.42339199  0.38530798  1
  Al  Al11  1  0.22420335  0.54253001  0.06886795  1
  Al  Al12  1  0.78229047  0.42523752  0.88133491  1
  Al  Al13  1  0.89391278  0.53220477  0.63935163  1
  Al  Al14  1  0.45002694  0.42102322  0.31669532  1
  Al  Al15  1  0.55720493  0.54096656  0.10147955  1
  Al  Al16  1  0.10903926  0.42540070  0.88930410  1
  Al  Al17  1  0.22595829  0.54353565  0.56489135  1
  Al  Al18  1  0.78138203  0.41352570  0.39353706  1
  Al  Al19  1  0.88417192  0.53484022  0.13479252  1
  Al  Al20  1  0.44380986  0.42652721  0.81744130  1
  Al  Al21  1  0.56198123  0.53501303  0.61601446  1
  Al  Al22  1  0.10223817  0.76261823  0.31631650  1
  Al  Al23  1  0.22887467  0.87684943  0.13941881  1
  Al  Al24  1  0.77518343  0.77093096  0.82211412  1
  Al  Al25  1  0.88820092  0.88476106  0.56096449  1
  Al  Al26  1  0.43931222  0.75808727  0.39076919  1
  Al  Al27  1  0.10770371  0.75932826  0.81809126  1
  Al  Al28  1  0.21967456  0.88189770  0.64029595  1
  Al  Al29  1  0.76597404  0.77212865  0.31233543  1
  Al  Al30  1  0.88160678  0.87344562  0.07006259  1
  Al  Al31  1  0.44210429  0.76646989  0.88943297  1
  Al  Al32  1  0.55985214  0.87831307  0.56790787  1
  B  B33  1  0.89373313  0.20849979  0.64483342  1
  B  B34  1  0.77381091  0.09030543  0.30970688  1
  B  B35  1  0.55867698  0.87594104  0.06085819  1
  N  N36  1  0.21768626  0.20325604  0.32578121  1
  N  N37  1  0.10459980  0.09370396  0.07300175  1
  N  N38  1  0.89767613  0.21193549  0.80729076  1
  N  N39  1  0.79009161  0.10686216  0.62476501  1
  N  N40  1  0.58002951  0.19029289  0.36862505  1
  N  N41  1  0.45703514  0.06580602  0.11973153  1
  N  N42  1  0.22056113  0.20852538  0.82875864  1
  N  N43  1  0.08681943  0.10781433  0.58389490  1
  N  N44  1  0.87798574  0.19212504  0.32939285  1
  N  N45  1  0.76986176  0.08609544  0.14721559  1
  N  N46  1  0.56226678  0.20706084  0.88280202  1
  N  N47  1  0.45329493  0.09513791  0.63029186  1
  N  N48  1  0.22560324  0.54097839  0.37549800  1
  N  N49  1  0.10755367  0.42419549  0.07823961  1
  N  N50  1  0.89228513  0.53842211  0.82815663  1
  N  N51  1  0.79544816  0.40056878  0.58575681  1
  N  N52  1  0.55841979  0.53529067  0.35625798  1
  N  N53  1  0.44406294  0.42273179  0.12783278  1
  N  N54  1  0.22596477  0.54254683  0.87973351  1
  N  N55  1  0.10924518  0.42592059  0.57453782  1
  N  N56  1  0.88715776  0.53413317  0.32544115  1
  N  N57  1  0.78313423  0.41662896  0.07071353  1
  N  N58  1  0.55667738  0.54327409  0.84363004  1
  N  N59  1  0.44378496  0.42209947  0.62792751  1
  N  N60  1  0.22226150  0.87662294  0.32923150  1
  N  N61  1  0.10588702  0.76017440  0.12794517  1
  N  N62  1  0.88906784  0.87942504  0.88270615  1
  N  N63  1  0.77714057  0.77070133  0.63004590  1
  N  N64  1  0.55627667  0.87401177  0.38260244  1
  N  N65  1  0.45261696  0.77225971  0.08083758  1
  N  N66  1  0.22484462  0.87724977  0.82826351  1
  N  N67  1  0.10615034  0.76113731  0.62678020  1
  N  N68  1  0.87389838  0.89613539  0.36939362  1
  N  N69  1  0.74864406  0.77389720  0.11942647  1
  N  N70  1  0.56203031  0.88085943  0.89796406  1
  N  N71  1  0.44018762  0.76350954  0.58321631  1
