# generated using pymatgen
data_Al11BN12
_symmetry_space_group_name_H-M   'P 1'
_cell_length_a   9.28897208
_cell_length_b   9.29169945
_cell_length_c   10.05354323
_cell_angle_alpha   89.43428534
_cell_angle_beta   89.45437985
_cell_angle_gamma   60.00982260
_symmetry_Int_Tables_number   1
_chemical_formula_structural   Al11BN12
_chemical_formula_sum   'Al33 B3 N36'
_cell_volume   751.49882824
_cell_formula_units_Z   3
loop_
 _symmetry_equiv_pos_site_id
 _symmetry_equiv_pos_as_xyz
  1  'x, y, z'
loop_
 _atom_site_type_symbol
 _atom_site_label
 _atom_site_symmetry_multiplicity
 _atom_site_fract_x
 _atom_site_fract_y
 _atom_site_fract_z
 _atom_site_occupancy
  Al  Al0  1  0.09832557  0.09575554  0.39496315  1
  Al  Al1  1  0.22305796  0.19923023  0.13973274  1
  Al  Al2  1  0.77696925  0.09473026  0.81389878  1
  Al  Al3  1  0.44734356  0.08761583  0.37561928  1
  Al  Al4  1  0.56069769  0.19913479  0.07985391  1
  Al  Al5  1  0.11004897  0.09614048  0.88432316  1
  Al  Al6  1  0.22188777  0.20566460  0.63745318  1
  Al  Al7  1  0.88899104  0.20556401  0.14297020  1
  Al  Al8  1  0.44498820  0.08622922  0.89276685  1
  Al  Al9  1  0.57142974  0.20631878  0.55885730  1
  Al  Al10  1  0.10917869  0.42558985  0.39005429  1
  Al  Al11  1  0.21866184  0.53518191  0.13542189  1
  Al  Al12  1  0.78048722  0.42656933  0.88440229  1
  Al  Al13  1  0.88937339  0.53804721  0.63737245  1
  Al  Al14  1  0.45218222  0.41946341  0.32654679  1
  Al  Al15  1  0.56175262  0.54493735  0.13750039  1
  Al  Al16  1  0.11059419  0.42707974  0.88878530  1
  Al  Al17  1  0.22208261  0.53492727  0.63256408  1
  Al  Al18  1  0.77935073  0.41491187  0.39518822  1
  Al  Al19  1  0.88253838  0.54007858  0.13967681  1
  Al  Al20  1  0.44784883  0.42350519  0.83867752  1
  Al  Al21  1  0.56216389  0.53738173  0.63722837  1
  Al  Al22  1  0.10089331  0.76992284  0.32053213  1
  Al  Al23  1  0.22873328  0.87829228  0.13734691  1
  Al  Al24  1  0.76964554  0.76171383  0.89227201  1
  Al  Al25  1  0.89021797  0.88785276  0.55956758  1
  Al  Al26  1  0.44568429  0.76187531  0.38431432  1
  Al  Al27  1  0.10273176  0.76627370  0.82254240  1
  Al  Al28  1  0.22262638  0.87949974  0.63667659  1
  Al  Al29  1  0.77165894  0.76377486  0.37621240  1
  Al  Al30  1  0.88436643  0.87684806  0.07678972  1
  Al  Al31  1  0.44662403  0.76430743  0.89174333  1
  Al  Al32  1  0.55843118  0.87450294  0.63451617  1
  B  B33  1  0.89301328  0.20996969  0.64705250  1
  B  B34  1  0.77548066  0.09135615  0.30869559  1
  B  B35  1  0.55502441  0.87112121  0.14133086  1
  N  N36  1  0.21788680  0.20378072  0.32899335  1
  N  N37  1  0.10589554  0.09683692  0.07377407  1
  N  N38  1  0.89546645  0.21224707  0.81018229  1
  N  N39  1  0.78915693  0.10597907  0.62666712  1
  N  N40  1  0.58564472  0.19050768  0.36597874  1
  N  N41  1  0.45279502  0.06597910  0.08741332  1
  N  N42  1  0.22679407  0.20503627  0.82803386  1
  N  N43  1  0.08603775  0.10906605  0.58661855  1
  N  N44  1  0.87828113  0.19503683  0.33059779  1
  N  N45  1  0.77323872  0.08806052  0.14838967  1
  N  N46  1  0.56356658  0.20258325  0.88759413  1
  N  N47  1  0.44402923  0.09297468  0.56899693  1
  N  N48  1  0.21891768  0.53611317  0.33349885  1
  N  N49  1  0.10874698  0.42533796  0.07803182  1
  N  N50  1  0.88866080  0.54351859  0.82782143  1
  N  N51  1  0.79253073  0.40256832  0.58700018  1
  N  N52  1  0.56188791  0.54046153  0.32992491  1
  N  N53  1  0.44770014  0.42517334  0.12035457  1
  N  N54  1  0.22023525  0.53663268  0.83246587  1
  N  N55  1  0.11040103  0.42664820  0.57801748  1
  N  N56  1  0.88728715  0.53456821  0.32907790  1
  N  N57  1  0.78045558  0.42246574  0.07373168  1
  N  N58  1  0.55792197  0.54419822  0.83059897  1
  N  N59  1  0.44919289  0.42316183  0.61355512  1
  N  N60  1  0.22382875  0.87795291  0.33091640  1
  N  N61  1  0.10731981  0.76496099  0.12467325  1
  N  N62  1  0.88652326  0.87994736  0.88578709  1
  N  N63  1  0.77708004  0.76025577  0.56944199  1
  N  N64  1  0.55498524  0.87077683  0.30383533  1
  N  N65  1  0.45696627  0.77329368  0.08391921  1
  N  N66  1  0.22735938  0.87442529  0.83003392  1
  N  N67  1  0.10449519  0.76616581  0.62349079  1
  N  N68  1  0.87479018  0.90214526  0.36787697  1
  N  N69  1  0.74990658  0.76962353  0.08674465  1
  N  N70  1  0.55666358  0.87351362  0.82217547  1
  N  N71  1  0.44713910  0.76268184  0.57431188  1
