# generated using pymatgen
data_Al11BN12
_symmetry_space_group_name_H-M   'P 1'
_cell_length_a   9.31415562
_cell_length_b   9.28199410
_cell_length_c   10.09852066
_cell_angle_alpha   89.66576904
_cell_angle_beta   89.57926905
_cell_angle_gamma   59.93425068
_symmetry_Int_Tables_number   1
_chemical_formula_structural   Al11BN12
_chemical_formula_sum   'Al33 B3 N36'
_cell_volume   755.56528639
_cell_formula_units_Z   3
loop_
 _symmetry_equiv_pos_site_id
 _symmetry_equiv_pos_as_xyz
  1  'x, y, z'
loop_
 _atom_site_type_symbol
 _atom_site_label
 _atom_site_symmetry_multiplicity
 _atom_site_fract_x
 _atom_site_fract_y
 _atom_site_fract_z
 _atom_site_occupancy
  Al  Al0  1  0.10305899  0.09085116  0.39442076  1
  Al  Al1  1  0.21786978  0.20179358  0.13704718  1
  Al  Al2  1  0.77837394  0.09564192  0.81289339  1
  Al  Al3  1  0.45777212  0.08446220  0.31509098  1
  Al  Al4  1  0.55696772  0.19855164  0.07240122  1
  Al  Al5  1  0.10866526  0.09607456  0.88737246  1
  Al  Al6  1  0.21529676  0.20946566  0.64158595  1
  Al  Al7  1  0.88605862  0.20444192  0.14474143  1
  Al  Al8  1  0.45388779  0.09045036  0.82662680  1
  Al  Al9  1  0.56790430  0.20392172  0.56331322  1
  Al  Al10  1  0.11495905  0.42049285  0.38569838  1
  Al  Al11  1  0.22544077  0.54153309  0.07071568  1
  Al  Al12  1  0.78040838  0.42187711  0.87903185  1
  Al  Al13  1  0.88624760  0.54163690  0.57811946  1
  Al  Al14  1  0.45173593  0.42386135  0.31790015  1
  Al  Al15  1  0.54978620  0.54471395  0.06685046  1
  Al  Al16  1  0.11480642  0.42258680  0.88702847  1
  Al  Al17  1  0.22711206  0.54308610  0.56781332  1
  Al  Al18  1  0.78304380  0.40830537  0.39214139  1
  Al  Al19  1  0.87833639  0.54714825  0.07155288  1
  Al  Al20  1  0.44518772  0.42698318  0.81729339  1
  Al  Al21  1  0.55386141  0.53941279  0.57528665  1
  Al  Al22  1  0.10394943  0.76325646  0.31738154  1
  Al  Al23  1  0.22298660  0.87871319  0.13183390  1
  Al  Al24  1  0.77496707  0.76686428  0.82213531  1
  Al  Al25  1  0.88785911  0.88516683  0.56208737  1
  Al  Al26  1  0.45537027  0.75857005  0.31752735  1
  Al  Al27  1  0.10524744  0.75934776  0.82024923  1
  Al  Al28  1  0.21573677  0.88375631  0.64014650  1
  Al  Al29  1  0.77256825  0.76518426  0.31433009  1
  Al  Al30  1  0.88017377  0.87518616  0.07122211  1
  Al  Al31  1  0.45013290  0.76311736  0.82714902  1
  Al  Al32  1  0.55732142  0.87520339  0.56909123  1
  B  B33  1  0.89045197  0.21102861  0.64625468  1
  B  B34  1  0.77503243  0.08861759  0.31049779  1
  B  B35  1  0.55491846  0.87260841  0.06677312  1
  N  N36  1  0.21965123  0.20116469  0.32860458  1
  N  N37  1  0.10277391  0.09747253  0.07432589  1
  N  N38  1  0.89682812  0.21054254  0.80824823  1
  N  N39  1  0.78946412  0.10652434  0.62569789  1
  N  N40  1  0.58070245  0.19156745  0.37017061  1
  N  N41  1  0.45751070  0.06656066  0.12133906  1
  N  N42  1  0.22135141  0.20520342  0.83097596  1
  N  N43  1  0.08688692  0.10880808  0.58490857  1
  N  N44  1  0.87986072  0.18940068  0.33115227  1
  N  N45  1  0.76974554  0.08721401  0.14813387  1
  N  N46  1  0.56105610  0.20600207  0.88362130  1
  N  N47  1  0.45469308  0.09362586  0.63176404  1
  N  N48  1  0.22743389  0.54060712  0.37629141  1
  N  N49  1  0.11153675  0.42378547  0.08378849  1
  N  N50  1  0.88603206  0.54645615  0.87308267  1
  N  N51  1  0.79206763  0.39873370  0.58912348  1
  N  N52  1  0.55264500  0.54059134  0.38231558  1
  N  N53  1  0.44538267  0.42668375  0.13034320  1
  N  N54  1  0.22681136  0.54102548  0.87907442  1
  N  N55  1  0.11551580  0.42438511  0.58170880  1
  N  N56  1  0.88292572  0.54316703  0.37632580  1
  N  N57  1  0.77930973  0.41655465  0.07657312  1
  N  N58  1  0.54917279  0.54168224  0.87642818  1
  N  N59  1  0.44609489  0.42529579  0.62892330  1
  N  N60  1  0.22343364  0.87488598  0.32938094  1
  N  N61  1  0.10453259  0.76095062  0.12674668  1
  N  N62  1  0.88549943  0.87878934  0.88270851  1
  N  N63  1  0.77826032  0.76814124  0.63137845  1
  N  N64  1  0.55716183  0.87116286  0.38370543  1
  N  N65  1  0.46147875  0.77091468  0.12146738  1
  N  N66  1  0.21879286  0.87693159  0.83447609  1
  N  N67  1  0.10615770  0.76192555  0.62654049  1
  N  N68  1  0.87445701  0.89552549  0.36974914  1
  N  N69  1  0.75108293  0.77317771  0.12315313  1
  N  N70  1  0.55665660  0.87312650  0.90185981  1
  N  N71  1  0.45221730  0.76201465  0.63377363  1
