# generated using pymatgen
data_Al11BN12
_symmetry_space_group_name_H-M   'P 1'
_cell_length_a   9.25934682
_cell_length_b   9.26023122
_cell_length_c   9.94211158
_cell_angle_alpha   89.84212311
_cell_angle_beta   89.70792569
_cell_angle_gamma   60.00918651
_symmetry_Int_Tables_number   1
_chemical_formula_structural   Al11BN12
_chemical_formula_sum   'Al33 B3 N36'
_cell_volume   738.32230087
_cell_formula_units_Z   3
loop_
 _symmetry_equiv_pos_site_id
 _symmetry_equiv_pos_as_xyz
  1  'x, y, z'
loop_
 _atom_site_type_symbol
 _atom_site_label
 _atom_site_symmetry_multiplicity
 _atom_site_fract_x
 _atom_site_fract_y
 _atom_site_fract_z
 _atom_site_occupancy
  Al  Al0  1  0.10273323  0.09421749  0.31416790  1
  Al  Al1  1  0.22734594  0.20011105  0.06452550  1
  Al  Al2  1  0.78031378  0.09683798  0.81500942  1
  Al  Al3  1  0.45208249  0.08795754  0.30821031  1
  Al  Al4  1  0.55883254  0.19834421  0.06540273  1
  Al  Al5  1  0.10550107  0.09727494  0.82784473  1
  Al  Al6  1  0.21830335  0.20682490  0.56202871  1
  Al  Al7  1  0.88522279  0.20447461  0.08142071  1
  Al  Al8  1  0.44710794  0.09196697  0.81719004  1
  Al  Al9  1  0.56662401  0.20465852  0.55638702  1
  Al  Al10  1  0.11042046  0.42797848  0.31151062  1
  Al  Al11  1  0.22246911  0.53882634  0.06124614  1
  Al  Al12  1  0.78078047  0.42192348  0.81562531  1
  Al  Al13  1  0.89066434  0.53546087  0.56235213  1
  Al  Al14  1  0.45007721  0.42387385  0.31101574  1
  Al  Al15  1  0.55738603  0.54260905  0.06027655  1
  Al  Al16  1  0.11156488  0.42777403  0.81166085  1
  Al  Al17  1  0.22292852  0.53912523  0.56051423  1
  Al  Al18  1  0.77624967  0.42150259  0.31330812  1
  Al  Al19  1  0.88288962  0.54278502  0.06118307  1
  Al  Al20  1  0.44547833  0.42609797  0.81117781  1
  Al  Al21  1  0.55930038  0.53483143  0.56257861  1
  Al  Al22  1  0.10673527  0.76650167  0.31167158  1
  Al  Al23  1  0.22735282  0.87150475  0.06384538  1
  Al  Al24  1  0.77558781  0.76372588  0.81725749  1
  Al  Al25  1  0.88820444  0.88298428  0.55653286  1
  Al  Al26  1  0.44740456  0.76341328  0.30864042  1
  Al  Al27  1  0.10979895  0.76192376  0.81145127  1
  Al  Al28  1  0.21757109  0.87690874  0.56247653  1
  Al  Al29  1  0.77181101  0.76795889  0.30770451  1
  Al  Al30  1  0.88205869  0.87516467  0.06587191  1
  Al  Al31  1  0.44616098  0.76287928  0.81751096  1
  Al  Al32  1  0.55646388  0.87306991  0.56223214  1
  B  B33  1  0.89040022  0.20470399  0.59378497  1
  B  B34  1  0.77798764  0.09628641  0.30483585  1
  B  B35  1  0.55588685  0.87166389  0.05898136  1
  N  N36  1  0.22359787  0.20358644  0.36977086  1
  N  N37  1  0.11379810  0.09229532  0.12104741  1
  N  N38  1  0.88512968  0.20599955  0.88659387  1
  N  N39  1  0.79365868  0.11000955  0.62155921  1
  N  N40  1  0.57865034  0.19250343  0.36276339  1
  N  N41  1  0.45738964  0.06837448  0.11470040  1
  N  N42  1  0.22289260  0.20589481  0.87255138  1
  N  N43  1  0.08219746  0.10984040  0.61751477  1
  N  N44  1  0.87279909  0.19178052  0.34687270  1
  N  N45  1  0.77400336  0.09096631  0.14012526  1
  N  N46  1  0.55808820  0.20419691  0.87330419  1
  N  N47  1  0.44696706  0.09534486  0.62326763  1
  N  N48  1  0.22253677  0.53911559  0.36994971  1
  N  N49  1  0.10997810  0.42807113  0.12046577  1
  N  N50  1  0.88829826  0.53848004  0.86944570  1
  N  N51  1  0.79325811  0.39884589  0.61860774  1
  N  N52  1  0.55392806  0.54158875  0.37223976  1
  N  N53  1  0.44554152  0.42722586  0.11988610  1
  N  N54  1  0.22245254  0.53912129  0.87016527  1
  N  N55  1  0.11184970  0.42807969  0.62122069  1
  N  N56  1  0.88640820  0.54044192  0.37091139  1
  N  N57  1  0.77505070  0.43191697  0.12267923  1
  N  N58  1  0.55649137  0.53812075  0.86896978  1
  N  N59  1  0.44582129  0.42568285  0.61949418  1
  N  N60  1  0.22448121  0.87107249  0.37125532  1
  N  N61  1  0.11025819  0.76129270  0.12101614  1
  N  N62  1  0.88779918  0.87491167  0.87369355  1
  N  N63  1  0.77844539  0.76410008  0.62348529  1
  N  N64  1  0.55550427  0.87181486  0.37488335  1
  N  N65  1  0.45757436  0.77250153  0.11421854  1
  N  N66  1  0.22225260  0.87122320  0.87231235  1
  N  N67  1  0.10931994  0.76238590  0.61964293  1
  N  N68  1  0.87524600  0.89562269  0.36295604  1
  N  N69  1  0.75251812  0.77285152  0.11372057  1
  N  N70  1  0.55567043  0.87231773  0.89218762  1
  N  N71  1  0.44511651  0.76257129  0.62534253  1
