# generated using pymatgen
data_Al11BN12
_symmetry_space_group_name_H-M   'P 1'
_cell_length_a   9.26530605
_cell_length_b   9.26605874
_cell_length_c   10.05713350
_cell_angle_alpha   89.81711645
_cell_angle_beta   89.45935713
_cell_angle_gamma   60.07031048
_symmetry_Int_Tables_number   1
_chemical_formula_structural   Al11BN12
_chemical_formula_sum   'Al33 B3 N36'
_cell_volume   748.25034497
_cell_formula_units_Z   3
loop_
 _symmetry_equiv_pos_site_id
 _symmetry_equiv_pos_as_xyz
  1  'x, y, z'
loop_
 _atom_site_type_symbol
 _atom_site_label
 _atom_site_symmetry_multiplicity
 _atom_site_fract_x
 _atom_site_fract_y
 _atom_site_fract_z
 _atom_site_occupancy
  Al  Al0  1  0.09348767  0.10500515  0.38115334  1
  Al  Al1  1  0.22446032  0.19577513  0.12974164  1
  Al  Al2  1  0.78074168  0.09564040  0.81228327  1
  Al  Al3  1  0.45876429  0.08480130  0.31046512  1
  Al  Al4  1  0.55753996  0.19775187  0.06328172  1
  Al  Al5  1  0.10742480  0.10071291  0.88641878  1
  Al  Al6  1  0.21669810  0.20280288  0.63003636  1
  Al  Al7  1  0.88847904  0.19900837  0.12289226  1
  Al  Al8  1  0.45243414  0.08866061  0.81922480  1
  Al  Al9  1  0.56709485  0.20495494  0.55573226  1
  Al  Al10  1  0.10759153  0.43525539  0.31181390  1
  Al  Al11  1  0.22257886  0.53803052  0.06039712  1
  Al  Al12  1  0.78002570  0.42478614  0.81244430  1
  Al  Al13  1  0.89076253  0.53593814  0.56104527  1
  Al  Al14  1  0.44963488  0.42454905  0.30993111  1
  Al  Al15  1  0.55880494  0.54022209  0.05891230  1
  Al  Al16  1  0.10780451  0.43511185  0.81261085  1
  Al  Al17  1  0.22315367  0.53886351  0.55960416  1
  Al  Al18  1  0.77261642  0.42908117  0.31228397  1
  Al  Al19  1  0.88242219  0.54174792  0.05924815  1
  Al  Al20  1  0.44619725  0.42595506  0.81087680  1
  Al  Al21  1  0.55942556  0.53463944  0.56188782  1
  Al  Al22  1  0.10693850  0.76966723  0.31077824  1
  Al  Al23  1  0.23168189  0.86363260  0.06177299  1
  Al  Al24  1  0.77552924  0.76414420  0.81644818  1
  Al  Al25  1  0.88823770  0.88298858  0.55650374  1
  Al  Al26  1  0.44510357  0.76564812  0.30832920  1
  Al  Al27  1  0.11026552  0.76300027  0.81100668  1
  Al  Al28  1  0.22218120  0.86984303  0.56557064  1
  Al  Al29  1  0.77220135  0.76827420  0.30603736  1
  Al  Al30  1  0.88252122  0.87296736  0.06351895  1
  Al  Al31  1  0.44679110  0.76238199  0.81733079  1
  Al  Al32  1  0.55853826  0.87196830  0.56146813  1
  B  B33  1  0.88926696  0.20659675  0.61347567  1
  B  B34  1  0.77554456  0.09238185  0.30220341  1
  B  B35  1  0.55656565  0.87116684  0.05989665  1
  N  N36  1  0.22208283  0.20243435  0.32727647  1
  N  N37  1  0.11122606  0.09351862  0.07656298  1
  N  N38  1  0.88763050  0.20640836  0.85438530  1
  N  N39  1  0.79245831  0.10963612  0.61940627  1
  N  N40  1  0.58055328  0.19311160  0.36312332  1
  N  N41  1  0.46076996  0.06469297  0.11501819  1
  N  N42  1  0.22110049  0.20310351  0.82440055  1
  N  N43  1  0.07715322  0.11384872  0.57768360  1
  N  N44  1  0.87579294  0.19251342  0.32148017  1
  N  N45  1  0.76993636  0.08564166  0.13914968  1
  N  N46  1  0.55837051  0.20443394  0.87405169  1
  N  N47  1  0.45525294  0.09156231  0.62208055  1
  N  N48  1  0.22251088  0.54148191  0.37057913  1
  N  N49  1  0.10624638  0.43296649  0.11936789  1
  N  N50  1  0.88665698  0.54060639  0.87017282  1
  N  N51  1  0.79119656  0.40243587  0.61682208  1
  N  N52  1  0.55232413  0.54284677  0.37275023  1
  N  N53  1  0.44527753  0.42618916  0.12053308  1
  N  N54  1  0.22311534  0.53976516  0.87131425  1
  N  N55  1  0.10867898  0.43399568  0.62008186  1
  N  N56  1  0.88540959  0.54247606  0.37151488  1
  N  N57  1  0.77468502  0.43187898  0.12236759  1
  N  N58  1  0.55674507  0.53808071  0.86959886  1
  N  N59  1  0.44558227  0.42594372  0.61988451  1
  N  N60  1  0.22482528  0.87110897  0.37403415  1
  N  N61  1  0.11016203  0.76110541  0.12208673  1
  N  N62  1  0.88803177  0.87437088  0.87357949  1
  N  N63  1  0.77913247  0.76363659  0.62367832  1
  N  N64  1  0.55681796  0.87018331  0.37560106  1
  N  N65  1  0.45782845  0.77107404  0.11570988  1
  N  N66  1  0.22544787  0.86652469  0.87069949  1
  N  N67  1  0.10872086  0.76204106  0.62086111  1
  N  N68  1  0.87479163  0.89713506  0.36318266  1
  N  N69  1  0.75306130  0.77102578  0.11412546  1
  N  N70  1  0.55638644  0.87116516  0.89370734  1
  N  N71  1  0.44735770  0.76164726  0.62624557  1
