# generated using pymatgen
data_Al11BN12
_symmetry_space_group_name_H-M   'P 1'
_cell_length_a   9.26775431
_cell_length_b   9.27447274
_cell_length_c   9.94983865
_cell_angle_alpha   89.71653068
_cell_angle_beta   89.54866345
_cell_angle_gamma   59.95196301
_symmetry_Int_Tables_number   1
_chemical_formula_structural   Al11BN12
_chemical_formula_sum   'Al33 B3 N36'
_cell_volume   740.26330138
_cell_formula_units_Z   3
loop_
 _symmetry_equiv_pos_site_id
 _symmetry_equiv_pos_as_xyz
  1  'x, y, z'
loop_
 _atom_site_type_symbol
 _atom_site_label
 _atom_site_symmetry_multiplicity
 _atom_site_fract_x
 _atom_site_fract_y
 _atom_site_fract_z
 _atom_site_occupancy
  Al  Al0  1  0.09921786  0.09457725  0.40527038  1
  Al  Al1  1  0.22488388  0.20021928  0.15094387  1
  Al  Al2  1  0.78231485  0.09552355  0.87180165  1
  Al  Al3  1  0.45164960  0.08980285  0.38998487  1
  Al  Al4  1  0.56123962  0.19867267  0.10372305  1
  Al  Al5  1  0.10976335  0.09643188  0.89622977  1
  Al  Al6  1  0.21871725  0.20580522  0.64820034  1
  Al  Al7  1  0.88703177  0.20322821  0.14541991  1
  Al  Al8  1  0.44353354  0.08730072  0.89972637  1
  Al  Al9  1  0.56595935  0.20317850  0.62912407  1
  Al  Al10  1  0.11015145  0.42718255  0.40080614  1
  Al  Al11  1  0.22175301  0.53913047  0.15118498  1
  Al  Al12  1  0.77968561  0.42728648  0.89560138  1
  Al  Al13  1  0.88877865  0.53620754  0.64895064  1
  Al  Al14  1  0.45073123  0.42415831  0.39647218  1
  Al  Al15  1  0.55919782  0.54282877  0.15029728  1
  Al  Al16  1  0.11127486  0.42822097  0.89882240  1
  Al  Al17  1  0.22208321  0.53950995  0.64830347  1
  Al  Al18  1  0.77787220  0.41627353  0.40512170  1
  Al  Al19  1  0.88405257  0.54116155  0.15053675  1
  Al  Al20  1  0.44104265  0.43357074  0.89747175  1
  Al  Al21  1  0.55963424  0.53512369  0.64916978  1
  Al  Al22  1  0.10589673  0.76830734  0.39841202  1
  Al  Al23  1  0.22553085  0.87529674  0.15005888  1
  Al  Al24  1  0.77317805  0.76344635  0.90388269  1
  Al  Al25  1  0.89046436  0.87601539  0.64988330  1
  Al  Al26  1  0.44531912  0.76288169  0.39418023  1
  Al  Al27  1  0.11056300  0.76119870  0.90139428  1
  Al  Al28  1  0.21804379  0.87574725  0.64979328  1
  Al  Al29  1  0.77279042  0.76797853  0.39208197  1
  Al  Al30  1  0.88109650  0.87961845  0.14423003  1
  Al  Al31  1  0.44691641  0.76362838  0.90305848  1
  Al  Al32  1  0.55658667  0.87194196  0.64713918  1
  B  B33  1  0.88963737  0.20448553  0.65974060  1
  B  B34  1  0.77454958  0.09612012  0.35899361  1
  B  B35  1  0.55564335  0.87150058  0.15315487  1
  N  N36  1  0.21971070  0.20349773  0.34221547  1
  N  N37  1  0.10976676  0.09610481  0.08811308  1
  N  N38  1  0.89484371  0.21166466  0.82323913  1
  N  N39  1  0.79454845  0.10692507  0.63060693  1
  N  N40  1  0.58732127  0.18973245  0.35558623  1
  N  N41  1  0.45582934  0.06759433  0.09691197  1
  N  N42  1  0.22376385  0.20523656  0.83959853  1
  N  N43  1  0.08695905  0.10666350  0.59775994  1
  N  N44  1  0.87295948  0.18984408  0.33916438  1
  N  N45  1  0.78649754  0.09262196  0.07241227  1
  N  N46  1  0.54917648  0.20752730  0.85918083  1
  N  N47  1  0.44556509  0.09294141  0.58395980  1
  N  N48  1  0.22163038  0.53946250  0.34120497  1
  N  N49  1  0.11183066  0.42704766  0.09087763  1
  N  N50  1  0.88803505  0.54240600  0.84094054  1
  N  N51  1  0.79066409  0.40321705  0.59759078  1
  N  N52  1  0.55838987  0.53863013  0.34041097  1
  N  N53  1  0.44401444  0.43273449  0.09126669  1
  N  N54  1  0.22112147  0.54090888  0.83914046  1
  N  N55  1  0.11145123  0.42811933  0.59052848  1
  N  N56  1  0.88672972  0.53662225  0.34206129  1
  N  N57  1  0.77992744  0.42551022  0.08768036  1
  N  N58  1  0.55519272  0.54190028  0.84052929  1
  N  N59  1  0.44450378  0.42929078  0.58819671  1
  N  N60  1  0.22103798  0.87493857  0.34060355  1
  N  N61  1  0.11087312  0.76212742  0.09341192  1
  N  N62  1  0.89148932  0.86438372  0.84177287  1
  N  N63  1  0.77806224  0.76307746  0.58374412  1
  N  N64  1  0.55516598  0.87160657  0.31728844  1
  N  N65  1  0.45749639  0.77348279  0.09728599  1
  N  N66  1  0.22398173  0.87136950  0.84204199  1
  N  N67  1  0.11134063  0.76156843  0.58790856  1
  N  N68  1  0.87317094  0.90255554  0.34015920  1
  N  N69  1  0.75358832  0.77356339  0.09901746  1
  N  N70  1  0.55663489  0.87078506  0.83547398  1
  N  N71  1  0.44529252  0.76192102  0.58615696  1
