# generated using pymatgen
data_Al11BN12
_symmetry_space_group_name_H-M   'P 1'
_cell_length_a   9.25683845
_cell_length_b   9.25683798
_cell_length_c   9.88997509
_cell_angle_alpha   90.08191225
_cell_angle_beta   90.08191773
_cell_angle_gamma   60.01884118
_symmetry_Int_Tables_number   1
_chemical_formula_structural   Al11BN12
_chemical_formula_sum   'Al33 B3 N36'
_cell_volume   734.06244619
_cell_formula_units_Z   3
loop_
 _symmetry_equiv_pos_site_id
 _symmetry_equiv_pos_as_xyz
  1  'x, y, z'
loop_
 _atom_site_type_symbol
 _atom_site_label
 _atom_site_symmetry_multiplicity
 _atom_site_fract_x
 _atom_site_fract_y
 _atom_site_fract_z
 _atom_site_occupancy
  Al  Al0  1  0.10191189  0.09581939  0.41886637  1
  Al  Al1  1  0.22472327  0.20018628  0.16445442  1
  Al  Al2  1  0.77845268  0.09511912  0.90599175  1
  Al  Al3  1  0.45086533  0.09098541  0.40825547  1
  Al  Al4  1  0.56405030  0.19775571  0.16888330  1
  Al  Al5  1  0.10698348  0.09623405  0.90765781  1
  Al  Al6  1  0.21931191  0.20604999  0.66400439  1
  Al  Al7  1  0.88629852  0.20296443  0.16648657  1
  Al  Al8  1  0.44798102  0.09035759  0.91829394  1
  Al  Al9  1  0.56143228  0.20473147  0.65709297  1
  Al  Al10  1  0.11095224  0.42761739  0.41486623  1
  Al  Al11  1  0.22227209  0.53893881  0.16521886  1
  Al  Al12  1  0.77956743  0.42365034  0.90765768  1
  Al  Al13  1  0.88938201  0.53597967  0.66400444  1
  Al  Al14  1  0.45008892  0.42462893  0.41436157  1
  Al  Al15  1  0.55910328  0.54154213  0.16413095  1
  Al  Al16  1  0.11119576  0.42786169  0.91488693  1
  Al  Al17  1  0.22267771  0.53934494  0.66474799  1
  Al  Al18  1  0.77915334  0.41857772  0.41886657  1
  Al  Al19  1  0.88352096  0.54138809  0.16445440  1
  Al  Al20  1  0.44547778  0.42597111  0.91448242  1
  Al  Al21  1  0.55867107  0.53558823  0.66461729  1
  Al  Al22  1  0.10796203  0.76675500  0.41436151  1
  Al  Al23  1  0.22487572  0.87576986  0.16413096  1
  Al  Al24  1  0.77369090  0.76464743  0.91829416  1
  Al  Al25  1  0.88806418  0.87809914  0.65709268  1
  Al  Al26  1  0.44631317  0.76298049  0.40843381  1
  Al  Al27  1  0.10930389  0.76214506  0.91448241  1
  Al  Al28  1  0.21891959  0.87533971  0.66461716  1
  Al  Al29  1  0.77431950  0.76753038  0.40825518  1
  Al  Al30  1  0.88108873  0.88071653  0.16888338  1
  Al  Al31  1  0.44729652  0.76396386  0.91863790  1
  Al  Al32  1  0.55589623  0.87256335  0.66366613  1
  B  B33  1  0.88928588  0.20595345  0.66172244  1
  B  B34  1  0.78243553  0.09910216  0.41981373  1
  B  B35  1  0.55612217  0.87278823  0.16926251  1
  N  N36  1  0.22076066  0.20382551  0.35671253  1
  N  N37  1  0.10658640  0.09691623  0.10140663  1
  N  N38  1  0.88732761  0.20399451  0.82893975  1
  N  N39  1  0.78992870  0.10659576  0.59183505  1
  N  N40  1  0.58315709  0.19308132  0.36417084  1
  N  N41  1  0.45783973  0.07121432  0.11485462  1
  N  N42  1  0.22450767  0.20444895  0.85668019  1
  N  N43  1  0.08647848  0.10719938  0.61214332  1
  N  N44  1  0.87628789  0.19295395  0.35894337  1
  N  N45  1  0.77871301  0.09537926  0.09644810  1
  N  N46  1  0.55510448  0.20424150  0.85107253  1
  N  N47  1  0.44460812  0.09308719  0.60034788  1
  N  N48  1  0.22270662  0.53937277  0.35630284  1
  N  N49  1  0.11068578  0.42735135  0.10666173  1
  N  N50  1  0.88778257  0.54117423  0.85668033  1
  N  N51  1  0.79053134  0.40314618  0.61214361  1
  N  N52  1  0.55844634  0.53828582  0.35564680  1
  N  N53  1  0.44661047  0.42504819  0.10797789  1
  N  N54  1  0.22246846  0.53913562  0.85662308  1
  N  N55  1  0.11143145  0.42809911  0.60593386  1
  N  N56  1  0.88716016  0.53742575  0.35671250  1
  N  N57  1  0.78024973  0.42325247  0.10140663  1
  N  N58  1  0.55409653  0.54105437  0.85696424  1
  N  N59  1  0.44435531  0.42866821  0.60488261  1
  N  N60  1  0.22161887  0.87511267  0.35564664  1
  N  N61  1  0.10838130  0.76327729  0.10797792  1
  N  N62  1  0.88757442  0.87177118  0.85107233  1
  N  N63  1  0.77641977  0.76127519  0.60034759  1
  N  N64  1  0.55586514  0.87253129  0.33354757  1
  N  N65  1  0.45725630  0.77392285  0.11301170  1
  N  N66  1  0.22438709  0.87076361  0.85696402  1
  N  N67  1  0.11200085  0.76102258  0.60488258  1
  N  N68  1  0.87641448  0.89982326  0.36417086  1
  N  N69  1  0.75454821  0.77450525  0.11485481  1
  N  N70  1  0.55592323  0.87258987  0.85272768  1
  N  N71  1  0.44516825  0.76183658  0.60168103  1
