# generated using pymatgen
data_Al11BN12
_symmetry_space_group_name_H-M   'P 1'
_cell_length_a   9.28033662
_cell_length_b   9.28073491
_cell_length_c   10.09000796
_cell_angle_alpha   89.41427562
_cell_angle_beta   89.38985248
_cell_angle_gamma   60.02900556
_symmetry_Int_Tables_number   1
_chemical_formula_structural   Al11BN12
_chemical_formula_sum   'Al33 B3 N36'
_cell_volume   752.77210367
_cell_formula_units_Z   3
loop_
 _symmetry_equiv_pos_site_id
 _symmetry_equiv_pos_as_xyz
  1  'x, y, z'
loop_
 _atom_site_type_symbol
 _atom_site_label
 _atom_site_symmetry_multiplicity
 _atom_site_fract_x
 _atom_site_fract_y
 _atom_site_fract_z
 _atom_site_occupancy
  Al  Al0  1  0.09867153  0.09572640  0.39502225  1
  Al  Al1  1  0.22359281  0.19900442  0.13981235  1
  Al  Al2  1  0.77736626  0.09432012  0.81407346  1
  Al  Al3  1  0.44759106  0.08779173  0.37626597  1
  Al  Al4  1  0.56077774  0.20029936  0.07731054  1
  Al  Al5  1  0.10989527  0.09635624  0.88459963  1
  Al  Al6  1  0.22145621  0.20577652  0.63785750  1
  Al  Al7  1  0.88899148  0.20542244  0.14334459  1
  Al  Al8  1  0.44482049  0.08630364  0.89269028  1
  Al  Al9  1  0.57141960  0.20661349  0.55931930  1
  Al  Al10  1  0.10930698  0.42560890  0.39002903  1
  Al  Al11  1  0.21871584  0.53509845  0.13536224  1
  Al  Al12  1  0.77961094  0.42671322  0.88467619  1
  Al  Al13  1  0.88912691  0.53815886  0.63800041  1
  Al  Al14  1  0.45330785  0.41753060  0.32076126  1
  Al  Al15  1  0.56194935  0.54506526  0.13765173  1
  Al  Al16  1  0.11050794  0.42745635  0.88923004  1
  Al  Al17  1  0.21954311  0.53615499  0.63242363  1
  Al  Al18  1  0.77938654  0.41497459  0.39509463  1
  Al  Al19  1  0.88251819  0.54011411  0.13997151  1
  Al  Al20  1  0.44898902  0.41992864  0.82340555  1
  Al  Al21  1  0.56331211  0.53884617  0.63727149  1
  Al  Al22  1  0.10117355  0.76970275  0.32073995  1
  Al  Al23  1  0.22875048  0.87836274  0.13770502  1
  Al  Al24  1  0.76935344  0.76174265  0.89288531  1
  Al  Al25  1  0.89004463  0.88826503  0.55939453  1
  Al  Al26  1  0.44574159  0.76190330  0.38401469  1
  Al  Al27  1  0.10287800  0.76600674  0.82294566  1
  Al  Al28  1  0.22237612  0.87993730  0.63715227  1
  Al  Al29  1  0.77161733  0.76380046  0.37680629  1
  Al  Al30  1  0.88407652  0.87716710  0.07724601  1
  Al  Al31  1  0.44650290  0.76335395  0.89178027  1
  Al  Al32  1  0.55820340  0.87483623  0.63495556  1
  B  B33  1  0.89306118  0.20982919  0.64710098  1
  B  B34  1  0.77539640  0.09171892  0.30943932  1
  B  B35  1  0.55534260  0.87143244  0.14098008  1
  N  N36  1  0.21839006  0.20374606  0.32868059  1
  N  N37  1  0.10591356  0.09681200  0.07363757  1
  N  N38  1  0.89557570  0.21239076  0.80985070  1
  N  N39  1  0.78907618  0.10594734  0.62726750  1
  N  N40  1  0.58594820  0.19123206  0.36828941  1
  N  N41  1  0.45317916  0.06609383  0.08666167  1
  N  N42  1  0.22661873  0.20533709  0.82784206  1
  N  N43  1  0.08589530  0.10915083  0.58634244  1
  N  N44  1  0.87869672  0.19498635  0.33045067  1
  N  N45  1  0.77216609  0.08851424  0.14921827  1
  N  N46  1  0.56312936  0.20357414  0.88682862  1
  N  N47  1  0.44361650  0.09329719  0.56913925  1
  N  N48  1  0.21965753  0.53605496  0.33488933  1
  N  N49  1  0.10879473  0.42530893  0.07810324  1
  N  N50  1  0.88842709  0.54356117  0.82792740  1
  N  N51  1  0.79256379  0.40252706  0.58642662  1
  N  N52  1  0.56189006  0.54018281  0.33049830  1
  N  N53  1  0.44853084  0.42343090  0.12542746  1
  N  N54  1  0.21972318  0.53674106  0.83221802  1
  N  N55  1  0.10988254  0.42651381  0.57751456  1
  N  N56  1  0.88743267  0.53471633  0.32884237  1
  N  N57  1  0.78047079  0.42231868  0.07368840  1
  N  N58  1  0.55794488  0.54399230  0.82987406  1
  N  N59  1  0.45010340  0.42068943  0.62362621  1
  N  N60  1  0.22401028  0.87813046  0.33056183  1
  N  N61  1  0.10708734  0.76492482  0.12554523  1
  N  N62  1  0.88665957  0.88009645  0.88680049  1
  N  N63  1  0.77683793  0.76027174  0.56936504  1
  N  N64  1  0.55525446  0.87115286  0.30353347  1
  N  N65  1  0.45683958  0.77314277  0.08374403  1
  N  N66  1  0.22723263  0.87471244  0.82973910  1
  N  N67  1  0.10403633  0.76681129  0.62369594  1
  N  N68  1  0.87489065  0.90236365  0.36842336  1
  N  N69  1  0.74975848  0.76954545  0.08656655  1
  N  N70  1  0.55655355  0.87338479  0.82211615  1
  N  N71  1  0.44671221  0.76307358  0.57368968  1
