# generated using pymatgen
data_Al11BN12
_symmetry_space_group_name_H-M   'P 1'
_cell_length_a   9.31421429
_cell_length_b   9.29057894
_cell_length_c   10.04267603
_cell_angle_alpha   89.68258209
_cell_angle_beta   89.62086593
_cell_angle_gamma   59.98801243
_symmetry_Int_Tables_number   1
_chemical_formula_structural   Al11BN12
_chemical_formula_sum   'Al33 B3 N36'
_cell_volume   752.49854723
_cell_formula_units_Z   3
loop_
 _symmetry_equiv_pos_site_id
 _symmetry_equiv_pos_as_xyz
  1  'x, y, z'
loop_
 _atom_site_type_symbol
 _atom_site_label
 _atom_site_symmetry_multiplicity
 _atom_site_fract_x
 _atom_site_fract_y
 _atom_site_fract_z
 _atom_site_occupancy
  Al  Al0  1  0.09999203  0.09635179  0.39426856  1
  Al  Al1  1  0.21808823  0.20058051  0.13756100  1
  Al  Al2  1  0.77839925  0.09502001  0.81350603  1
  Al  Al3  1  0.45799988  0.08391584  0.31592581  1
  Al  Al4  1  0.55710838  0.19819628  0.07283478  1
  Al  Al5  1  0.10663874  0.10034428  0.88467554  1
  Al  Al6  1  0.21538811  0.20959011  0.64132589  1
  Al  Al7  1  0.88673100  0.20369872  0.14483343  1
  Al  Al8  1  0.45421129  0.09006949  0.82681024  1
  Al  Al9  1  0.56799694  0.20391367  0.56348105  1
  Al  Al10  1  0.11452912  0.42183199  0.38457396  1
  Al  Al11  1  0.22565123  0.54067327  0.07246476  1
  Al  Al12  1  0.77997232  0.42240129  0.87905678  1
  Al  Al13  1  0.88633722  0.54132013  0.57897690  1
  Al  Al14  1  0.45149286  0.42412587  0.31873875  1
  Al  Al15  1  0.55082218  0.54341428  0.06832281  1
  Al  Al16  1  0.11482848  0.42329193  0.88687020  1
  Al  Al17  1  0.22674073  0.54298851  0.56824575  1
  Al  Al18  1  0.78185017  0.40982763  0.39117898  1
  Al  Al19  1  0.87866872  0.54660903  0.07285903  1
  Al  Al20  1  0.44515153  0.42686906  0.81798046  1
  Al  Al21  1  0.55405842  0.53923547  0.57555019  1
  Al  Al22  1  0.10763817  0.76767774  0.31809992  1
  Al  Al23  1  0.22718145  0.86964917  0.07435179  1
  Al  Al24  1  0.77566709  0.76658646  0.82295424  1
  Al  Al25  1  0.88737245  0.88531700  0.56250119  1
  Al  Al26  1  0.44740483  0.76287278  0.31746125  1
  Al  Al27  1  0.10812818  0.76110418  0.82054524  1
  Al  Al28  1  0.22011864  0.87600214  0.59342410  1
  Al  Al29  1  0.77217959  0.76519816  0.31495531  1
  Al  Al30  1  0.88064508  0.87494839  0.07239945  1
  Al  Al31  1  0.44802747  0.76358111  0.82670719  1
  Al  Al32  1  0.55712947  0.87518062  0.56926372  1
  B  B33  1  0.89086500  0.21109085  0.64701590  1
  B  B34  1  0.77503861  0.08835147  0.31073547  1
  B  B35  1  0.55489482  0.87348420  0.06656384  1
  N  N36  1  0.21999640  0.20142215  0.32950878  1
  N  N37  1  0.10136361  0.10018935  0.07548999  1
  N  N38  1  0.89557229  0.21080711  0.80906406  1
  N  N39  1  0.78938467  0.10637259  0.62561845  1
  N  N40  1  0.58066173  0.19146344  0.37005155  1
  N  N41  1  0.45767187  0.06617269  0.12119097  1
  N  N42  1  0.22203166  0.20572338  0.83115167  1
  N  N43  1  0.08431874  0.11191888  0.58842178  1
  N  N44  1  0.87903280  0.19008881  0.33175662  1
  N  N45  1  0.77001314  0.08703486  0.14789911  1
  N  N46  1  0.56108869  0.20570464  0.88343528  1
  N  N47  1  0.45451300  0.09351262  0.63120928  1
  N  N48  1  0.22657351  0.54178022  0.37552045  1
  N  N49  1  0.11156843  0.42376034  0.08515265  1
  N  N50  1  0.88635090  0.54594723  0.87270265  1
  N  N51  1  0.79127947  0.39965987  0.58980373  1
  N  N52  1  0.55221460  0.54177458  0.38144160  1
  N  N53  1  0.44588040  0.42569013  0.13039412  1
  N  N54  1  0.22667966  0.54125985  0.87941111  1
  N  N55  1  0.11525160  0.42497028  0.58231613  1
  N  N56  1  0.88301221  0.54296898  0.37558867  1
  N  N57  1  0.77941397  0.41668103  0.07782672  1
  N  N58  1  0.54965490  0.54143777  0.87633702  1
  N  N59  1  0.44591667  0.42536527  0.62862039  1
  N  N60  1  0.22605437  0.86908581  0.37418871  1
  N  N61  1  0.10795929  0.76263744  0.12831260  1
  N  N62  1  0.88676925  0.87818790  0.88301922  1
  N  N63  1  0.77802342  0.76805261  0.63129772  1
  N  N64  1  0.55657636  0.87042115  0.38326728  1
  N  N65  1  0.45707800  0.77213081  0.12248931  1
  N  N66  1  0.22319143  0.86972440  0.87032997  1
  N  N67  1  0.10686477  0.76259826  0.62993201  1
  N  N68  1  0.87501815  0.89532137  0.36917000  1
  N  N69  1  0.75081114  0.77303381  0.12300197  1
  N  N70  1  0.55688177  0.87267510  0.90165264  1
  N  N71  1  0.44904796  0.76363031  0.63607735  1
