# generated using pymatgen
data_Al11BN12
_symmetry_space_group_name_H-M   'P 1'
_cell_length_a   9.27813500
_cell_length_b   9.27873663
_cell_length_c   9.95396972
_cell_angle_alpha   89.84416443
_cell_angle_beta   89.60728624
_cell_angle_gamma   60.02223357
_symmetry_Int_Tables_number   1
_chemical_formula_structural   Al11BN12
_chemical_formula_sum   'Al33 B3 N36'
_cell_volume   742.27253695
_cell_formula_units_Z   3
loop_
 _symmetry_equiv_pos_site_id
 _symmetry_equiv_pos_as_xyz
  1  'x, y, z'
loop_
 _atom_site_type_symbol
 _atom_site_label
 _atom_site_symmetry_multiplicity
 _atom_site_fract_x
 _atom_site_fract_y
 _atom_site_fract_z
 _atom_site_occupancy
  Al  Al0  1  0.09446033  0.09951778  0.36101469  1
  Al  Al1  1  0.23021871  0.20198845  0.07043156  1
  Al  Al2  1  0.78060590  0.09718465  0.81429364  1
  Al  Al3  1  0.45326603  0.08746495  0.30865939  1
  Al  Al4  1  0.55849538  0.19798893  0.06371061  1
  Al  Al5  1  0.10660790  0.09681401  0.88308643  1
  Al  Al6  1  0.22062414  0.20824023  0.56558975  1
  Al  Al7  1  0.88244953  0.20480492  0.09151715  1
  Al  Al8  1  0.44730139  0.09169173  0.81667249  1
  Al  Al9  1  0.56750750  0.20492807  0.55576049  1
  Al  Al10  1  0.11042594  0.42908173  0.31200330  1
  Al  Al11  1  0.22245599  0.53830922  0.06056458  1
  Al  Al12  1  0.78107703  0.42125436  0.81530264  1
  Al  Al13  1  0.89064509  0.53553691  0.56194631  1
  Al  Al14  1  0.45002384  0.42417515  0.31046108  1
  Al  Al15  1  0.55775132  0.54202295  0.05872508  1
  Al  Al16  1  0.11112123  0.42831485  0.81107471  1
  Al  Al17  1  0.22322357  0.53942741  0.55988466  1
  Al  Al18  1  0.77441485  0.42470516  0.31071727  1
  Al  Al19  1  0.88271941  0.54282663  0.06008606  1
  Al  Al20  1  0.44530633  0.42598704  0.81094383  1
  Al  Al21  1  0.55995570  0.53417096  0.56221130  1
  Al  Al22  1  0.10655483  0.76709751  0.31073770  1
  Al  Al23  1  0.23102114  0.86450554  0.06590992  1
  Al  Al24  1  0.77552484  0.76374965  0.81689375  1
  Al  Al25  1  0.88855770  0.88295844  0.55615137  1
  Al  Al26  1  0.44762302  0.76377859  0.30805759  1
  Al  Al27  1  0.10967319  0.76184999  0.81104855  1
  Al  Al28  1  0.22048856  0.87233748  0.56388635  1
  Al  Al29  1  0.77225744  0.76800711  0.30694211  1
  Al  Al30  1  0.88191223  0.87445610  0.06438351  1
  Al  Al31  1  0.44632039  0.76273701  0.81694183  1
  Al  Al32  1  0.55768877  0.87241194  0.56163581  1
  B  B33  1  0.89059978  0.20536008  0.59506275  1
  B  B34  1  0.77607162  0.09598541  0.30110287  1
  B  B35  1  0.55643538  0.87100625  0.05860898  1
  N  N36  1  0.22598489  0.20525836  0.36846905  1
  N  N37  1  0.11377902  0.09131729  0.09094137  1
  N  N38  1  0.87919608  0.20888822  0.88629670  1
  N  N39  1  0.79446268  0.11051638  0.62021381  1
  N  N40  1  0.57905464  0.19277481  0.36221653  1
  N  N41  1  0.45860758  0.06747218  0.11549129  1
  N  N42  1  0.22454621  0.20803342  0.86951726  1
  N  N43  1  0.07790710  0.11200773  0.58002678  1
  N  N44  1  0.86983798  0.19419590  0.33123118  1
  N  N45  1  0.77143537  0.08842000  0.13832391  1
  N  N46  1  0.55789932  0.20394859  0.87219264  1
  N  N47  1  0.44931397  0.09435732  0.62259033  1
  N  N48  1  0.22254369  0.54006077  0.36960090  1
  N  N49  1  0.10907113  0.42936334  0.12122538  1
  N  N50  1  0.88801894  0.53869597  0.86864455  1
  N  N51  1  0.79378107  0.39832264  0.61797244  1
  N  N52  1  0.55371029  0.54193876  0.37196101  1
  N  N53  1  0.44551453  0.42692581  0.11921416  1
  N  N54  1  0.22211035  0.53921645  0.86982214  1
  N  N55  1  0.11124594  0.42969256  0.62075311  1
  N  N56  1  0.88626161  0.54048490  0.37066485  1
  N  N57  1  0.77373938  0.43431016  0.12130011  1
  N  N58  1  0.55629867  0.53824083  0.86786132  1
  N  N59  1  0.44580729  0.42575178  0.61891225  1
  N  N60  1  0.22617666  0.86837690  0.37025403  1
  N  N61  1  0.10961634  0.76018952  0.12082629  1
  N  N62  1  0.88763498  0.87499311  0.87261194  1
  N  N63  1  0.77887363  0.76397123  0.62303646  1
  N  N64  1  0.55621150  0.87134425  0.37450871  1
  N  N65  1  0.45881149  0.77122864  0.11433306  1
  N  N66  1  0.22427392  0.86678564  0.87099011  1
  N  N67  1  0.10908562  0.76203591  0.61962514  1
  N  N68  1  0.87537258  0.89614877  0.36248049  1
  N  N69  1  0.75280501  0.77230472  0.11313666  1
  N  N70  1  0.55557559  0.87223630  0.89210006  1
  N  N71  1  0.44672223  0.76180854  0.62488798  1
