# generated using pymatgen
data_Al11BN12
_symmetry_space_group_name_H-M   'P 1'
_cell_length_a   9.26524920
_cell_length_b   9.26865444
_cell_length_c   10.05919454
_cell_angle_alpha   89.82905421
_cell_angle_beta   89.49440878
_cell_angle_gamma   60.06172312
_symmetry_Int_Tables_number   1
_chemical_formula_structural   Al11BN12
_chemical_formula_sum   'Al33 B3 N36'
_cell_volume   748.54846029
_cell_formula_units_Z   3
loop_
 _symmetry_equiv_pos_site_id
 _symmetry_equiv_pos_as_xyz
  1  'x, y, z'
loop_
 _atom_site_type_symbol
 _atom_site_label
 _atom_site_symmetry_multiplicity
 _atom_site_fract_x
 _atom_site_fract_y
 _atom_site_fract_z
 _atom_site_occupancy
  Al  Al0  1  0.09220195  0.10608735  0.38631658  1
  Al  Al1  1  0.22297129  0.19596726  0.12866168  1
  Al  Al2  1  0.77866425  0.09268213  0.80939341  1
  Al  Al3  1  0.45777770  0.08487083  0.31041590  1
  Al  Al4  1  0.55683874  0.19807830  0.06399100  1
  Al  Al5  1  0.10872215  0.09997421  0.88232643  1
  Al  Al6  1  0.21752210  0.20216747  0.63037106  1
  Al  Al7  1  0.88974985  0.19767873  0.13284589  1
  Al  Al8  1  0.45321606  0.08867164  0.81916220  1
  Al  Al9  1  0.56826490  0.20426701  0.55571243  1
  Al  Al10  1  0.10760320  0.43502751  0.31169137  1
  Al  Al11  1  0.22247411  0.53816686  0.06043133  1
  Al  Al12  1  0.77780186  0.43046437  0.80900258  1
  Al  Al13  1  0.89013733  0.53584474  0.56107798  1
  Al  Al14  1  0.44926141  0.42467512  0.31006661  1
  Al  Al15  1  0.55832624  0.54029896  0.05970680  1
  Al  Al16  1  0.10817241  0.43519330  0.81242239  1
  Al  Al17  1  0.22315386  0.53880619  0.55972983  1
  Al  Al18  1  0.77209383  0.42990382  0.31417917  1
  Al  Al19  1  0.88246058  0.54161710  0.05978701  1
  Al  Al20  1  0.44635619  0.42598714  0.81052027  1
  Al  Al21  1  0.56031863  0.53442347  0.56170028  1
  Al  Al22  1  0.10703050  0.76975495  0.31115167  1
  Al  Al23  1  0.23060817  0.86435878  0.06106913  1
  Al  Al24  1  0.77590833  0.76406481  0.81630179  1
  Al  Al25  1  0.88760155  0.88377731  0.55656170  1
  Al  Al26  1  0.44419369  0.76631808  0.30864946  1
  Al  Al27  1  0.11055125  0.76265529  0.81057869  1
  Al  Al28  1  0.22241453  0.87032979  0.56644743  1
  Al  Al29  1  0.77185669  0.76847259  0.30627431  1
  Al  Al30  1  0.88258109  0.87247738  0.06414912  1
  Al  Al31  1  0.44726522  0.76201510  0.81707021  1
  Al  Al32  1  0.55860487  0.87190982  0.56185405  1
  B  B33  1  0.89315369  0.20416111  0.63886435  1
  B  B34  1  0.77472453  0.09181231  0.30367401  1
  B  B35  1  0.55633543  0.87126164  0.05983517  1
  N  N36  1  0.22083467  0.20196041  0.32606889  1
  N  N37  1  0.10585430  0.09669380  0.07152434  1
  N  N38  1  0.89680008  0.20263268  0.81770229  1
  N  N39  1  0.79004381  0.10684558  0.62007954  1
  N  N40  1  0.58023333  0.19294568  0.36252659  1
  N  N41  1  0.45990477  0.06476076  0.11477194  1
  N  N42  1  0.22248740  0.20362584  0.82545527  1
  N  N43  1  0.08016669  0.11229708  0.57966438  1
  N  N44  1  0.87560206  0.19255324  0.32330958  1
  N  N45  1  0.77004602  0.08586940  0.13841059  1
  N  N46  1  0.55940304  0.20476266  0.87519873  1
  N  N47  1  0.45557534  0.09158351  0.62233100  1
  N  N48  1  0.22232496  0.54134606  0.37058558  1
  N  N49  1  0.10619869  0.43308742  0.11928220  1
  N  N50  1  0.88719489  0.54055659  0.87121883  1
  N  N51  1  0.78838685  0.40801305  0.61710332  1
  N  N52  1  0.55153027  0.54335762  0.37211121  1
  N  N53  1  0.44497876  0.42628584  0.12074633  1
  N  N54  1  0.22340927  0.53982282  0.87139761  1
  N  N55  1  0.10873026  0.43382040  0.62017286  1
  N  N56  1  0.88546379  0.54289915  0.37099895  1
  N  N57  1  0.77550348  0.42974105  0.12163339  1
  N  N58  1  0.55739062  0.53729223  0.87077583  1
  N  N59  1  0.44580017  0.42586178  0.61977111  1
  N  N60  1  0.22418218  0.87173216  0.37413441  1
  N  N61  1  0.11017827  0.76134944  0.12225092  1
  N  N62  1  0.88862138  0.87431070  0.87473855  1
  N  N63  1  0.77944782  0.76355895  0.62382111  1
  N  N64  1  0.55652119  0.87035259  0.37575058  1
  N  N65  1  0.45691574  0.77185943  0.11569444  1
  N  N66  1  0.22595950  0.86598480  0.87052929  1
  N  N67  1  0.10874329  0.76196935  0.62080562  1
  N  N68  1  0.87445652  0.89729925  0.36265297  1
  N  N69  1  0.75261507  0.77098875  0.11436535  1
  N  N70  1  0.55671245  0.87102476  0.89372375  1
  N  N71  1  0.44769439  0.76127858  0.62644253  1
