# generated using pymatgen
data_Al11BN12
_symmetry_space_group_name_H-M   'P 1'
_cell_length_a   9.25510693
_cell_length_b   9.25913687
_cell_length_c   10.16715291
_cell_angle_alpha   89.77627089
_cell_angle_beta   89.78391148
_cell_angle_gamma   60.15805053
_symmetry_Int_Tables_number   1
_chemical_formula_structural   Al11BN12
_chemical_formula_sum   'Al33 B3 N36'
_cell_volume   755.73079968
_cell_formula_units_Z   3
loop_
 _symmetry_equiv_pos_site_id
 _symmetry_equiv_pos_as_xyz
  1  'x, y, z'
loop_
 _atom_site_type_symbol
 _atom_site_label
 _atom_site_symmetry_multiplicity
 _atom_site_fract_x
 _atom_site_fract_y
 _atom_site_fract_z
 _atom_site_occupancy
  Al  Al0  1  0.09968729  0.09421447  0.39340920  1
  Al  Al1  1  0.21805425  0.20152950  0.13434833  1
  Al  Al2  1  0.77970447  0.09657004  0.81158609  1
  Al  Al3  1  0.45579533  0.08326409  0.31209767  1
  Al  Al4  1  0.55715568  0.19755285  0.06982274  1
  Al  Al5  1  0.11001201  0.09603278  0.88533422  1
  Al  Al6  1  0.21466838  0.21060199  0.63933308  1
  Al  Al7  1  0.88715395  0.20247463  0.14282451  1
  Al  Al8  1  0.45349870  0.09307723  0.82217903  1
  Al  Al9  1  0.56803858  0.20474747  0.56065402  1
  Al  Al10  1  0.10731549  0.42345611  0.38559491  1
  Al  Al11  1  0.22512964  0.54235428  0.06854334  1
  Al  Al12  1  0.77994522  0.42651875  0.88313222  1
  Al  Al13  1  0.89377745  0.53200592  0.63915158  1
  Al  Al14  1  0.44776886  0.41905560  0.31603147  1
  Al  Al15  1  0.56012376  0.54356880  0.13231744  1
  Al  Al16  1  0.10878704  0.42543573  0.88930598  1
  Al  Al17  1  0.22655201  0.54350030  0.56511853  1
  Al  Al18  1  0.77897550  0.41506820  0.39337408  1
  Al  Al19  1  0.88457160  0.53457888  0.13417470  1
  Al  Al20  1  0.44311548  0.42542442  0.81755599  1
  Al  Al21  1  0.56351089  0.53750159  0.63625680  1
  Al  Al22  1  0.10206290  0.76300643  0.31602407  1
  Al  Al23  1  0.22875529  0.87687710  0.13884021  1
  Al  Al24  1  0.77518750  0.77078132  0.82212332  1
  Al  Al25  1  0.88812609  0.88469959  0.56092209  1
  Al  Al26  1  0.43998325  0.75649924  0.39023009  1
  Al  Al27  1  0.10778483  0.75963157  0.81778455  1
  Al  Al28  1  0.22052224  0.88116912  0.63964036  1
  Al  Al29  1  0.76625469  0.77211679  0.31206890  1
  Al  Al30  1  0.88152551  0.87342971  0.06999327  1
  Al  Al31  1  0.44380392  0.76266393  0.89161736  1
  Al  Al32  1  0.55982345  0.87756551  0.56725600  1
  B  B33  1  0.89302814  0.20869350  0.64433504  1
  B  B34  1  0.77410848  0.09035014  0.30956789  1
  B  B35  1  0.55863521  0.87552282  0.06060666  1
  N  N36  1  0.21776574  0.20341046  0.32555026  1
  N  N37  1  0.10421397  0.09405362  0.07257436  1
  N  N38  1  0.89722136  0.21286408  0.80714001  1
  N  N39  1  0.79021748  0.10683132  0.62481241  1
  N  N40  1  0.58013444  0.19040446  0.36918477  1
  N  N41  1  0.45716288  0.06543280  0.11962347  1
  N  N42  1  0.22072354  0.20855441  0.82854310  1
  N  N43  1  0.08665405  0.10794455  0.58368079  1
  N  N44  1  0.87744542  0.19282122  0.32925738  1
  N  N45  1  0.76980389  0.08608091  0.14735685  1
  N  N46  1  0.56250888  0.20669673  0.88269467  1
  N  N47  1  0.45343377  0.09445140  0.63026487  1
  N  N48  1  0.22559068  0.54147483  0.37611086  1
  N  N49  1  0.10754232  0.42424090  0.07782420  1
  N  N50  1  0.89201378  0.53806566  0.82812247  1
  N  N51  1  0.79236147  0.40258641  0.58406521  1
  N  N52  1  0.56043426  0.53821990  0.33178237  1
  N  N53  1  0.44352810  0.42195172  0.12756079  1
  N  N54  1  0.22604988  0.54279852  0.87967156  1
  N  N55  1  0.10920839  0.42595603  0.57443398  1
  N  N56  1  0.88717020  0.53405529  0.32529517  1
  N  N57  1  0.77939405  0.41891871  0.07088062  1
  N  N58  1  0.55867886  0.54455285  0.82844884  1
  N  N59  1  0.44438435  0.42244962  0.62677691  1
  N  N60  1  0.22251358  0.87663391  0.32890119  1
  N  N61  1  0.10568639  0.76014168  0.12800171  1
  N  N62  1  0.88920170  0.87942189  0.88276351  1
  N  N63  1  0.77692002  0.77068883  0.63014977  1
  N  N64  1  0.55644451  0.87353846  0.38233171  1
  N  N65  1  0.45306359  0.77011827  0.08030676  1
  N  N66  1  0.22645153  0.87638239  0.82779809  1
  N  N67  1  0.10596771  0.76126028  0.62683973  1
  N  N68  1  0.87390227  0.89627899  0.36947725  1
  N  N69  1  0.74865487  0.77374403  0.11947760  1
  N  N70  1  0.56206759  0.87996223  0.89818195  1
  N  N71  1  0.44129602  0.75994394  0.57990266  1
