# generated using pymatgen
data_Al11BN12
_symmetry_space_group_name_H-M   'P 1'
_cell_length_a   9.27036529
_cell_length_b   9.27795082
_cell_length_c   9.96018334
_cell_angle_alpha   89.71084957
_cell_angle_beta   89.51883520
_cell_angle_gamma   59.94754607
_symmetry_Int_Tables_number   1
_chemical_formula_structural   Al11BN12
_chemical_formula_sum   'Al33 B3 N36'
_cell_volume   741.48362533
_cell_formula_units_Z   3
loop_
 _symmetry_equiv_pos_site_id
 _symmetry_equiv_pos_as_xyz
  1  'x, y, z'
loop_
 _atom_site_type_symbol
 _atom_site_label
 _atom_site_symmetry_multiplicity
 _atom_site_fract_x
 _atom_site_fract_y
 _atom_site_fract_z
 _atom_site_occupancy
  Al  Al0  1  0.09923336  0.09455982  0.40539656  1
  Al  Al1  1  0.22513547  0.20010862  0.15098913  1
  Al  Al2  1  0.78194286  0.09585031  0.86946343  1
  Al  Al3  1  0.45072126  0.08906617  0.38938955  1
  Al  Al4  1  0.56077886  0.19889259  0.08814823  1
  Al  Al5  1  0.10960342  0.09643338  0.89661124  1
  Al  Al6  1  0.21866732  0.20588690  0.64841898  1
  Al  Al7  1  0.88703323  0.20313411  0.14563272  1
  Al  Al8  1  0.44257247  0.08652082  0.89937749  1
  Al  Al9  1  0.57012918  0.20099025  0.60769116  1
  Al  Al10  1  0.10995619  0.42728586  0.40094044  1
  Al  Al11  1  0.22179491  0.53918926  0.15124576  1
  Al  Al12  1  0.77968324  0.42739068  0.89594490  1
  Al  Al13  1  0.88874352  0.53616250  0.64912672  1
  Al  Al14  1  0.44937565  0.42651911  0.39578233  1
  Al  Al15  1  0.55919566  0.54292251  0.15034897  1
  Al  Al16  1  0.11125141  0.42822811  0.89895397  1
  Al  Al17  1  0.22216700  0.53928535  0.64852500  1
  Al  Al18  1  0.77791346  0.41638935  0.40518415  1
  Al  Al19  1  0.88409136  0.54119850  0.15056392  1
  Al  Al20  1  0.44017703  0.43503432  0.89749767  1
  Al  Al21  1  0.55961233  0.53495848  0.64946464  1
  Al  Al22  1  0.10574468  0.76849849  0.39855395  1
  Al  Al23  1  0.22549887  0.87528019  0.15007601  1
  Al  Al24  1  0.77314583  0.76345897  0.90417104  1
  Al  Al25  1  0.89085894  0.87514474  0.65064193  1
  Al  Al26  1  0.44533781  0.76293357  0.39435864  1
  Al  Al27  1  0.11033292  0.76139576  0.90175085  1
  Al  Al28  1  0.21806018  0.87568317  0.64993212  1
  Al  Al29  1  0.77278340  0.76794423  0.39215928  1
  Al  Al30  1  0.88091067  0.87990670  0.14442077  1
  Al  Al31  1  0.44683959  0.76357409  0.90325066  1
  Al  Al32  1  0.55650917  0.87183721  0.64729878  1
  B  B33  1  0.89001924  0.20480220  0.66048397  1
  B  B34  1  0.77535778  0.09571855  0.35956703  1
  B  B35  1  0.55532110  0.87188519  0.15312049  1
  N  N36  1  0.21932446  0.20373614  0.34219966  1
  N  N37  1  0.10989976  0.09615428  0.08827733  1
  N  N38  1  0.89508490  0.21213378  0.82344455  1
  N  N39  1  0.79469172  0.10651880  0.63408960  1
  N  N40  1  0.58875737  0.18909191  0.36840687  1
  N  N41  1  0.45576821  0.06677691  0.09787767  1
  N  N42  1  0.22341030  0.20530699  0.83948481  1
  N  N43  1  0.08681668  0.10668974  0.59785034  1
  N  N44  1  0.87296831  0.18983089  0.33952992  1
  N  N45  1  0.78803765  0.09192763  0.07361677  1
  N  N46  1  0.54885131  0.20747175  0.87252396  1
  N  N47  1  0.44468631  0.09226753  0.58390727  1
  N  N48  1  0.22104176  0.53982437  0.34121987  1
  N  N49  1  0.11197344  0.42698333  0.09086793  1
  N  N50  1  0.88798973  0.54246008  0.84094966  1
  N  N51  1  0.79064361  0.40301895  0.59762868  1
  N  N52  1  0.55865212  0.53887295  0.34035797  1
  N  N53  1  0.44368437  0.43392939  0.09245968  1
  N  N54  1  0.22081611  0.54115142  0.83907432  1
  N  N55  1  0.11141694  0.42810635  0.59054411  1
  N  N56  1  0.88672433  0.53665520  0.34210227  1
  N  N57  1  0.78004449  0.42552077  0.08783302  1
  N  N58  1  0.55527564  0.54193868  0.84049613  1
  N  N59  1  0.44394770  0.43028644  0.58813358  1
  N  N60  1  0.22107532  0.87493209  0.34069748  1
  N  N61  1  0.11083690  0.76210694  0.09354286  1
  N  N62  1  0.89150518  0.86412958  0.84199050  1
  N  N63  1  0.77800879  0.76315248  0.58377162  1
  N  N64  1  0.55534041  0.87134363  0.31735980  1
  N  N65  1  0.45749503  0.77343337  0.09728492  1
  N  N66  1  0.22390327  0.87140300  0.84208043  1
  N  N67  1  0.11134403  0.76151352  0.58795894  1
  N  N68  1  0.87309998  0.90266842  0.34042707  1
  N  N69  1  0.75367383  0.77351746  0.09911268  1
  N  N70  1  0.55671571  0.87047077  0.83538844  1
  N  N71  1  0.44534634  0.76174897  0.58623474  1
