# generated using pymatgen
data_Al11BN12
_symmetry_space_group_name_H-M   'P 1'
_cell_length_a   9.27613279
_cell_length_b   9.27613201
_cell_length_c   10.13448199
_cell_angle_alpha   89.82181173
_cell_angle_beta   89.82203041
_cell_angle_gamma   60.16411715
_symmetry_Int_Tables_number   1
_chemical_formula_structural   Al11BN12
_chemical_formula_sum   'Al33 B3 N36'
_cell_volume   756.44804686
_cell_formula_units_Z   3
loop_
 _symmetry_equiv_pos_site_id
 _symmetry_equiv_pos_as_xyz
  1  'x, y, z'
loop_
 _atom_site_type_symbol
 _atom_site_label
 _atom_site_symmetry_multiplicity
 _atom_site_fract_x
 _atom_site_fract_y
 _atom_site_fract_z
 _atom_site_occupancy
  Al  Al0  1  0.09929917  0.09583648  0.39536629  1
  Al  Al1  1  0.21829335  0.20023984  0.13610621  1
  Al  Al2  1  0.77998573  0.09652899  0.81339988  1
  Al  Al3  1  0.45537210  0.08303655  0.31426887  1
  Al  Al4  1  0.55754068  0.19751808  0.07156808  1
  Al  Al5  1  0.11014289  0.09677385  0.88689243  1
  Al  Al6  1  0.21504227  0.20972900  0.64203975  1
  Al  Al7  1  0.88638431  0.20292773  0.14475575  1
  Al  Al8  1  0.45319560  0.09216940  0.82503797  1
  Al  Al9  1  0.56932671  0.20358305  0.56252419  1
  Al  Al10  1  0.10865481  0.42519815  0.38830709  1
  Al  Al11  1  0.21959486  0.53613732  0.12856115  1
  Al  Al12  1  0.78023172  0.42668590  0.88689265  1
  Al  Al13  1  0.89318654  0.53158489  0.64204012  1
  Al  Al14  1  0.45251636  0.41568601  0.32160516  1
  Al  Al15  1  0.56087781  0.54481967  0.14005088  1
  Al  Al16  1  0.11176040  0.42830296  0.89174513  1
  Al  Al17  1  0.22213202  0.53867662  0.61708278  1
  Al  Al18  1  0.77929367  0.41584254  0.39536626  1
  Al  Al19  1  0.88369704  0.53483668  0.13610630  1
  Al  Al20  1  0.44780729  0.42274907  0.82181181  1
  Al  Al21  1  0.56508126  0.53829037  0.64031442  1
  Al  Al22  1  0.09914134  0.76906089  0.32160468  1
  Al  Al23  1  0.22827552  0.87742113  0.14005056  1
  Al  Al24  1  0.77562423  0.76974042  0.82503741  1
  Al  Al25  1  0.88703851  0.88587110  0.56252410  1
  Al  Al26  1  0.44016816  0.75671110  0.39210927  1
  Al  Al27  1  0.10620536  0.76434917  0.82181221  1
  Al  Al28  1  0.22174665  0.88162412  0.64031461  1
  Al  Al29  1  0.76649178  0.77191641  0.31426874  1
  Al  Al30  1  0.88097302  0.87408510  0.07156813  1
  Al  Al31  1  0.44445977  0.76100336  0.89550351  1
  Al  Al32  1  0.56044524  0.87698993  0.56942752  1
  B  B33  1  0.89267968  0.20922360  0.64658806  1
  B  B34  1  0.77371797  0.09026219  0.31122681  1
  B  B35  1  0.55860222  0.87514623  0.06286295  1
  N  N36  1  0.21747446  0.20375445  0.32803623  1
  N  N37  1  0.10338944  0.09491232  0.07462427  1
  N  N38  1  0.89674471  0.21328809  0.80979153  1
  N  N39  1  0.79058925  0.10713323  0.62662564  1
  N  N40  1  0.58133643  0.18844208  0.37134550  1
  N  N41  1  0.45705870  0.06564359  0.12139245  1
  N  N42  1  0.22066756  0.20879542  0.83184030  1
  N  N43  1  0.08666216  0.10915646  0.58609392  1
  N  N44  1  0.87687437  0.19341806  0.33163447  1
  N  N45  1  0.76971110  0.08625508  0.14907439  1
  N  N46  1  0.56366548  0.20466017  0.88439501  1
  N  N47  1  0.45350369  0.09421751  0.63230640  1
  N  N48  1  0.22094848  0.53749250  0.34320961  1
  N  N49  1  0.10827942  0.42482235  0.07952216  1
  N  N50  1  0.89225226  0.53721169  0.83184055  1
  N  N51  1  0.79261335  0.40320548  0.58609391  1
  N  N52  1  0.56124966  0.53923613  0.33157898  1
  N  N53  1  0.44860065  0.42002169  0.12776583  1
  N  N54  1  0.22179991  0.53834170  0.84107331  1
  N  N55  1  0.10984540  0.42638858  0.57593179  1
  N  N56  1  0.88721090  0.53401834  0.32803616  1
  N  N57  1  0.77836883  0.41993334  0.07462446  1
  N  N58  1  0.55993570  0.54435518  0.83005844  1
  N  N59  1  0.45099750  0.42073277  0.62397318  1
  N  N60  1  0.22269253  0.87779292  0.33157875  1
  N  N61  1  0.10347773  0.76514351  0.12776544  1
  N  N62  1  0.88811651  0.88020855  0.88439492  1
  N  N63  1  0.77767359  0.77004699  0.63230603  1
  N  N64  1  0.55669553  0.87323977  0.38390461  1
  N  N65  1  0.45357762  0.77012175  0.08413316  1
  N  N66  1  0.22781133  0.87647819  0.83005855  1
  N  N67  1  0.10418828  0.76754139  0.62397345  1
  N  N68  1  0.87189787  0.89788057  0.37134537  1
  N  N69  1  0.74909933  0.77360258  0.12139258  1
  N  N70  1  0.56217613  0.87872059  0.90044649  1
  N  N71  1  0.44267364  0.75921765  0.58160287  1
