# generated using pymatgen
data_Al11BN12
_symmetry_space_group_name_H-M   'P 1'
_cell_length_a   9.29153926
_cell_length_b   9.29639786
_cell_length_c   10.12616563
_cell_angle_alpha   89.74812489
_cell_angle_beta   89.87866843
_cell_angle_gamma   60.09767335
_symmetry_Int_Tables_number   1
_chemical_formula_structural   Al11BN12
_chemical_formula_sum   'Al33 B3 N36'
_cell_volume   758.22906763
_cell_formula_units_Z   3
loop_
 _symmetry_equiv_pos_site_id
 _symmetry_equiv_pos_as_xyz
  1  'x, y, z'
loop_
 _atom_site_type_symbol
 _atom_site_label
 _atom_site_symmetry_multiplicity
 _atom_site_fract_x
 _atom_site_fract_y
 _atom_site_fract_z
 _atom_site_occupancy
  Al  Al0  1  0.09819858  0.09428307  0.39516579  1
  Al  Al1  1  0.22775307  0.19443211  0.14299529  1
  Al  Al2  1  0.78061289  0.09521274  0.81417385  1
  Al  Al3  1  0.44460826  0.09404839  0.38556336  1
  Al  Al4  1  0.55736565  0.19281158  0.07254464  1
  Al  Al5  1  0.11148667  0.09780380  0.88761829  1
  Al  Al6  1  0.21125562  0.21214682  0.63643069  1
  Al  Al7  1  0.88785787  0.20313042  0.14371218  1
  Al  Al8  1  0.44980200  0.09494149  0.82370695  1
  Al  Al9  1  0.57397495  0.21174040  0.56360286  1
  Al  Al10  1  0.10807870  0.42925984  0.38915679  1
  Al  Al11  1  0.21901577  0.53457327  0.13371338  1
  Al  Al12  1  0.78155149  0.42692500  0.88688472  1
  Al  Al13  1  0.89472938  0.52935519  0.63734753  1
  Al  Al14  1  0.45412294  0.41616695  0.31749333  1
  Al  Al15  1  0.56241099  0.54432511  0.13578784  1
  Al  Al16  1  0.11106667  0.42695102  0.89204356  1
  Al  Al17  1  0.21986842  0.53762541  0.63556325  1
  Al  Al18  1  0.77786174  0.41675064  0.39451844  1
  Al  Al19  1  0.88467199  0.53401446  0.13929837  1
  Al  Al20  1  0.44883720  0.42256638  0.82765627  1
  Al  Al21  1  0.56380112  0.53766452  0.64413770  1
  Al  Al22  1  0.10024052  0.77006615  0.31807296  1
  Al  Al23  1  0.22870470  0.87829760  0.13600483  1
  Al  Al24  1  0.77991208  0.76755490  0.81126566  1
  Al  Al25  1  0.89130235  0.88427859  0.55962361  1
  Al  Al26  1  0.44085471  0.75673351  0.39561213  1
  Al  Al27  1  0.10413165  0.76609906  0.82713004  1
  Al  Al28  1  0.22042626  0.88016308  0.64368948  1
  Al  Al29  1  0.76466938  0.77400745  0.32439061  1
  Al  Al30  1  0.87758021  0.87472683  0.07259291  1
  Al  Al31  1  0.44954564  0.76659939  0.88722222  1
  Al  Al32  1  0.55973923  0.86910824  0.59807817  1
  B  B33  1  0.89332214  0.20760109  0.64725479  1
  B  B34  1  0.77434655  0.09153922  0.31003116  1
  B  B35  1  0.55269264  0.87561253  0.10483276  1
  N  N36  1  0.21791915  0.20435411  0.33399957  1
  N  N37  1  0.10554072  0.09734828  0.07589808  1
  N  N38  1  0.89695599  0.21247722  0.81116214  1
  N  N39  1  0.79288554  0.10502855  0.62754986  1
  N  N40  1  0.58471137  0.19274927  0.37311883  1
  N  N41  1  0.45789227  0.05903397  0.10535642  1
  N  N42  1  0.22046686  0.20957222  0.82534708  1
  N  N43  1  0.08543745  0.10786905  0.58621714  1
  N  N44  1  0.87713800  0.19447693  0.33053653  1
  N  N45  1  0.77007056  0.08720382  0.14802131  1
  N  N46  1  0.56332333  0.20161429  0.88255808  1
  N  N47  1  0.44245384  0.10685737  0.59724124  1
  N  N48  1  0.22058642  0.53651774  0.33201653  1
  N  N49  1  0.11050203  0.42171972  0.08018013  1
  N  N50  1  0.89287003  0.53627170  0.82908361  1
  N  N51  1  0.79124228  0.40223482  0.58604946  1
  N  N52  1  0.56043798  0.54129949  0.32767287  1
  N  N53  1  0.44952244  0.41945282  0.12232729  1
  N  N54  1  0.21969216  0.53698339  0.83596393  1
  N  N55  1  0.11078696  0.42883105  0.57508893  1
  N  N56  1  0.88721638  0.53464655  0.32963945  1
  N  N57  1  0.78069201  0.42023474  0.07462577  1
  N  N58  1  0.55968121  0.54316684  0.83527229  1
  N  N59  1  0.44994365  0.42227940  0.62931786  1
  N  N60  1  0.22442209  0.87737833  0.32819932  1
  N  N61  1  0.10397997  0.76519353  0.12265044  1
  N  N62  1  0.88364531  0.87885647  0.88517451  1
  N  N63  1  0.79132551  0.76215571  0.61924877  1
  N  N64  1  0.55738951  0.86964711  0.39258796  1
  N  N65  1  0.46021311  0.77522692  0.08120016  1
  N  N66  1  0.22561041  0.87636822  0.83513597  1
  N  N67  1  0.10451625  0.76722611  0.62736454  1
  N  N68  1  0.87394450  0.89985286  0.36898629  1
  N  N69  1  0.74355842  0.77582314  0.12667003  1
  N  N70  1  0.55356577  0.87196359  0.81471305  1
  N  N71  1  0.43833419  0.75501429  0.58282743  1
