# generated using pymatgen
data_Al11BN12
_symmetry_space_group_name_H-M   'P 1'
_cell_length_a   9.25680491
_cell_length_b   9.25680448
_cell_length_c   9.88996809
_cell_angle_alpha   90.08194253
_cell_angle_beta   90.08193624
_cell_angle_gamma   60.01883785
_symmetry_Int_Tables_number   1
_chemical_formula_structural   Al11BN12
_chemical_formula_sum   'Al33 B3 N36'
_cell_volume   734.05658454
_cell_formula_units_Z   3
loop_
 _symmetry_equiv_pos_site_id
 _symmetry_equiv_pos_as_xyz
  1  'x, y, z'
loop_
 _atom_site_type_symbol
 _atom_site_label
 _atom_site_symmetry_multiplicity
 _atom_site_fract_x
 _atom_site_fract_y
 _atom_site_fract_z
 _atom_site_occupancy
  Al  Al0  1  0.10193297  0.09580565  0.41026095  1
  Al  Al1  1  0.22473555  0.20016382  0.15585566  1
  Al  Al2  1  0.77847041  0.09510550  0.89739701  1
  Al  Al3  1  0.45088667  0.09097212  0.39966234  1
  Al  Al4  1  0.56405916  0.19773354  0.16028415  1
  Al  Al5  1  0.10699797  0.09621939  0.89906055  1
  Al  Al6  1  0.21933019  0.20603977  0.65540325  1
  Al  Al7  1  0.88630793  0.20294239  0.15789012  1
  Al  Al8  1  0.44799480  0.09034223  0.90969300  1
  Al  Al9  1  0.56145434  0.20472454  0.64850280  1
  Al  Al10  1  0.11097080  0.42760454  0.40626881  1
  Al  Al11  1  0.22228067  0.53891597  0.15662672  1
  Al  Al12  1  0.77958412  0.42363348  0.89906041  1
  Al  Al13  1  0.88940313  0.53596661  0.65540331  1
  Al  Al14  1  0.45010973  0.42461415  0.40576605  1
  Al  Al15  1  0.55911116  0.54152073  0.15553116  1
  Al  Al16  1  0.11121102  0.42784561  0.90628712  1
  Al  Al17  1  0.22269960  0.53933549  0.65614925  1
  Al  Al18  1  0.77917102  0.41856738  0.41026115  1
  Al  Al19  1  0.88352992  0.54136894  0.15585563  1
  Al  Al20  1  0.44549134  0.42595806  0.90588687  1
  Al  Al21  1  0.55869428  0.53558005  0.65601789  1
  Al  Al22  1  0.10797865  0.76674439  0.40576600  1
  Al  Al23  1  0.22488575  0.87574631  0.15553118  1
  Al  Al24  1  0.77370686  0.76462987  0.90969322  1
  Al  Al25  1  0.88808857  0.87808985  0.64850252  1
  Al  Al26  1  0.44633191  0.76296781  0.39983129  1
  Al  Al27  1  0.10932217  0.76212729  0.90588687  1
  Al  Al28  1  0.21894274  0.87533157  0.65601775  1
  Al  Al29  1  0.77433761  0.76752030  0.39966206  1
  Al  Al30  1  0.88109797  0.88069397  0.16028424  1
  Al  Al31  1  0.44731254  0.76394854  0.91003961  1
  Al  Al32  1  0.55591877  0.87255457  0.65506847  1
  B  B33  1  0.88930494  0.20594114  0.65311590  1
  B  B34  1  0.78245382  0.09908902  0.41121445  1
  B  B35  1  0.55613401  0.87276863  0.16066182  1
  N  N36  1  0.22078241  0.20381198  0.34811345  1
  N  N37  1  0.10659665  0.09689495  0.09280911  1
  N  N38  1  0.88734480  0.20398034  0.82033854  1
  N  N39  1  0.78994971  0.10658540  0.58323854  1
  N  N40  1  0.58317515  0.19306717  0.35557196  1
  N  N41  1  0.45785021  0.07119261  0.10625277  1
  N  N42  1  0.22452213  0.20443402  0.84807970  1
  N  N43  1  0.08649926  0.10718879  0.60353866  1
  N  N44  1  0.87630567  0.19294029  0.35034437  1
  N  N45  1  0.77872281  0.09535759  0.08785164  1
  N  N46  1  0.55512122  0.20422806  0.84247973  1
  N  N47  1  0.44463073  0.09307977  0.59175378  1
  N  N48  1  0.22272483  0.53935955  0.34770890  1
  N  N49  1  0.11069585  0.42732999  0.09806228  1
  N  N50  1  0.88779902  0.54115733  0.84807986  1
  N  N51  1  0.79055211  0.40313559  0.60353894  1
  N  N52  1  0.55846251  0.53827270  0.34704570  1
  N  N53  1  0.44661791  0.42502742  0.09938108  1
  N  N54  1  0.22248413  0.53911996  0.84802422  1
  N  N55  1  0.11145280  0.42808913  0.59733571  1
  N  N56  1  0.88717806  0.53741607  0.34811343  1
  N  N57  1  0.78025990  0.42323125  0.09280908  1
  N  N58  1  0.55411335  0.54103894  0.84836608  1
  N  N59  1  0.44437790  0.42865896  0.59628678  1
  N  N60  1  0.22163717  0.87509740  0.34704555  1
  N  N61  1  0.10839196  0.76325330  0.09938112  1
  N  N62  1  0.88759233  0.87175655  0.84247954  1
  N  N63  1  0.77644369  0.76126643  0.59175349  1
  N  N64  1  0.55588361  0.87251832  0.32494826  1
  N  N65  1  0.45726674  0.77390187  0.10441311  1
  N  N66  1  0.22440300  0.87074908  0.84836587  1
  N  N67  1  0.11202294  0.76101382  0.59628675  1
  N  N68  1  0.87643175  0.89980990  0.35557199  1
  N  N69  1  0.75455791  0.77448430  0.10625297  1
  N  N70  1  0.55593947  0.87257478  0.84412960  1
  N  N71  1  0.44519124  0.76182823  0.59307971  1
