# generated using pymatgen
data_Al11BN12
_symmetry_space_group_name_H-M   'P 1'
_cell_length_a   9.29122049
_cell_length_b   9.29211722
_cell_length_c   10.07741919
_cell_angle_alpha   89.54613103
_cell_angle_beta   89.68159496
_cell_angle_gamma   60.09686939
_symmetry_Int_Tables_number   1
_chemical_formula_structural   Al11BN12
_chemical_formula_sum   'Al33 B3 N36'
_cell_volume   754.18193405
_cell_formula_units_Z   3
loop_
 _symmetry_equiv_pos_site_id
 _symmetry_equiv_pos_as_xyz
  1  'x, y, z'
loop_
 _atom_site_type_symbol
 _atom_site_label
 _atom_site_symmetry_multiplicity
 _atom_site_fract_x
 _atom_site_fract_y
 _atom_site_fract_z
 _atom_site_occupancy
  Al  Al0  1  0.09762280  0.09631557  0.39557918  1
  Al  Al1  1  0.22377590  0.19868371  0.14094883  1
  Al  Al2  1  0.77749843  0.09558091  0.81346102  1
  Al  Al3  1  0.44413201  0.09104181  0.37920155  1
  Al  Al4  1  0.56071316  0.20102410  0.07821540  1
  Al  Al5  1  0.11089187  0.09606000  0.88516295  1
  Al  Al6  1  0.22217196  0.20574129  0.63891682  1
  Al  Al7  1  0.88901315  0.20426231  0.14348105  1
  Al  Al8  1  0.44586515  0.08545139  0.89464708  1
  Al  Al9  1  0.57280100  0.20656064  0.55974466  1
  Al  Al10  1  0.10826690  0.42679356  0.39031502  1
  Al  Al11  1  0.21843429  0.53581418  0.13548983  1
  Al  Al12  1  0.77998465  0.42542732  0.88559185  1
  Al  Al13  1  0.89238851  0.53291119  0.63683460  1
  Al  Al14  1  0.45273978  0.41823950  0.32127201  1
  Al  Al15  1  0.56177920  0.54562329  0.13872037  1
  Al  Al16  1  0.11347854  0.42530997  0.89010950  1
  Al  Al17  1  0.22017245  0.53650214  0.63180084  1
  Al  Al18  1  0.77872363  0.41566491  0.39542429  1
  Al  Al19  1  0.88480612  0.53583532  0.13729669  1
  Al  Al20  1  0.44982334  0.41944108  0.82336621  1
  Al  Al21  1  0.56379033  0.53901162  0.63788114  1
  Al  Al22  1  0.10000827  0.77013844  0.32133882  1
  Al  Al23  1  0.22756963  0.87820958  0.13808801  1
  Al  Al24  1  0.77924166  0.76315790  0.84205737  1
  Al  Al25  1  0.88816516  0.88428674  0.56026653  1
  Al  Al26  1  0.44326615  0.76231965  0.38608631  1
  Al  Al27  1  0.10589501  0.76530444  0.82291997  1
  Al  Al28  1  0.22220968  0.88028739  0.63755381  1
  Al  Al29  1  0.77188018  0.76977267  0.32732385  1
  Al  Al30  1  0.88100627  0.87497861  0.07412755  1
  Al  Al31  1  0.44819597  0.76277816  0.89380981  1
  Al  Al32  1  0.55490146  0.87681366  0.63444825  1
  B  B33  1  0.89347889  0.20845756  0.64704303  1
  B  B34  1  0.77449266  0.09260576  0.30932614  1
  B  B35  1  0.55035699  0.87488082  0.14463494  1
  N  N36  1  0.21615151  0.20529999  0.32964506  1
  N  N37  1  0.10574576  0.09681483  0.07445286  1
  N  N38  1  0.89637405  0.21148250  0.81052566  1
  N  N39  1  0.79079461  0.10487459  0.62659043  1
  N  N40  1  0.58508795  0.19180233  0.36813982  1
  N  N41  1  0.45287657  0.06694021  0.08794939  1
  N  N42  1  0.22813144  0.20422603  0.82894647  1
  N  N43  1  0.08631532  0.10931913  0.58711553  1
  N  N44  1  0.87737743  0.19501201  0.33090253  1
  N  N45  1  0.77273617  0.08735241  0.14835075  1
  N  N46  1  0.56410595  0.20297894  0.88713311  1
  N  N47  1  0.44340703  0.09494894  0.57047898  1
  N  N48  1  0.21919004  0.53666160  0.33512042  1
  N  N49  1  0.11028226  0.42403080  0.07864715  1
  N  N50  1  0.89343492  0.53508223  0.82916837  1
  N  N51  1  0.79243632  0.40162887  0.58653728  1
  N  N52  1  0.56096308  0.54119755  0.33152826  1
  N  N53  1  0.44806791  0.42419246  0.12574406  1
  N  N54  1  0.22057093  0.53638953  0.83251341  1
  N  N55  1  0.11174628  0.42535409  0.57750004  1
  N  N56  1  0.88725709  0.53341813  0.32987381  1
  N  N57  1  0.77959156  0.42139720  0.07424233  1
  N  N58  1  0.55862549  0.54387481  0.83064934  1
  N  N59  1  0.45080494  0.42053381  0.62392702  1
  N  N60  1  0.22168992  0.87871804  0.33132452  1
  N  N61  1  0.10499576  0.76541388  0.12479571  1
  N  N62  1  0.88739531  0.87926557  0.88471059  1
  N  N63  1  0.78151909  0.76271686  0.60427230  1
  N  N64  1  0.54273462  0.87787039  0.30754122  1
  N  N65  1  0.45675410  0.77381006  0.08536132  1
  N  N66  1  0.22839871  0.87450434  0.83089496  1
  N  N67  1  0.10538675  0.76672943  0.62286769  1
  N  N68  1  0.87262323  0.90127080  0.36913242  1
  N  N69  1  0.75299698  0.77159275  0.11621696  1
  N  N70  1  0.55263331  0.87500168  0.82391594  1
  N  N71  1  0.44613018  0.76305186  0.57471704  1
