# generated using pymatgen
data_Al11BN12
_symmetry_space_group_name_H-M   'P 1'
_cell_length_a   9.29137054
_cell_length_b   9.29219752
_cell_length_c   10.07132495
_cell_angle_alpha   89.54296620
_cell_angle_beta   89.66864899
_cell_angle_gamma   60.08885326
_symmetry_Int_Tables_number   1
_chemical_formula_structural   Al11BN12
_chemical_formula_sum   'Al33 B3 N36'
_cell_volume   753.68321218
_cell_formula_units_Z   3
loop_
 _symmetry_equiv_pos_site_id
 _symmetry_equiv_pos_as_xyz
  1  'x, y, z'
loop_
 _atom_site_type_symbol
 _atom_site_label
 _atom_site_symmetry_multiplicity
 _atom_site_fract_x
 _atom_site_fract_y
 _atom_site_fract_z
 _atom_site_occupancy
  Al  Al0  1  0.09763565  0.09631707  0.39555671  1
  Al  Al1  1  0.22370562  0.19876445  0.14081511  1
  Al  Al2  1  0.77750681  0.09536005  0.81339035  1
  Al  Al3  1  0.44444695  0.09075028  0.37896485  1
  Al  Al4  1  0.56061072  0.20105199  0.07815712  1
  Al  Al5  1  0.11080773  0.09603780  0.88512334  1
  Al  Al6  1  0.22210584  0.20573185  0.63873654  1
  Al  Al7  1  0.88898775  0.20450319  0.14341572  1
  Al  Al8  1  0.44570037  0.08567626  0.89431564  1
  Al  Al9  1  0.57269994  0.20648431  0.55975804  1
  Al  Al10  1  0.10840503  0.42663541  0.39031756  1
  Al  Al11  1  0.21844329  0.53576895  0.13540692  1
  Al  Al12  1  0.77997725  0.42535115  0.88538757  1
  Al  Al13  1  0.89145348  0.53472091  0.63659533  1
  Al  Al14  1  0.45276434  0.41822456  0.32132730  1
  Al  Al15  1  0.56177259  0.54560970  0.13858093  1
  Al  Al16  1  0.11344341  0.42537199  0.88989024  1
  Al  Al17  1  0.22013735  0.53644545  0.63169967  1
  Al  Al18  1  0.77875171  0.41556932  0.39545611  1
  Al  Al19  1  0.88441990  0.53651229  0.13762994  1
  Al  Al20  1  0.44982032  0.41945603  0.82332329  1
  Al  Al21  1  0.56377967  0.53905761  0.63771755  1
  Al  Al22  1  0.10028445  0.77013532  0.32124565  1
  Al  Al23  1  0.22768517  0.87825321  0.13800821  1
  Al  Al24  1  0.77720349  0.76221915  0.85738131  1
  Al  Al25  1  0.88823582  0.88449941  0.55997842  1
  Al  Al26  1  0.44349972  0.76235941  0.38596964  1
  Al  Al27  1  0.10563790  0.76527378  0.82275267  1
  Al  Al28  1  0.22221615  0.88026849  0.63744240  1
  Al  Al29  1  0.77192450  0.76866062  0.33759538  1
  Al  Al30  1  0.88154000  0.87557712  0.07513543  1
  Al  Al31  1  0.44783862  0.76277313  0.89352306  1
  Al  Al32  1  0.55650425  0.87595928  0.63415783  1
  B  B33  1  0.89348675  0.20862046  0.64698801  1
  B  B34  1  0.77469335  0.09260178  0.30918578  1
  B  B35  1  0.55104968  0.87444899  0.14396154  1
  N  N36  1  0.21636852  0.20512549  0.32961302  1
  N  N37  1  0.10572884  0.09684069  0.07442921  1
  N  N38  1  0.89633990  0.21150523  0.81050019  1
  N  N39  1  0.79072233  0.10484218  0.62653807  1
  N  N40  1  0.58513520  0.19175233  0.36809696  1
  N  N41  1  0.45275781  0.06700434  0.08771356  1
  N  N42  1  0.22798578  0.20424348  0.82886449  1
  N  N43  1  0.08626346  0.10930378  0.58709110  1
  N  N44  1  0.87745833  0.19515526  0.33086261  1
  N  N45  1  0.77255389  0.08780396  0.14830756  1
  N  N46  1  0.56406472  0.20296631  0.88700760  1
  N  N47  1  0.44343227  0.09475897  0.57052906  1
  N  N48  1  0.21916574  0.53666760  0.33516638  1
  N  N49  1  0.11005669  0.42421906  0.07852074  1
  N  N50  1  0.89277640  0.53641942  0.82871692  1
  N  N51  1  0.79254752  0.40169329  0.58662706  1
  N  N52  1  0.56101094  0.54118627  0.33150785  1
  N  N53  1  0.44805248  0.42419950  0.12570252  1
  N  N54  1  0.22060794  0.53637155  0.83252698  1
  N  N55  1  0.11148567  0.42546535  0.57761691  1
  N  N56  1  0.88743083  0.53319455  0.32917087  1
  N  N57  1  0.77966075  0.42150548  0.07412381  1
  N  N58  1  0.55860995  0.54387011  0.83061284  1
  N  N59  1  0.45078426  0.42056167  0.62384615  1
  N  N60  1  0.22198109  0.87873899  0.33129300  1
  N  N61  1  0.10538210  0.76532005  0.12481203  1
  N  N62  1  0.88767330  0.87950024  0.88491772  1
  N  N63  1  0.78023093  0.76171948  0.59288091  1
  N  N64  1  0.54439677  0.87705904  0.30650326  1
  N  N65  1  0.45658397  0.77378976  0.08512250  1
  N  N66  1  0.22827708  0.87452405  0.83081425  1
  N  N67  1  0.10518513  0.76672750  0.62288893  1
  N  N68  1  0.87322315  0.90197659  0.36834587  1
  N  N69  1  0.75214063  0.77125953  0.10949585  1
  N  N70  1  0.55360741  0.87454170  0.82348343  1
  N  N71  1  0.44601632  0.76318225  0.57477666  1
