# generated using pymatgen
data_Al11BN12
_symmetry_space_group_name_H-M   'P 1'
_cell_length_a   9.29851579
_cell_length_b   9.27862410
_cell_length_c   10.08505308
_cell_angle_alpha   89.69825974
_cell_angle_beta   89.59384541
_cell_angle_gamma   60.00037943
_symmetry_Int_Tables_number   1
_chemical_formula_structural   Al11BN12
_chemical_formula_sum   'Al33 B3 N36'
_cell_volume   753.52197759
_cell_formula_units_Z   3
loop_
 _symmetry_equiv_pos_site_id
 _symmetry_equiv_pos_as_xyz
  1  'x, y, z'
loop_
 _atom_site_type_symbol
 _atom_site_label
 _atom_site_symmetry_multiplicity
 _atom_site_fract_x
 _atom_site_fract_y
 _atom_site_fract_z
 _atom_site_occupancy
  Al  Al0  1  0.10262997  0.09135670  0.39380773  1
  Al  Al1  1  0.21828588  0.20165648  0.13656713  1
  Al  Al2  1  0.77829960  0.09594903  0.81277547  1
  Al  Al3  1  0.45688267  0.08548449  0.31532873  1
  Al  Al4  1  0.55680041  0.19883744  0.07229317  1
  Al  Al5  1  0.10883653  0.09578038  0.88707828  1
  Al  Al6  1  0.21616989  0.20861141  0.64014960  1
  Al  Al7  1  0.88597281  0.20470983  0.14438371  1
  Al  Al8  1  0.45305691  0.09110669  0.82619346  1
  Al  Al9  1  0.56819057  0.20396879  0.56292144  1
  Al  Al10  1  0.10910547  0.42318314  0.38695394  1
  Al  Al11  1  0.22503476  0.54170266  0.06942795  1
  Al  Al12  1  0.78226661  0.42281315  0.88070768  1
  Al  Al13  1  0.89094756  0.53384415  0.63373626  1
  Al  Al14  1  0.45179370  0.42410601  0.31815125  1
  Al  Al15  1  0.54970696  0.54542711  0.06591738  1
  Al  Al16  1  0.11051563  0.42389352  0.88748922  1
  Al  Al17  1  0.22640796  0.54277186  0.56718973  1
  Al  Al18  1  0.78630705  0.41168050  0.39334073  1
  Al  Al19  1  0.88177460  0.53894952  0.12075374  1
  Al  Al20  1  0.44497716  0.42694688  0.81702953  1
  Al  Al21  1  0.55422380  0.53947502  0.57464111  1
  Al  Al22  1  0.10424813  0.76247595  0.31780581  1
  Al  Al23  1  0.22296562  0.87867342  0.13283991  1
  Al  Al24  1  0.77274021  0.77057888  0.82468474  1
  Al  Al25  1  0.88763570  0.88491523  0.56183201  1
  Al  Al26  1  0.45582191  0.75811049  0.31774753  1
  Al  Al27  1  0.10537636  0.75904336  0.81974871  1
  Al  Al28  1  0.21590484  0.88335068  0.63965109  1
  Al  Al29  1  0.77105757  0.76949713  0.31471308  1
  Al  Al30  1  0.88032707  0.87535499  0.07111330  1
  Al  Al31  1  0.44996085  0.76280915  0.82672180  1
  Al  Al32  1  0.55818746  0.87464408  0.56877280  1
  B  B33  1  0.89111366  0.20983078  0.64591724  1
  B  B34  1  0.77474326  0.09035516  0.31058479  1
  B  B35  1  0.55539531  0.87265094  0.06623010  1
  N  N36  1  0.21922258  0.20241239  0.32867879  1
  N  N37  1  0.10300764  0.09703954  0.07445286  1
  N  N38  1  0.89654115  0.21056724  0.80851449  1
  N  N39  1  0.78985508  0.10678405  0.62527903  1
  N  N40  1  0.58079533  0.19184538  0.36988253  1
  N  N41  1  0.45711812  0.06721355  0.12121062  1
  N  N42  1  0.22093102  0.20564127  0.83019929  1
  N  N43  1  0.08700307  0.10819673  0.58457220  1
  N  N44  1  0.87883171  0.19151848  0.33110052  1
  N  N45  1  0.76974543  0.08789360  0.14778420  1
  N  N46  1  0.56092781  0.20598876  0.88336033  1
  N  N47  1  0.45455027  0.09385672  0.63093073  1
  N  N48  1  0.22685570  0.53995734  0.37634475  1
  N  N49  1  0.10924640  0.42392780  0.07906193  1
  N  N50  1  0.88965385  0.53932127  0.83443583  1
  N  N51  1  0.79360404  0.40015079  0.58806985  1
  N  N52  1  0.55392667  0.54036185  0.38242441  1
  N  N53  1  0.44523650  0.42706917  0.13002871  1
  N  N54  1  0.22589246  0.54075638  0.87823005  1
  N  N55  1  0.11121210  0.42545074  0.57892285  1
  N  N56  1  0.88681108  0.53617056  0.33446358  1
  N  N57  1  0.78143420  0.41748609  0.07300120  1
  N  N58  1  0.54963862  0.54149431  0.87607907  1
  N  N59  1  0.44591009  0.42522532  0.62845821  1
  N  N60  1  0.22349155  0.87482571  0.32960151  1
  N  N61  1  0.10451926  0.76040411  0.12696802  1
  N  N62  1  0.88595956  0.87908231  0.88300273  1
  N  N63  1  0.77702861  0.77142263  0.63054153  1
  N  N64  1  0.55694703  0.87163129  0.38346947  1
  N  N65  1  0.46172157  0.77075921  0.12159950  1
  N  N66  1  0.21869070  0.87685471  0.83395672  1
  N  N67  1  0.10614288  0.76146966  0.62606987  1
  N  N68  1  0.87467944  0.89635898  0.36960904  1
  N  N69  1  0.74964191  0.77549120  0.12018281  1
  N  N70  1  0.55557419  0.87361381  0.90184038  1
  N  N71  1  0.45249760  0.76181952  0.63341058  1
