# generated using pymatgen
data_Al11BN12
_symmetry_space_group_name_H-M   'P 1'
_cell_length_a   9.29016189
_cell_length_b   9.29693659
_cell_length_c   10.13125793
_cell_angle_alpha   89.71387142
_cell_angle_beta   89.87604926
_cell_angle_gamma   60.08559036
_symmetry_Int_Tables_number   1
_chemical_formula_structural   Al11BN12
_chemical_formula_sum   'Al33 B3 N36'
_cell_volume   758.44767875
_cell_formula_units_Z   3
loop_
 _symmetry_equiv_pos_site_id
 _symmetry_equiv_pos_as_xyz
  1  'x, y, z'
loop_
 _atom_site_type_symbol
 _atom_site_label
 _atom_site_symmetry_multiplicity
 _atom_site_fract_x
 _atom_site_fract_y
 _atom_site_fract_z
 _atom_site_occupancy
  Al  Al0  1  0.09868259  0.09437582  0.39516721  1
  Al  Al1  1  0.22772804  0.19454742  0.14240626  1
  Al  Al2  1  0.78041832  0.09522577  0.81371329  1
  Al  Al3  1  0.44386858  0.09445388  0.38965954  1
  Al  Al4  1  0.55850151  0.19431099  0.07317187  1
  Al  Al5  1  0.11079459  0.09772433  0.88757691  1
  Al  Al6  1  0.21411838  0.21101263  0.63751392  1
  Al  Al7  1  0.88812103  0.20313275  0.14399634  1
  Al  Al8  1  0.44865563  0.09239587  0.84217814  1
  Al  Al9  1  0.57353069  0.21140923  0.56370261  1
  Al  Al10  1  0.10845270  0.42868040  0.38915165  1
  Al  Al11  1  0.21890279  0.53465790  0.13401704  1
  Al  Al12  1  0.78147137  0.42683477  0.88682445  1
  Al  Al13  1  0.89483865  0.52915530  0.63711517  1
  Al  Al14  1  0.45422267  0.41609785  0.31780375  1
  Al  Al15  1  0.56252759  0.54439116  0.13613813  1
  Al  Al16  1  0.11058948  0.42753118  0.89201688  1
  Al  Al17  1  0.21977411  0.53755598  0.63525159  1
  Al  Al18  1  0.77795773  0.41672481  0.39453432  1
  Al  Al19  1  0.88471274  0.53396832  0.13934260  1
  Al  Al20  1  0.44874469  0.42232256  0.82681657  1
  Al  Al21  1  0.56387053  0.53767386  0.64376702  1
  Al  Al22  1  0.10020308  0.77005472  0.31820757  1
  Al  Al23  1  0.22859414  0.87827083  0.13614439  1
  Al  Al24  1  0.77989155  0.76757173  0.81080326  1
  Al  Al25  1  0.89106509  0.88436641  0.55948988  1
  Al  Al26  1  0.44106972  0.75687255  0.39552080  1
  Al  Al27  1  0.10401105  0.76604600  0.82676963  1
  Al  Al28  1  0.22034533  0.88035700  0.64343719  1
  Al  Al29  1  0.76454441  0.77409920  0.32421897  1
  Al  Al30  1  0.87770448  0.87480166  0.07241205  1
  Al  Al31  1  0.44937623  0.76574701  0.88670379  1
  Al  Al32  1  0.55869028  0.87076782  0.59916000  1
  B  B33  1  0.89354943  0.20769312  0.64703010  1
  B  B34  1  0.77419407  0.09167736  0.31028039  1
  B  B35  1  0.55313695  0.87480589  0.10323104  1
  N  N36  1  0.21861002  0.20401588  0.33253708  1
  N  N37  1  0.10554549  0.09722796  0.07574542  1
  N  N38  1  0.89677323  0.21254515  0.81100953  1
  N  N39  1  0.79286512  0.10505692  0.62739362  1
  N  N40  1  0.58517005  0.19260218  0.37251792  1
  N  N41  1  0.45732302  0.05947425  0.09664755  1
  N  N42  1  0.22072862  0.20941255  0.82632509  1
  N  N43  1  0.08591247  0.10821055  0.58643073  1
  N  N44  1  0.87746033  0.19450068  0.33061062  1
  N  N45  1  0.77052547  0.08699547  0.14823966  1
  N  N46  1  0.56410123  0.20239571  0.88338196  1
  N  N47  1  0.44127732  0.10722486  0.59091142  1
  N  N48  1  0.22056182  0.53647033  0.33211283  1
  N  N49  1  0.11042584  0.42198710  0.07996252  1
  N  N50  1  0.89263308  0.53632722  0.82889776  1
  N  N51  1  0.79128234  0.40223134  0.58593455  1
  N  N52  1  0.56046265  0.54131295  0.32775206  1
  N  N53  1  0.44935082  0.42003319  0.12270606  1
  N  N54  1  0.21962666  0.53694985  0.83572315  1
  N  N55  1  0.11105129  0.42825944  0.57523956  1
  N  N56  1  0.88739978  0.53461871  0.32946873  1
  N  N57  1  0.78068777  0.42025423  0.07457503  1
  N  N58  1  0.55969211  0.54287516  0.83493706  1
  N  N59  1  0.44996345  0.42228943  0.62914707  1
  N  N60  1  0.22438035  0.87730520  0.32816504  1
  N  N61  1  0.10395108  0.76519641  0.12269057  1
  N  N62  1  0.88343729  0.87887250  0.88502755  1
  N  N63  1  0.79086718  0.76232350  0.61916545  1
  N  N64  1  0.55698263  0.86965455  0.39035309  1
  N  N65  1  0.46029460  0.77512479  0.08082286  1
  N  N66  1  0.22543281  0.87636891  0.83498941  1
  N  N67  1  0.10444244  0.76727615  0.62726929  1
  N  N68  1  0.87395705  0.89973032  0.36896605  1
  N  N69  1  0.74329887  0.77609570  0.12607518  1
  N  N70  1  0.55303579  0.87218568  0.81412702  1
  N  N71  1  0.43850337  0.75532696  0.58278649  1
