# generated using pymatgen
data_Al11BN12
_symmetry_space_group_name_H-M   'P 1'
_cell_length_a   9.27940945
_cell_length_b   9.28412555
_cell_length_c   9.96419775
_cell_angle_alpha   89.53449615
_cell_angle_beta   89.41270664
_cell_angle_gamma   59.95928962
_symmetry_Int_Tables_number   1
_chemical_formula_structural   Al11BN12
_chemical_formula_sum   'Al33 B3 N36'
_cell_volume   743.07148691
_cell_formula_units_Z   3
loop_
 _symmetry_equiv_pos_site_id
 _symmetry_equiv_pos_as_xyz
  1  'x, y, z'
loop_
 _atom_site_type_symbol
 _atom_site_label
 _atom_site_symmetry_multiplicity
 _atom_site_fract_x
 _atom_site_fract_y
 _atom_site_fract_z
 _atom_site_occupancy
  Al  Al0  1  0.09975821  0.09464155  0.40576545  1
  Al  Al1  1  0.22511868  0.20033555  0.15108200  1
  Al  Al2  1  0.77928111  0.09786303  0.86055272  1
  Al  Al3  1  0.45005781  0.08837994  0.38918565  1
  Al  Al4  1  0.56093573  0.19880655  0.08179925  1
  Al  Al5  1  0.10924892  0.09629933  0.89760540  1
  Al  Al6  1  0.21861232  0.20563941  0.64894432  1
  Al  Al7  1  0.88687808  0.20316189  0.14672944  1
  Al  Al8  1  0.44184126  0.08619429  0.89928579  1
  Al  Al9  1  0.57261942  0.19935106  0.59290425  1
  Al  Al10  1  0.11007714  0.42758259  0.40106079  1
  Al  Al11  1  0.22192403  0.53940127  0.15121517  1
  Al  Al12  1  0.77961492  0.42708248  0.89738789  1
  Al  Al13  1  0.88881912  0.53513413  0.64920938  1
  Al  Al14  1  0.44838846  0.42910392  0.39571932  1
  Al  Al15  1  0.55923167  0.54294565  0.15055742  1
  Al  Al16  1  0.11113074  0.42795803  0.89917786  1
  Al  Al17  1  0.22274703  0.53822724  0.64847470  1
  Al  Al18  1  0.77825339  0.41656237  0.40552364  1
  Al  Al19  1  0.88403423  0.54157556  0.15089561  1
  Al  Al20  1  0.43964367  0.43536437  0.89789419  1
  Al  Al21  1  0.55935265  0.53435709  0.65003059  1
  Al  Al22  1  0.10585207  0.76902376  0.39867047  1
  Al  Al23  1  0.22555085  0.87552497  0.15031988  1
  Al  Al24  1  0.77232271  0.76227187  0.90247909  1
  Al  Al25  1  0.89077540  0.87386784  0.65021085  1
  Al  Al26  1  0.44602613  0.76298772  0.39439801  1
  Al  Al27  1  0.11150056  0.76071400  0.90009167  1
  Al  Al28  1  0.21823252  0.87571505  0.64990074  1
  Al  Al29  1  0.77344605  0.76853700  0.39193131  1
  Al  Al30  1  0.88120922  0.87978353  0.13596560  1
  Al  Al31  1  0.44655654  0.76339613  0.90360102  1
  Al  Al32  1  0.55565594  0.87184151  0.64705749  1
  B  B33  1  0.89012451  0.20623694  0.66208562  1
  B  B34  1  0.77806903  0.09372169  0.35975219  1
  B  B35  1  0.55486196  0.87242724  0.15279169  1
  N  N36  1  0.21930883  0.20428570  0.34223876  1
  N  N37  1  0.10968522  0.09654077  0.08913160  1
  N  N38  1  0.89586533  0.21335635  0.82409400  1
  N  N39  1  0.79193395  0.10707959  0.64229144  1
  N  N40  1  0.59119738  0.18820007  0.37843911  1
  N  N41  1  0.45555811  0.06652588  0.09861268  1
  N  N42  1  0.22296913  0.20520302  0.83994973  1
  N  N43  1  0.08598938  0.10694644  0.59818188  1
  N  N44  1  0.87351109  0.18967031  0.34099444  1
  N  N45  1  0.78738644  0.09417220  0.07466343  1
  N  N46  1  0.54735015  0.20790704  0.87855693  1
  N  N47  1  0.44353438  0.09182985  0.58359086  1
  N  N48  1  0.22089462  0.54055225  0.34128207  1
  N  N49  1  0.11184083  0.42748734  0.09112096  1
  N  N50  1  0.88808173  0.54145264  0.84074747  1
  N  N51  1  0.79046229  0.40233853  0.59797366  1
  N  N52  1  0.55936251  0.53919370  0.34049286  1
  N  N53  1  0.44372301  0.43414424  0.09375903  1
  N  N54  1  0.22104942  0.54047126  0.83877248  1
  N  N55  1  0.11132686  0.42785085  0.59060778  1
  N  N56  1  0.88696709  0.53713800  0.34246007  1
  N  N57  1  0.78025453  0.42578605  0.08903922  1
  N  N58  1  0.55538517  0.54169335  0.84114988  1
  N  N59  1  0.44378200  0.43049219  0.58800800  1
  N  N60  1  0.22172452  0.87514228  0.34104934  1
  N  N61  1  0.11245433  0.76175967  0.09201577  1
  N  N62  1  0.89139278  0.86356772  0.84379856  1
  N  N63  1  0.77748378  0.76244501  0.58412354  1
  N  N64  1  0.55611250  0.87137657  0.31712561  1
  N  N65  1  0.45724272  0.77359760  0.09751771  1
  N  N66  1  0.22419596  0.87177086  0.84177489  1
  N  N67  1  0.11149960  0.76137782  0.58852941  1
  N  N68  1  0.87386645  0.90286473  0.34211061  1
  N  N69  1  0.75307510  0.77312679  0.09755965  1
  N  N70  1  0.55578087  0.87058278  0.83498360  1
  N  N71  1  0.44535127  0.76119857  0.58620439  1
