# generated using pymatgen
data_Al11BN12
_symmetry_space_group_name_H-M   'P 1'
_cell_length_a   9.25360255
_cell_length_b   9.26908852
_cell_length_c   10.19467411
_cell_angle_alpha   89.77409829
_cell_angle_beta   89.82463752
_cell_angle_gamma   60.17893432
_symmetry_Int_Tables_number   1
_chemical_formula_structural   Al11BN12
_chemical_formula_sum   'Al33 B3 N36'
_cell_volume   758.62712190
_cell_formula_units_Z   3
loop_
 _symmetry_equiv_pos_site_id
 _symmetry_equiv_pos_as_xyz
  1  'x, y, z'
loop_
 _atom_site_type_symbol
 _atom_site_label
 _atom_site_symmetry_multiplicity
 _atom_site_fract_x
 _atom_site_fract_y
 _atom_site_fract_z
 _atom_site_occupancy
  Al  Al0  1  0.10076308  0.09320836  0.39409566  1
  Al  Al1  1  0.21763339  0.20167034  0.13465431  1
  Al  Al2  1  0.77888356  0.09672147  0.81155703  1
  Al  Al3  1  0.45590299  0.08472766  0.31220739  1
  Al  Al4  1  0.55737032  0.19751567  0.07035456  1
  Al  Al5  1  0.10903743  0.09670168  0.88606695  1
  Al  Al6  1  0.21382586  0.21065365  0.63970185  1
  Al  Al7  1  0.88838011  0.20115360  0.14337989  1
  Al  Al8  1  0.45285043  0.09517096  0.82253684  1
  Al  Al9  1  0.56761945  0.20363226  0.56121809  1
  Al  Al10  1  0.10832403  0.42338244  0.38575618  1
  Al  Al11  1  0.22482419  0.54219545  0.06897167  1
  Al  Al12  1  0.78449449  0.42374001  0.88196177  1
  Al  Al13  1  0.89223033  0.53201877  0.63950518  1
  Al  Al14  1  0.45174166  0.42208676  0.31619771  1
  Al  Al15  1  0.55476736  0.53806863  0.06924492  1
  Al  Al16  1  0.10868630  0.42581813  0.88956065  1
  Al  Al17  1  0.22521135  0.54340573  0.56600552  1
  Al  Al18  1  0.78732991  0.41060692  0.39209826  1
  Al  Al19  1  0.88356626  0.53491127  0.13492596  1
  Al  Al20  1  0.44520483  0.42872303  0.81677554  1
  Al  Al21  1  0.55851489  0.53062749  0.57650473  1
  Al  Al22  1  0.10255828  0.76208486  0.31597701  1
  Al  Al23  1  0.23010442  0.87620197  0.13941628  1
  Al  Al24  1  0.77465268  0.77148234  0.82173660  1
  Al  Al25  1  0.88834158  0.88448571  0.56112692  1
  Al  Al26  1  0.43820429  0.76205380  0.38914471  1
  Al  Al27  1  0.10742081  0.75913256  0.81818548  1
  Al  Al28  1  0.22029073  0.88121195  0.64085367  1
  Al  Al29  1  0.76644058  0.77274923  0.31186864  1
  Al  Al30  1  0.88165287  0.87345303  0.06997752  1
  Al  Al31  1  0.43974763  0.77114587  0.88996225  1
  Al  Al32  1  0.55955867  0.87818289  0.56864078  1
  B  B33  1  0.89309888  0.20891087  0.64435232  1
  B  B34  1  0.77412522  0.09002560  0.30990463  1
  B  B35  1  0.55802264  0.87566193  0.06256384  1
  N  N36  1  0.21743125  0.20345028  0.32570523  1
  N  N37  1  0.10515990  0.09296950  0.07274742  1
  N  N38  1  0.89705597  0.21222247  0.80667189  1
  N  N39  1  0.78978116  0.10641847  0.62505909  1
  N  N40  1  0.58024405  0.19092099  0.36922079  1
  N  N41  1  0.45695508  0.06678710  0.12040011  1
  N  N42  1  0.21973084  0.20901916  0.82857164  1
  N  N43  1  0.08714676  0.10693237  0.58375048  1
  N  N44  1  0.87902245  0.19126238  0.32889454  1
  N  N45  1  0.76997391  0.08575743  0.14788167  1
  N  N46  1  0.56179384  0.20815979  0.88315800  1
  N  N47  1  0.45281466  0.09535828  0.63086283  1
  N  N48  1  0.22669667  0.54083799  0.37655173  1
  N  N49  1  0.10766842  0.42437508  0.07804585  1
  N  N50  1  0.89123004  0.53876975  0.82762690  1
  N  N51  1  0.79669048  0.39873379  0.58544235  1
  N  N52  1  0.55714597  0.53227960  0.38128598  1
  N  N53  1  0.44562008  0.42444085  0.12998309  1
  N  N54  1  0.22613296  0.54236106  0.87982719  1
  N  N55  1  0.10844747  0.42596347  0.57446938  1
  N  N56  1  0.88734068  0.53454092  0.32505229  1
  N  N57  1  0.78598195  0.41472614  0.07244481  1
  N  N58  1  0.55241404  0.54134499  0.87399280  1
  N  N59  1  0.44460213  0.42310666  0.62982254  1
  N  N60  1  0.22218627  0.87655487  0.32856573  1
  N  N61  1  0.10622137  0.75978471  0.12826170  1
  N  N62  1  0.88883156  0.87959678  0.88301719  1
  N  N63  1  0.77712321  0.77076579  0.63022102  1
  N  N64  1  0.55692339  0.87480956  0.38292080  1
  N  N65  1  0.45365719  0.77367348  0.08340089  1
  N  N66  1  0.22387015  0.87793859  0.82810015  1
  N  N67  1  0.10607418  0.76084916  0.62754742  1
  N  N68  1  0.87449771  0.89603549  0.36980118  1
  N  N69  1  0.74894366  0.77414031  0.11996398  1
  N  N70  1  0.56182741  0.88190624  0.89818625  1
  N  N71  1  0.44013644  0.76415520  0.58449560  1
