# generated using pymatgen
data_Al11BN12
_symmetry_space_group_name_H-M   'P 1'
_cell_length_a   9.27067904
_cell_length_b   9.27067968
_cell_length_c   10.04648953
_cell_angle_alpha   89.52609828
_cell_angle_beta   89.52611484
_cell_angle_gamma   59.99394640
_symmetry_Int_Tables_number   1
_chemical_formula_structural   Al11BN12
_chemical_formula_sum   'Al33 B3 N36'
_cell_volume   747.69037139
_cell_formula_units_Z   3
loop_
 _symmetry_equiv_pos_site_id
 _symmetry_equiv_pos_as_xyz
  1  'x, y, z'
loop_
 _atom_site_type_symbol
 _atom_site_label
 _atom_site_symmetry_multiplicity
 _atom_site_fract_x
 _atom_site_fract_y
 _atom_site_fract_z
 _atom_site_occupancy
  Al  Al0  1  0.09867133  0.09608165  0.40188742  1
  Al  Al1  1  0.22257433  0.19981891  0.14610911  1
  Al  Al2  1  0.77750014  0.09408962  0.82253682  1
  Al  Al3  1  0.44789573  0.08894841  0.38151456  1
  Al  Al4  1  0.56023363  0.19791870  0.08911955  1
  Al  Al5  1  0.11006697  0.09642105  0.89107536  1
  Al  Al6  1  0.22082169  0.20596059  0.64445613  1
  Al  Al7  1  0.88933216  0.20592292  0.15039899  1
  Al  Al8  1  0.44554084  0.08666941  0.89901741  1
  Al  Al9  1  0.57213092  0.20053098  0.56940727  1
  Al  Al10  1  0.10994913  0.42653753  0.39657009  1
  Al  Al11  1  0.22147745  0.53806866  0.14778326  1
  Al  Al12  1  0.77983276  0.42665573  0.89107522  1
  Al  Al13  1  0.88937078  0.53741118  0.64445614  1
  Al  Al14  1  0.44743878  0.42998856  0.38807443  1
  Al  Al15  1  0.55881551  0.54311496  0.14639534  1
  Al  Al16  1  0.11201341  0.42860144  0.89450542  1
  Al  Al17  1  0.22288038  0.53947022  0.64382647  1
  Al  Al18  1  0.77949177  0.41526161  0.40188744  1
  Al  Al19  1  0.88323014  0.53916340  0.14610886  1
  Al  Al20  1  0.44337483  0.43322034  0.89810284  1
  Al  Al21  1  0.55869784  0.53441841  0.64543049  1
  Al  Al22  1  0.11339689  0.76402957  0.38807466  1
  Al  Al23  1  0.22652429  0.87540589  0.14639544  1
  Al  Al24  1  0.77008086  0.76212982  0.89901702  1
  Al  Al25  1  0.88393967  0.88872087  0.56940771  1
  Al  Al26  1  0.44644143  0.76303224  0.39113524  1
  Al  Al27  1  0.11663231  0.75996307  0.89810312  1
  Al  Al28  1  0.21782740  0.87528850  0.64543042  1
  Al  Al29  1  0.77235945  0.76448433  0.38151420  1
  Al  Al30  1  0.88132686  0.87682527  0.08911860  1
  Al  Al31  1  0.44732350  0.76391260  0.89823568  1
  Al  Al32  1  0.55622409  0.87281359  0.64178923  1
  B  B33  1  0.89342388  0.21001368  0.65455672  1
  B  B34  1  0.77515148  0.09174201  0.31639437  1
  B  B35  1  0.55365905  0.87024862  0.14817169  1
  N  N36  1  0.21783062  0.20430707  0.33598254  1
  N  N37  1  0.10626809  0.09566474  0.08095111  1
  N  N38  1  0.89571585  0.21230470  0.81726780  1
  N  N39  1  0.78883233  0.10542246  0.63527914  1
  N  N40  1  0.58495923  0.19172587  0.37253888  1
  N  N41  1  0.45230041  0.06604737  0.09463850  1
  N  N42  1  0.22658945  0.20545279  0.83500882  1
  N  N43  1  0.08583298  0.10782878  0.59444109  1
  N  N44  1  0.87878804  0.19537833  0.33805664  1
  N  N45  1  0.77285841  0.08944936  0.15619541  1
  N  N46  1  0.56320497  0.20170995  0.89208918  1
  N  N47  1  0.44326941  0.09187434  0.57655969  1
  N  N48  1  0.22134041  0.53793100  0.33537893  1
  N  N49  1  0.11066035  0.42724918  0.08503375  1
  N  N50  1  0.88886445  0.54317822  0.83500889  1
  N  N51  1  0.79123854  0.40242309  0.59444122  1
  N  N52  1  0.55986492  0.53988095  0.33534157  1
  N  N53  1  0.44274530  0.43442889  0.09130809  1
  N  N54  1  0.22355191  0.54014039  0.83425817  1
  N  N55  1  0.11166072  0.42825030  0.58549237  1
  N  N56  1  0.88771847  0.53441939  0.33598235  1
  N  N57  1  0.77907461  0.42285842  0.08095102  1
  N  N58  1  0.55544476  0.54168031  0.83572663  1
  N  N59  1  0.44365642  0.43110625  0.58151396  1
  N  N60  1  0.22329020  0.87645491  0.33534162  1
  N  N61  1  0.11783757  0.75933627  0.09130822  1
  N  N62  1  0.88512140  0.87979393  0.89208840  1
  N  N63  1  0.77528452  0.75985836  0.57655946  1
  N  N64  1  0.55458725  0.87117652  0.31087032  1
  N  N65  1  0.45646814  0.77305849  0.09126577  1
  N  N66  1  0.22509140  0.87203350  0.83572652  1
  N  N67  1  0.11451526  0.76024669  0.58151427  1
  N  N68  1  0.87513470  0.90154985  0.37253920  1
  N  N69  1  0.74945785  0.76888993  0.09463835  1
  N  N70  1  0.55623956  0.87282829  0.82927376  1
  N  N71  1  0.44511991  0.76171067  0.58198435  1
