# generated using pymatgen
data_Al11BN12
_symmetry_space_group_name_H-M   'P 1'
_cell_length_a   9.30229489
_cell_length_b   9.28622059
_cell_length_c   10.03173300
_cell_angle_alpha   89.80665879
_cell_angle_beta   89.67454134
_cell_angle_gamma   60.06189455
_symmetry_Int_Tables_number   1
_chemical_formula_structural   Al11BN12
_chemical_formula_sum   'Al33 B3 N36'
_cell_volume   750.92944188
_cell_formula_units_Z   3
loop_
 _symmetry_equiv_pos_site_id
 _symmetry_equiv_pos_as_xyz
  1  'x, y, z'
loop_
 _atom_site_type_symbol
 _atom_site_label
 _atom_site_symmetry_multiplicity
 _atom_site_fract_x
 _atom_site_fract_y
 _atom_site_fract_z
 _atom_site_occupancy
  Al  Al0  1  0.09782094  0.10046423  0.39411996  1
  Al  Al1  1  0.21927634  0.19939750  0.13553962  1
  Al  Al2  1  0.77905780  0.09472155  0.81393921  1
  Al  Al3  1  0.45855830  0.08352713  0.31637784  1
  Al  Al4  1  0.55716471  0.19850959  0.07320133  1
  Al  Al5  1  0.10670018  0.10020290  0.88565872  1
  Al  Al6  1  0.21667805  0.20529795  0.63995603  1
  Al  Al7  1  0.88629802  0.20433129  0.14447215  1
  Al  Al8  1  0.45510901  0.08912453  0.82750014  1
  Al  Al9  1  0.56806923  0.20340997  0.56413777  1
  Al  Al10  1  0.11130954  0.42757234  0.35445238  1
  Al  Al11  1  0.22340629  0.54020746  0.07219562  1
  Al  Al12  1  0.77973740  0.42223889  0.87985804  1
  Al  Al13  1  0.88889156  0.53974602  0.57761178  1
  Al  Al14  1  0.45137220  0.42403648  0.31904097  1
  Al  Al15  1  0.55021893  0.54442665  0.06896497  1
  Al  Al16  1  0.11240917  0.42914617  0.85518020  1
  Al  Al17  1  0.22488919  0.54022165  0.56932529  1
  Al  Al18  1  0.78049845  0.41042763  0.39207925  1
  Al  Al19  1  0.88194425  0.54526006  0.07188143  1
  Al  Al20  1  0.44562930  0.42655168  0.81857898  1
  Al  Al21  1  0.55408058  0.53852909  0.57701251  1
  Al  Al22  1  0.10761775  0.76878480  0.31912954  1
  Al  Al23  1  0.22786028  0.86816380  0.06880941  1
  Al  Al24  1  0.77559747  0.76698478  0.82385010  1
  Al  Al25  1  0.88760686  0.88436283  0.56375038  1
  Al  Al26  1  0.44671329  0.76334506  0.31771633  1
  Al  Al27  1  0.10991187  0.76319607  0.81878779  1
  Al  Al28  1  0.22210688  0.87123852  0.57586504  1
  Al  Al29  1  0.77164094  0.76600146  0.31503007  1
  Al  Al30  1  0.88212288  0.87440500  0.07324955  1
  Al  Al31  1  0.44624601  0.76441136  0.82494817  1
  Al  Al32  1  0.55754924  0.87392377  0.57003810  1
  B  B33  1  0.89202331  0.20965110  0.64658740  1
  B  B34  1  0.77465826  0.08879759  0.31087142  1
  B  B35  1  0.55505433  0.87314761  0.06725111  1
  N  N36  1  0.22172692  0.19934234  0.33116671  1
  N  N37  1  0.10117966  0.09970367  0.07673216  1
  N  N38  1  0.89636571  0.21071979  0.80918886  1
  N  N39  1  0.78949163  0.10564872  0.62606281  1
  N  N40  1  0.58072963  0.19165812  0.37037272  1
  N  N41  1  0.45830047  0.06593126  0.12141327  1
  N  N42  1  0.22392872  0.20295576  0.83359487  1
  N  N43  1  0.08411468  0.11030458  0.58749182  1
  N  N44  1  0.87832913  0.19123700  0.33151979  1
  N  N45  1  0.77000657  0.08692481  0.14825378  1
  N  N46  1  0.56166111  0.20556455  0.88381261  1
  N  N47  1  0.45518305  0.09232101  0.63158216  1
  N  N48  1  0.22566287  0.54190013  0.37777864  1
  N  N49  1  0.10890506  0.42890533  0.10764655  1
  N  N50  1  0.88661531  0.54632892  0.87552917  1
  N  N51  1  0.79131385  0.39916133  0.58978125  1
  N  N52  1  0.55105665  0.54267193  0.38199689  1
  N  N53  1  0.44508911  0.42618190  0.13042765  1
  N  N54  1  0.22568546  0.54217056  0.88032514  1
  N  N55  1  0.11303958  0.42824497  0.60535416  1
  N  N56  1  0.88314413  0.54358259  0.37833211  1
  N  N57  1  0.77904283  0.41738803  0.07800948  1
  N  N58  1  0.54933063  0.54237402  0.87613832  1
  N  N59  1  0.44560507  0.42466575  0.62910251  1
  N  N60  1  0.22630714  0.86875273  0.38208716  1
  N  N61  1  0.10965396  0.76317658  0.13024148  1
  N  N62  1  0.88845477  0.87782843  0.88326312  1
  N  N63  1  0.77810891  0.76697255  0.63210360  1
  N  N64  1  0.55649726  0.87030495  0.38371209  1
  N  N65  1  0.45542243  0.77314301  0.12411582  1
  N  N66  1  0.22464982  0.86801537  0.87709008  1
  N  N67  1  0.10849023  0.76245520  0.62887248  1
  N  N68  1  0.87508562  0.89571449  0.36977997  1
  N  N69  1  0.75114656  0.77252431  0.12317384  1
  N  N70  1  0.55690878  0.87184548  0.90185449  1
  N  N71  1  0.44659205  0.76414151  0.63491621  1
