# generated using pymatgen
data_Al11BN12
_symmetry_space_group_name_H-M   'P 1'
_cell_length_a   9.26165824
_cell_length_b   9.26731677
_cell_length_c   10.07402995
_cell_angle_alpha   89.85588045
_cell_angle_beta   89.59293578
_cell_angle_gamma   60.04677641
_symmetry_Int_Tables_number   1
_chemical_formula_structural   Al11BN12
_chemical_formula_sum   'Al33 B3 N36'
_cell_volume   749.15187624
_cell_formula_units_Z   3
loop_
 _symmetry_equiv_pos_site_id
 _symmetry_equiv_pos_as_xyz
  1  'x, y, z'
loop_
 _atom_site_type_symbol
 _atom_site_label
 _atom_site_symmetry_multiplicity
 _atom_site_fract_x
 _atom_site_fract_y
 _atom_site_fract_z
 _atom_site_occupancy
  Al  Al0  1  0.09163336  0.10641607  0.39273232  1
  Al  Al1  1  0.22108474  0.19636403  0.13125820  1
  Al  Al2  1  0.77908627  0.09168566  0.81208275  1
  Al  Al3  1  0.45623955  0.08517689  0.31392029  1
  Al  Al4  1  0.55648159  0.19836819  0.06863973  1
  Al  Al5  1  0.10931573  0.09967703  0.88355021  1
  Al  Al6  1  0.21887010  0.20194879  0.63529151  1
  Al  Al7  1  0.88941854  0.19748294  0.14019643  1
  Al  Al8  1  0.45464571  0.08844196  0.82369372  1
  Al  Al9  1  0.56875541  0.20388679  0.55966842  1
  Al  Al10  1  0.10716413  0.43491099  0.31521306  1
  Al  Al11  1  0.22217800  0.53861573  0.06461369  1
  Al  Al12  1  0.77787611  0.43182037  0.81109319  1
  Al  Al13  1  0.89037094  0.53619438  0.56500194  1
  Al  Al14  1  0.44868717  0.42476096  0.31425921  1
  Al  Al15  1  0.55806614  0.54042306  0.06448069  1
  Al  Al16  1  0.10877498  0.43524245  0.81681228  1
  Al  Al17  1  0.22350517  0.53846064  0.56387216  1
  Al  Al18  1  0.77146934  0.43041182  0.31968412  1
  Al  Al19  1  0.88180690  0.54160051  0.06436738  1
  Al  Al20  1  0.44719702  0.42579261  0.81465997  1
  Al  Al21  1  0.56044650  0.53465028  0.56550743  1
  Al  Al22  1  0.10674642  0.76979598  0.31546741  1
  Al  Al23  1  0.22921249  0.86554050  0.06421632  1
  Al  Al24  1  0.77663882  0.76383195  0.82063512  1
  Al  Al25  1  0.88778395  0.88331842  0.56051193  1
  Al  Al26  1  0.44296340  0.76701136  0.31276700  1
  Al  Al27  1  0.11111539  0.76220680  0.81443290  1
  Al  Al28  1  0.22319249  0.86985328  0.57108206  1
  Al  Al29  1  0.77102706  0.76880347  0.31047694  1
  Al  Al30  1  0.88217289  0.87268585  0.06887053  1
  Al  Al31  1  0.44825815  0.76141946  0.82121325  1
  Al  Al32  1  0.55888608  0.87186318  0.56618316  1
  B  B33  1  0.89555287  0.20267323  0.64745339  1
  B  B34  1  0.77382484  0.09143401  0.30880749  1
  B  B35  1  0.55580837  0.87157063  0.06398219  1
  N  N36  1  0.21915447  0.20168310  0.32862822  1
  N  N37  1  0.10226309  0.09872270  0.07224281  1
  N  N38  1  0.90005596  0.20148023  0.81139780  1
  N  N39  1  0.79003735  0.10539410  0.62376725  1
  N  N40  1  0.57925271  0.19287483  0.36665388  1
  N  N41  1  0.45866396  0.06530120  0.11836904  1
  N  N42  1  0.22396926  0.20373417  0.83025275  1
  N  N43  1  0.08261695  0.11128601  0.58471968  1
  N  N44  1  0.87496695  0.19258600  0.32930633  1
  N  N45  1  0.76954636  0.08590740  0.14353618  1
  N  N46  1  0.56109104  0.20465098  0.88001216  1
  N  N47  1  0.45647959  0.09134429  0.62708365  1
  N  N48  1  0.22191231  0.54107369  0.37485165  1
  N  N49  1  0.10576160  0.43366268  0.12317621  1
  N  N50  1  0.88780094  0.54014222  0.87597070  1
  N  N51  1  0.78781433  0.41018917  0.62040848  1
  N  N52  1  0.55048984  0.54394354  0.37615900  1
  N  N53  1  0.44458694  0.42651724  0.12519082  1
  N  N54  1  0.22422694  0.53969957  0.87577251  1
  N  N55  1  0.10912255  0.43368286  0.62476363  1
  N  N56  1  0.88531882  0.54338738  0.37513096  1
  N  N57  1  0.77528062  0.42947869  0.12693132  1
  N  N58  1  0.55874774  0.53648409  0.87557405  1
  N  N59  1  0.44641053  0.42561990  0.62405725  1
  N  N60  1  0.22345909  0.87193919  0.37886421  1
  N  N61  1  0.10997959  0.76184533  0.12662571  1
  N  N62  1  0.88938387  0.87435449  0.87957952  1
  N  N63  1  0.77995554  0.76344046  0.62831841  1
  N  N64  1  0.55568321  0.87080527  0.38007074  1
  N  N65  1  0.45563816  0.77278662  0.11975209  1
  N  N66  1  0.22670807  0.86556601  0.87400687  1
  N  N67  1  0.10917405  0.76159874  0.62501194  1
  N  N68  1  0.87401168  0.89708385  0.36684999  1
  N  N69  1  0.75188780  0.77126086  0.11874975  1
  N  N70  1  0.55737344  0.87073470  0.89798195  1
  N  N71  1  0.44838779  0.76096332  0.63090324  1
