# generated using pymatgen
data_Al11BN12
_symmetry_space_group_name_H-M   'P 1'
_cell_length_a   9.25974702
_cell_length_b   9.26562603
_cell_length_c   10.15794456
_cell_angle_alpha   89.76921929
_cell_angle_beta   89.77988003
_cell_angle_gamma   60.16099540
_symmetry_Int_Tables_number   1
_chemical_formula_structural   Al11BN12
_chemical_formula_sum   'Al33 B3 N36'
_cell_volume   755.97621668
_cell_formula_units_Z   3
loop_
 _symmetry_equiv_pos_site_id
 _symmetry_equiv_pos_as_xyz
  1  'x, y, z'
loop_
 _atom_site_type_symbol
 _atom_site_label
 _atom_site_symmetry_multiplicity
 _atom_site_fract_x
 _atom_site_fract_y
 _atom_site_fract_z
 _atom_site_occupancy
  Al  Al0  1  0.09978773  0.09406419  0.39349304  1
  Al  Al1  1  0.21800743  0.20149673  0.13445081  1
  Al  Al2  1  0.77958472  0.09657403  0.81165437  1
  Al  Al3  1  0.45576049  0.08343977  0.31230088  1
  Al  Al4  1  0.55728214  0.19715754  0.06986275  1
  Al  Al5  1  0.10989873  0.09612940  0.88555494  1
  Al  Al6  1  0.21464814  0.21062174  0.63927123  1
  Al  Al7  1  0.88749957  0.20203384  0.14305030  1
  Al  Al8  1  0.45338796  0.09356355  0.82218840  1
  Al  Al9  1  0.56806555  0.20457937  0.56047277  1
  Al  Al10  1  0.10743676  0.42340839  0.38541898  1
  Al  Al11  1  0.22460417  0.54244718  0.06871168  1
  Al  Al12  1  0.78085556  0.42603199  0.88211127  1
  Al  Al13  1  0.89389305  0.53212292  0.63919264  1
  Al  Al14  1  0.44873654  0.41988987  0.31642075  1
  Al  Al15  1  0.55901524  0.54244867  0.12175002  1
  Al  Al16  1  0.10890495  0.42540324  0.88929219  1
  Al  Al17  1  0.22629711  0.54349808  0.56495283  1
  Al  Al18  1  0.77983001  0.41444805  0.39356693  1
  Al  Al19  1  0.88438574  0.53470526  0.13446276  1
  Al  Al20  1  0.44330352  0.42582984  0.81755791  1
  Al  Al21  1  0.56297700  0.53667567  0.63076868  1
  Al  Al22  1  0.10216213  0.76281797  0.31620593  1
  Al  Al23  1  0.22877019  0.87687469  0.13911464  1
  Al  Al24  1  0.77521093  0.77085307  0.82212188  1
  Al  Al25  1  0.88815852  0.88474122  0.56094579  1
  Al  Al26  1  0.43978529  0.75701517  0.39064749  1
  Al  Al27  1  0.10772434  0.75949504  0.81794609  1
  Al  Al28  1  0.22006040  0.88154891  0.63993740  1
  Al  Al29  1  0.76608303  0.77209254  0.31226129  1
  Al  Al30  1  0.88157251  0.87342991  0.07005296  1
  Al  Al31  1  0.44317264  0.76419614  0.89040786  1
  Al  Al32  1  0.55982995  0.87796312  0.56758729  1
  B  B33  1  0.89339916  0.20855932  0.64457828  1
  B  B34  1  0.77397126  0.09031297  0.30962980  1
  B  B35  1  0.55870641  0.87577265  0.06060841  1
  N  N36  1  0.21774782  0.20331017  0.32569595  1
  N  N37  1  0.10441334  0.09389528  0.07283183  1
  N  N38  1  0.89747139  0.21237598  0.80722912  1
  N  N39  1  0.79016711  0.10684432  0.62476862  1
  N  N40  1  0.58009478  0.19032230  0.36886384  1
  N  N41  1  0.45710366  0.06555657  0.11965326  1
  N  N42  1  0.22065224  0.20853218  0.82868379  1
  N  N43  1  0.08672996  0.10790542  0.58381203  1
  N  N44  1  0.87772109  0.19246196  0.32935403  1
  N  N45  1  0.76983689  0.08609398  0.14724587  1
  N  N46  1  0.56240511  0.20687792  0.88272725  1
  N  N47  1  0.45335881  0.09481619  0.63026197  1
  N  N48  1  0.22555785  0.54120017  0.37572828  1
  N  N49  1  0.10750633  0.42420800  0.07806035  1
  N  N50  1  0.89218523  0.53825256  0.82815392  1
  N  N51  1  0.79364750  0.40174839  0.58480220  1
  N  N52  1  0.55969192  0.53711839  0.34013263  1
  N  N53  1  0.44361200  0.42213934  0.12741954  1
  N  N54  1  0.22598692  0.54268959  0.87969815  1
  N  N55  1  0.10924058  0.42593774  0.57448962  1
  N  N56  1  0.88717858  0.53407114  0.32538933  1
  N  N57  1  0.78098143  0.41789266  0.07046335  1
  N  N58  1  0.55805524  0.54415533  0.83225535  1
  N  N59  1  0.44405090  0.42223226  0.62705229  1
  N  N60  1  0.22243196  0.87659952  0.32910957  1
  N  N61  1  0.10578113  0.76017200  0.12795772  1
  N  N62  1  0.88912430  0.87942532  0.88272835  1
  N  N63  1  0.77703380  0.77070231  0.63008237  1
  N  N64  1  0.55632349  0.87378184  0.38248495  1
  N  N65  1  0.45279682  0.77098085  0.08016799  1
  N  N66  1  0.22564202  0.87680255  0.82806272  1
  N  N67  1  0.10606305  0.76119425  0.62677401  1
  N  N68  1  0.87388780  0.89619357  0.36941405  1
  N  N69  1  0.74861535  0.77381825  0.11943134  1
  N  N70  1  0.56205051  0.88042712  0.89802031  1
  N  N71  1  0.44083883  0.76149428  0.58138637  1
