# generated using pymatgen
data_Al11BN12
_symmetry_space_group_name_H-M   'P 1'
_cell_length_a   9.25680740
_cell_length_b   9.25680697
_cell_length_c   9.88996437
_cell_angle_alpha   90.08197284
_cell_angle_beta   90.08196169
_cell_angle_gamma   60.01883859
_symmetry_Int_Tables_number   1
_chemical_formula_structural   Al11BN12
_chemical_formula_sum   'Al33 B3 N36'
_cell_volume   734.05670877
_cell_formula_units_Z   3
loop_
 _symmetry_equiv_pos_site_id
 _symmetry_equiv_pos_as_xyz
  1  'x, y, z'
loop_
 _atom_site_type_symbol
 _atom_site_label
 _atom_site_symmetry_multiplicity
 _atom_site_fract_x
 _atom_site_fract_y
 _atom_site_fract_z
 _atom_site_occupancy
  Al  Al0  1  0.10192956  0.09580896  0.41200164  1
  Al  Al1  1  0.22473154  0.20016721  0.15759156  1
  Al  Al2  1  0.77846680  0.09510819  0.89913489  1
  Al  Al3  1  0.45088274  0.09097518  0.40139979  1
  Al  Al4  1  0.56405648  0.19773707  0.16202534  1
  Al  Al5  1  0.10699529  0.09622222  0.90079647  1
  Al  Al6  1  0.21932792  0.20604305  0.65713985  1
  Al  Al7  1  0.88630486  0.20294565  0.15962774  1
  Al  Al8  1  0.44799206  0.09034581  0.91143455  1
  Al  Al9  1  0.56145082  0.20472752  0.65023865  1
  Al  Al10  1  0.11096750  0.42760757  0.40800244  1
  Al  Al11  1  0.22227759  0.53891921  0.15835973  1
  Al  Al12  1  0.77958063  0.42363711  0.90079631  1
  Al  Al13  1  0.88940014  0.53597061  0.65713992  1
  Al  Al14  1  0.45010600  0.42461795  0.40750160  1
  Al  Al15  1  0.55910860  0.54152299  0.15726817  1
  Al  Al16  1  0.11120794  0.42784886  0.90802116  1
  Al  Al17  1  0.22269634  0.53933851  0.65788294  1
  Al  Al18  1  0.77916804  0.41857027  0.41200184  1
  Al  Al19  1  0.88352698  0.54137127  0.15759154  1
  Al  Al20  1  0.44548853  0.42596082  0.90762145  1
  Al  Al21  1  0.55869027  0.53558414  0.65775421  1
  Al  Al22  1  0.10797615  0.76674697  0.40750158  1
  Al  Al23  1  0.22488171  0.87575004  0.15726822  1
  Al  Al24  1  0.77370412  0.76463345  0.91143477  1
  Al  Al25  1  0.88808528  0.87809262  0.65023839  1
  Al  Al26  1  0.44632866  0.76297086  0.40156880  1
  Al  Al27  1  0.10931861  0.76213079  0.90762144  1
  Al  Al28  1  0.21894056  0.87533384  0.65775408  1
  Al  Al29  1  0.77433437  0.76752268  0.40139954  1
  Al  Al30  1  0.88109519  0.88069759  0.16202545  1
  Al  Al31  1  0.44730933  0.76395167  0.91178080  1
  Al  Al32  1  0.55591571  0.87255780  0.65680935  1
  B  B33  1  0.88930164  0.20594412  0.65485631  1
  B  B34  1  0.78245129  0.09909278  0.41295487  1
  B  B35  1  0.55613091  0.87277184  0.16240291  1
  N  N36  1  0.22077866  0.20381463  0.34985020  1
  N  N37  1  0.10659318  0.09689808  0.09454577  1
  N  N38  1  0.88734132  0.20398316  0.82207757  1
  N  N39  1  0.78994686  0.10658884  0.58497776  1
  N  N40  1  0.58317210  0.19307026  0.35731222  1
  N  N41  1  0.45784731  0.07119608  0.10799392  1
  N  N42  1  0.22452009  0.20443669  0.84981689  1
  N  N43  1  0.08649621  0.10719197  0.60527904  1
  N  N44  1  0.87630263  0.19294355  0.35208382  1
  N  N45  1  0.77871932  0.09536040  0.08959083  1
  N  N46  1  0.55511812  0.20423054  0.84421675  1
  N  N47  1  0.44462781  0.09308192  0.59349168  1
  N  N48  1  0.22272163  0.53936269  0.34944327  1
  N  N49  1  0.11069256  0.42733302  0.09979741  1
  N  N50  1  0.88779538  0.54116159  0.84981704  1
  N  N51  1  0.79054901  0.40313884  0.60527932  1
  N  N52  1  0.55846017  0.53827543  0.34878345  1
  N  N53  1  0.44661550  0.42502983  0.10111732  1
  N  N54  1  0.22248105  0.53912318  0.84975896  1
  N  N55  1  0.11144946  0.42809207  0.59907062  1
  N  N56  1  0.88717439  0.53741865  0.34985017  1
  N  N57  1  0.78025673  0.42323408  0.09454573  1
  N  N58  1  0.55410965  0.54104306  0.85010311  1
  N  N59  1  0.44437488  0.42866218  0.59802282  1
  N  N60  1  0.22163361  0.87510135  0.34878332  1
  N  N61  1  0.10838806  0.76325720  0.10111736  1
  N  N62  1  0.88758850  0.87175976  0.84421656  1
  N  N63  1  0.77643957  0.76126980  0.59349141  1
  N  N64  1  0.55588041  0.87252141  0.32668786  1
  N  N65  1  0.45726358  0.77390501  0.10615390  1
  N  N66  1  0.22440081  0.87075169  0.85010290  1
  N  N67  1  0.11201990  0.76101708  0.59802280  1
  N  N68  1  0.87642855  0.89981316  0.35731226  1
  N  N69  1  0.75455505  0.77448774  0.10799410  1
  N  N70  1  0.55593643  0.87257807  0.84587119  1
  N  N71  1  0.44518863  0.76183186  0.59481764  1
