# generated using pymatgen
data_Al11BN12
_symmetry_space_group_name_H-M   'P 1'
_cell_length_a   9.27223618
_cell_length_b   9.27227271
_cell_length_c   10.04289159
_cell_angle_alpha   89.48957722
_cell_angle_beta   89.48937460
_cell_angle_gamma   59.98480612
_symmetry_Int_Tables_number   1
_chemical_formula_structural   Al11BN12
_chemical_formula_sum   'Al33 B3 N36'
_cell_volume   747.60223521
_cell_formula_units_Z   3
loop_
 _symmetry_equiv_pos_site_id
 _symmetry_equiv_pos_as_xyz
  1  'x, y, z'
loop_
 _atom_site_type_symbol
 _atom_site_label
 _atom_site_symmetry_multiplicity
 _atom_site_fract_x
 _atom_site_fract_y
 _atom_site_fract_z
 _atom_site_occupancy
  Al  Al0  1  0.09873345  0.09614829  0.40681791  1
  Al  Al1  1  0.22282584  0.19983912  0.15114905  1
  Al  Al2  1  0.77739908  0.09402086  0.82756960  1
  Al  Al3  1  0.44817496  0.08910459  0.38672001  1
  Al  Al4  1  0.56035523  0.19787494  0.09339977  1
  Al  Al5  1  0.10994175  0.09629996  0.89621084  1
  Al  Al6  1  0.22058768  0.20592677  0.64941611  1
  Al  Al7  1  0.88939458  0.20600616  0.15531803  1
  Al  Al8  1  0.44524265  0.08652400  0.90367570  1
  Al  Al9  1  0.57207026  0.20057587  0.57496546  1
  Al  Al10  1  0.11006066  0.42667021  0.40143374  1
  Al  Al11  1  0.22159410  0.53822091  0.15261748  1
  Al  Al12  1  0.77969432  0.42654663  0.89621346  1
  Al  Al13  1  0.88933060  0.53717935  0.64941990  1
  Al  Al14  1  0.44759153  0.42998931  0.39330731  1
  Al  Al15  1  0.55882014  0.54305031  0.15131258  1
  Al  Al16  1  0.11184095  0.42844088  0.89958116  1
  Al  Al17  1  0.22273406  0.53932530  0.64879562  1
  Al  Al18  1  0.77953981  0.41534540  0.40681679  1
  Al  Al19  1  0.88322608  0.53944379  0.15114805  1
  Al  Al20  1  0.44314303  0.43322388  0.90262537  1
  Al  Al21  1  0.55865159  0.53449189  0.65037794  1
  Al  Al22  1  0.11336940  0.76420910  0.39332575  1
  Al  Al23  1  0.22643145  0.87543132  0.15131044  1
  Al  Al24  1  0.76991652  0.76184550  0.90365961  1
  Al  Al25  1  0.88397013  0.88867116  0.57499783  1
  Al  Al26  1  0.44654041  0.76315006  0.39585538  1
  Al  Al27  1  0.11661899  0.75974657  0.90260653  1
  Al  Al28  1  0.21789153  0.87525630  0.65037907  1
  Al  Al29  1  0.77250019  0.76478520  0.38673754  1
  Al  Al30  1  0.88125897  0.87696988  0.09336809  1
  Al  Al31  1  0.44717717  0.76378531  0.90334393  1
  Al  Al32  1  0.55609507  0.87270017  0.64674584  1
  B  B33  1  0.89327221  0.20987910  0.65964303  1
  B  B34  1  0.77528451  0.09188684  0.32161394  1
  B  B35  1  0.55381555  0.87042296  0.15305054  1
  N  N36  1  0.21810073  0.20434650  0.34108101  1
  N  N37  1  0.10644893  0.09577464  0.08610130  1
  N  N38  1  0.89554557  0.21215215  0.82258515  1
  N  N39  1  0.78888517  0.10550278  0.64041011  1
  N  N40  1  0.58526829  0.19178694  0.37792955  1
  N  N41  1  0.45245086  0.06606296  0.09936096  1
  N  N42  1  0.22624733  0.20539998  0.83999169  1
  N  N43  1  0.08572596  0.10778173  0.59945470  1
  N  N44  1  0.87884008  0.19545166  0.34299241  1
  N  N45  1  0.77294885  0.08954486  0.16072907  1
  N  N46  1  0.56270156  0.20172552  0.89626338  1
  N  N47  1  0.44323103  0.09190768  0.58181659  1
  N  N48  1  0.22151285  0.53813826  0.34036700  1
  N  N49  1  0.11073845  0.42734912  0.09015002  1
  N  N50  1  0.88879954  0.54284486  0.83999254  1
  N  N51  1  0.79117959  0.40232843  0.59945432  1
  N  N52  1  0.55990856  0.53991111  0.34032343  1
  N  N53  1  0.44287167  0.43436491  0.09588731  1
  N  N54  1  0.22333136  0.53992651  0.83914666  1
  N  N55  1  0.11159496  0.42819118  0.59040281  1
  N  N56  1  0.88773591  0.53471615  0.34108226  1
  N  N57  1  0.77916390  0.42306094  0.08610355  1
  N  N58  1  0.55537240  0.54166389  0.84070813  1
  N  N59  1  0.44359501  0.43113894  0.58678461  1
  N  N60  1  0.22329729  0.87651575  0.34032455  1
  N  N61  1  0.11774634  0.75948788  0.09586891  1
  N  N62  1  0.88511739  0.87930594  0.89623323  1
  N  N63  1  0.77531047  0.75982488  0.58183314  1
  N  N64  1  0.55480371  0.87140269  0.31586088  1
  N  N65  1  0.45647611  0.77309033  0.09635793  1
  N  N66  1  0.22505955  0.87197976  0.84070588  1
  N  N67  1  0.11453593  0.76019520  0.58680200  1
  N  N68  1  0.87516869  0.90188967  0.37795812  1
  N  N69  1  0.74945158  0.76906346  0.09934616  1
  N  N70  1  0.55600751  0.87262100  0.83420935  1
  N  N71  1  0.44510509  0.76170691  0.58678752  1
