# generated using pymatgen
data_Al11BN12
_symmetry_space_group_name_H-M   'P 1'
_cell_length_a   9.26448321
_cell_length_b   9.26448167
_cell_length_c   10.14717595
_cell_angle_alpha   89.82029384
_cell_angle_beta   89.81923300
_cell_angle_gamma   60.14965721
_symmetry_Int_Tables_number   1
_chemical_formula_structural   Al11BN12
_chemical_formula_sum   'Al33 B3 N36'
_cell_volume   755.38479870
_cell_formula_units_Z   3
loop_
 _symmetry_equiv_pos_site_id
 _symmetry_equiv_pos_as_xyz
  1  'x, y, z'
loop_
 _atom_site_type_symbol
 _atom_site_label
 _atom_site_symmetry_multiplicity
 _atom_site_fract_x
 _atom_site_fract_y
 _atom_site_fract_z
 _atom_site_occupancy
  Al  Al0  1  0.09930177  0.09527905  0.39566705  1
  Al  Al1  1  0.21815593  0.20069197  0.13652042  1
  Al  Al2  1  0.78003789  0.09658113  0.81383888  1
  Al  Al3  1  0.45569598  0.08314280  0.31437411  1
  Al  Al4  1  0.55727496  0.19769289  0.07205398  1
  Al  Al5  1  0.11022641  0.09614666  0.88706757  1
  Al  Al6  1  0.21504560  0.21021740  0.64211030  1
  Al  Al7  1  0.88646934  0.20301331  0.14493368  1
  Al  Al8  1  0.45366463  0.09206287  0.82502034  1
  Al  Al9  1  0.56864908  0.20417965  0.56326215  1
  Al  Al10  1  0.10737826  0.42392370  0.38803981  1
  Al  Al11  1  0.22425517  0.54079773  0.07976704  1
  Al  Al12  1  0.77960338  0.42677076  0.88706733  1
  Al  Al13  1  0.89367540  0.53158716  0.64211089  1
  Al  Al14  1  0.44833862  0.41790965  0.31995590  1
  Al  Al15  1  0.56076317  0.54479263  0.14089942  1
  Al  Al16  1  0.10970135  0.42624542  0.89180792  1
  Al  Al17  1  0.22614902  0.54269123  0.57255166  1
  Al  Al18  1  0.77873539  0.41584657  0.39566683  1
  Al  Al19  1  0.88414896  0.53469852  0.13652024  1
  Al  Al20  1  0.44379089  0.42469337  0.82053516  1
  Al  Al21  1  0.56454791  0.53812997  0.64116807  1
  Al  Al22  1  0.10136652  0.76488120  0.31995589  1
  Al  Al23  1  0.22824757  0.87730750  0.14089964  1
  Al  Al24  1  0.77551813  0.77021000  0.82502021  1
  Al  Al25  1  0.88763599  0.88519176  0.56326228  1
  Al  Al26  1  0.44012341  0.75666708  0.39197866  1
  Al  Al27  1  0.10814967  0.76033386  0.82053549  1
  Al  Al28  1  0.22158568  0.88109088  0.64116792  1
  Al  Al29  1  0.76659813  0.77224133  0.31437387  1
  Al  Al30  1  0.88114881  0.87381819  0.07205429  1
  Al  Al31  1  0.44438430  0.76092902  0.89561383  1
  Al  Al32  1  0.56031375  0.87685661  0.56937059  1
  B  B33  1  0.89268344  0.20922554  0.64665212  1
  B  B34  1  0.77393913  0.09048414  0.31175860  1
  B  B35  1  0.55868473  0.87522906  0.06302241  1
  N  N36  1  0.21780618  0.20355934  0.32802579  1
  N  N37  1  0.10350517  0.09439954  0.07464645  1
  N  N38  1  0.89688917  0.21343165  0.80982823  1
  N  N39  1  0.79051021  0.10705447  0.62698276  1
  N  N40  1  0.58061006  0.18969167  0.37182264  1
  N  N41  1  0.45713741  0.06547224  0.12162668  1
  N  N42  1  0.22104776  0.20857079  0.83157415  1
  N  N43  1  0.08666706  0.10848531  0.58619175  1
  N  N44  1  0.87695050  0.19349347  0.33166984  1
  N  N45  1  0.76969697  0.08624191  0.14946621  1
  N  N46  1  0.56306846  0.20574836  0.88473573  1
  N  N47  1  0.45368268  0.09387980  0.63256478  1
  N  N48  1  0.22469689  0.54124138  0.37567867  1
  N  N49  1  0.10724376  0.42378539  0.08098614  1
  N  N50  1  0.89202774  0.53759290  0.83157478  1
  N  N51  1  0.79194366  0.40320934  0.58619172  1
  N  N52  1  0.56096340  0.53900053  0.33151642  1
  N  N53  1  0.44511529  0.42116432  0.13080970  1
  N  N54  1  0.22566029  0.54220476  0.87869309  1
  N  N55  1  0.10920632  0.42574702  0.57740187  1
  N  N56  1  0.88701529  0.53435177  0.32802607  1
  N  N57  1  0.77785721  0.42004728  0.07464616  1
  N  N58  1  0.55951296  0.54428952  0.83000429  1
  N  N59  1  0.44645367  0.42224926  0.62798794  1
  N  N60  1  0.22245819  0.87750513  0.33151671  1
  N  N61  1  0.10461922  0.76165967  0.13080954  1
  N  N62  1  0.88920318  0.87961391  0.88473605  1
  N  N63  1  0.77733586  0.77022460  0.63256437  1
  N  N64  1  0.55672462  0.87327108  0.38408509  1
  N  N65  1  0.45326082  0.76980433  0.08408877  1
  N  N66  1  0.22774668  0.87605488  0.83000407  1
  N  N67  1  0.10570397  0.76299773  0.62798823  1
  N  N68  1  0.87314671  0.89715486  0.37182252  1
  N  N69  1  0.74892845  0.77368000  0.12162611  1
  N  N70  1  0.56220304  0.87874893  0.90075899  1
  N  N71  1  0.44225831  0.75880080  0.58125551  1
