# generated using pymatgen
data_Al11BN12
_symmetry_space_group_name_H-M   'P 1'
_cell_length_a   9.27068311
_cell_length_b   9.27068369
_cell_length_c   10.04647906
_cell_angle_alpha   89.52610504
_cell_angle_beta   89.52611786
_cell_angle_gamma   59.99393338
_symmetry_Int_Tables_number   1
_chemical_formula_structural   Al11BN12
_chemical_formula_sum   'Al33 B3 N36'
_cell_volume   747.69014694
_cell_formula_units_Z   3
loop_
 _symmetry_equiv_pos_site_id
 _symmetry_equiv_pos_as_xyz
  1  'x, y, z'
loop_
 _atom_site_type_symbol
 _atom_site_label
 _atom_site_symmetry_multiplicity
 _atom_site_fract_x
 _atom_site_fract_y
 _atom_site_fract_z
 _atom_site_occupancy
  Al  Al0  1  0.09866754  0.09608448  0.40353932  1
  Al  Al1  1  0.22257027  0.19982093  0.14776114  1
  Al  Al2  1  0.77749638  0.09409185  0.82418403  1
  Al  Al3  1  0.44789241  0.08895198  0.38316068  1
  Al  Al4  1  0.56022972  0.19792156  0.09076977  1
  Al  Al5  1  0.11006379  0.09642347  0.89272251  1
  Al  Al6  1  0.22081874  0.20596351  0.64610871  1
  Al  Al7  1  0.88932886  0.20592573  0.15204526  1
  Al  Al8  1  0.44553828  0.08667170  0.90066477  1
  Al  Al9  1  0.57212682  0.20053333  0.57105691  1
  Al  Al10  1  0.10994579  0.42654032  0.39822319  1
  Al  Al11  1  0.22147435  0.53807159  0.14943366  1
  Al  Al12  1  0.77982915  0.42665859  0.89272234  1
  Al  Al13  1  0.88936758  0.53741435  0.64610872  1
  Al  Al14  1  0.44743503  0.42999172  0.38972556  1
  Al  Al15  1  0.55881236  0.54311684  0.14804570  1
  Al  Al16  1  0.11200981  0.42860397  0.89616042  1
  Al  Al17  1  0.22287666  0.53947256  0.64547928  1
  Al  Al18  1  0.77948856  0.41526387  0.40353934  1
  Al  Al19  1  0.88322599  0.53916551  0.14776088  1
  Al  Al20  1  0.44337184  0.43322231  0.89975077  1
  Al  Al21  1  0.55869380  0.53442154  0.64708187  1
  Al  Al22  1  0.11339400  0.76403185  0.38972574  1
  Al  Al23  1  0.22652013  0.87540878  0.14804581  1
  Al  Al24  1  0.77007703  0.76213339  0.90066435  1
  Al  Al25  1  0.88393600  0.88872279  0.57105732  1
  Al  Al26  1  0.44643799  0.76303488  0.39278189  1
  Al  Al27  1  0.11662830  0.75996606  0.89975104  1
  Al  Al28  1  0.21782453  0.87529048  0.64708176  1
  Al  Al29  1  0.77235690  0.76448712  0.38316034  1
  Al  Al30  1  0.88132368  0.87682742  0.09076880  1
  Al  Al31  1  0.44732059  0.76391574  0.89988344  1
  Al  Al32  1  0.55622043  0.87281604  0.64343322  1
  B  B33  1  0.89342057  0.21001639  0.65620713  1
  B  B34  1  0.77514900  0.09174559  0.31804336  1
  B  B35  1  0.55365541  0.87025109  0.14982022  1
  N  N36  1  0.21782646  0.20430999  0.33763441  1
  N  N37  1  0.10626515  0.09566701  0.08259925  1
  N  N38  1  0.89571202  0.21230693  0.81891757  1
  N  N39  1  0.78882897  0.10542511  0.63692718  1
  N  N40  1  0.58495559  0.19172938  0.37418792  1
  N  N41  1  0.45229655  0.06604999  0.09628796  1
  N  N42  1  0.22658590  0.20545634  0.83666059  1
  N  N43  1  0.08582963  0.10783148  0.59609343  1
  N  N44  1  0.87878520  0.19538152  0.33970504  1
  N  N45  1  0.77285519  0.08945220  0.15784468  1
  N  N46  1  0.56320186  0.20171234  0.89373805  1
  N  N47  1  0.44326489  0.09187758  0.57820753  1
  N  N48  1  0.22133703  0.53793360  0.33703021  1
  N  N49  1  0.11065662  0.42725160  0.08668759  1
  N  N50  1  0.88886189  0.54318079  0.83666065  1
  N  N51  1  0.79123520  0.40242578  0.59609356  1
  N  N52  1  0.55986198  0.53988288  0.33699215  1
  N  N53  1  0.44274171  0.43443166  0.09295711  1
  N  N54  1  0.22354796  0.54014241  0.83591046  1
  N  N55  1  0.11165724  0.42825296  0.58714522  1
  N  N56  1  0.88771527  0.53442136  0.33763420  1
  N  N57  1  0.77907083  0.42286157  0.08259913  1
  N  N58  1  0.55544087  0.54168342  0.83737678  1
  N  N59  1  0.44365269  0.43110876  0.58316558  1
  N  N60  1  0.22328607  0.87645801  0.33699219  1
  N  N61  1  0.11783430  0.75933871  0.09295725  1
  N  N62  1  0.88511780  0.87979680  0.89373725  1
  N  N63  1  0.77528167  0.75985995  0.57820732  1
  N  N64  1  0.55458388  0.87117926  0.31251917  1
  N  N65  1  0.45646460  0.77306101  0.09291512  1
  N  N66  1  0.22508850  0.87203562  0.83737666  1
  N  N67  1  0.11451174  0.76024900  0.58316588  1
  N  N68  1  0.87513214  0.90155226  0.37418823  1
  N  N69  1  0.74945434  0.76889223  0.09628777  1
  N  N70  1  0.55623620  0.87283107  0.83091972  1
  N  N71  1  0.44511597  0.76171271  0.58363246  1
