# generated using pymatgen
data_Al11BN12
_symmetry_space_group_name_H-M   'P 1'
_cell_length_a   9.25267203
_cell_length_b   9.25480039
_cell_length_c   9.94439393
_cell_angle_alpha   89.79577620
_cell_angle_beta   89.72200010
_cell_angle_gamma   59.98227980
_symmetry_Int_Tables_number   1
_chemical_formula_structural   Al11BN12
_chemical_formula_sum   'Al33 B3 N36'
_cell_volume   737.32696017
_cell_formula_units_Z   3
loop_
 _symmetry_equiv_pos_site_id
 _symmetry_equiv_pos_as_xyz
  1  'x, y, z'
loop_
 _atom_site_type_symbol
 _atom_site_label
 _atom_site_symmetry_multiplicity
 _atom_site_fract_x
 _atom_site_fract_y
 _atom_site_fract_z
 _atom_site_occupancy
  Al  Al0  1  0.09982711  0.09468343  0.40486753  1
  Al  Al1  1  0.22471955  0.20020450  0.14997295  1
  Al  Al2  1  0.77967147  0.09594624  0.88289290  1
  Al  Al3  1  0.45106331  0.08998815  0.39193055  1
  Al  Al4  1  0.56247091  0.19819052  0.14281266  1
  Al  Al5  1  0.10936788  0.09635928  0.89408781  1
  Al  Al6  1  0.21978850  0.20560963  0.64809974  1
  Al  Al7  1  0.88679795  0.20339808  0.14531454  1
  Al  Al8  1  0.44682505  0.08996156  0.90233404  1
  Al  Al9  1  0.56326143  0.20515352  0.64701289  1
  Al  Al10  1  0.11035751  0.42709298  0.40047910  1
  Al  Al11  1  0.22208658  0.53870789  0.15033623  1
  Al  Al12  1  0.77966353  0.42608029  0.89392847  1
  Al  Al13  1  0.88904700  0.53636860  0.64843270  1
  Al  Al14  1  0.45083584  0.42333292  0.39816526  1
  Al  Al15  1  0.55879868  0.54222401  0.14932532  1
  Al  Al16  1  0.11145870  0.42807304  0.89870963  1
  Al  Al17  1  0.22274517  0.53930194  0.64831630  1
  Al  Al18  1  0.77795489  0.41670365  0.40482222  1
  Al  Al19  1  0.88372719  0.54116811  0.14996120  1
  Al  Al20  1  0.44410992  0.42825144  0.89922105  1
  Al  Al21  1  0.55925278  0.53502797  0.64895175  1
  Al  Al22  1  0.10660874  0.76755538  0.39847411  1
  Al  Al23  1  0.22552343  0.87537414  0.14942282  1
  Al  Al24  1  0.77335730  0.76373916  0.90293809  1
  Al  Al25  1  0.88879884  0.87940651  0.64723801  1
  Al  Al26  1  0.44561191  0.76255105  0.39377341  1
  Al  Al27  1  0.11104497  0.76101131  0.89991499  1
  Al  Al28  1  0.21839354  0.87572816  0.64927732  1
  Al  Al29  1  0.77305626  0.76764751  0.39229104  1
  Al  Al30  1  0.88134038  0.87920464  0.14472576  1
  Al  Al31  1  0.44725191  0.76392645  0.90256762  1
  Al  Al32  1  0.55659270  0.87308005  0.64725266  1
  B  B33  1  0.88754739  0.20366934  0.65471930  1
  B  B34  1  0.77793453  0.09529944  0.36696752  1
  B  B35  1  0.55570458  0.87209341  0.15291213  1
  N  N36  1  0.21998801  0.20334852  0.34156834  1
  N  N37  1  0.10883239  0.09613169  0.08660043  1
  N  N38  1  0.89174040  0.20827810  0.82059663  1
  N  N39  1  0.79263355  0.10871720  0.61057254  1
  N  N40  1  0.58507121  0.19079936  0.33991067  1
  N  N41  1  0.45702053  0.07012819  0.09792188  1
  N  N42  1  0.22517799  0.20480157  0.84009953  1
  N  N43  1  0.08731338  0.10673214  0.59713540  1
  N  N44  1  0.87365567  0.19051225  0.33863177  1
  N  N45  1  0.77978065  0.09549120  0.07575012  1
  N  N46  1  0.55131790  0.20673862  0.84051878  1
  N  N47  1  0.44686647  0.09434970  0.58355316  1
  N  N48  1  0.22224592  0.53897217  0.34065156  1
  N  N49  1  0.11102615  0.42732263  0.09062103  1
  N  N50  1  0.88816107  0.54199261  0.84046071  1
  N  N51  1  0.79043642  0.40375891  0.59707470  1
  N  N52  1  0.55815158  0.53790296  0.33991295  1
  N  N53  1  0.44566150  0.42760879  0.09166016  1
  N  N54  1  0.22265697  0.53964375  0.83962186  1
  N  N55  1  0.11160521  0.42811073  0.59021182  1
  N  N56  1  0.88670474  0.53667195  0.34153636  1
  N  N57  1  0.77968266  0.42523221  0.08645846  1
  N  N58  1  0.55457272  0.54129389  0.84083556  1
  N  N59  1  0.44523231  0.42758477  0.58785498  1
  N  N60  1  0.22106330  0.87485629  0.33997776  1
  N  N61  1  0.11049574  0.76233779  0.09236970  1
  N  N62  1  0.89012963  0.86777775  0.84029259  1
  N  N63  1  0.77801187  0.76309551  0.58372239  1
  N  N64  1  0.55521991  0.87199013  0.31730286  1
  N  N65  1  0.45735695  0.77381100  0.09697190  1
  N  N66  1  0.22446465  0.87111448  0.84124517  1
  N  N67  1  0.11128353  0.76154211  0.58798011  1
  N  N68  1  0.87373012  0.90205436  0.34078153  1
  N  N69  1  0.75372279  0.77361296  0.09849359  1
  N  N70  1  0.55620504  0.87256185  0.83596115  1
  N  N71  1  0.44553503  0.76215214  0.58590019  1
