# generated using pymatgen
data_Al11BN12
_symmetry_space_group_name_H-M   'P 1'
_cell_length_a   9.28892897
_cell_length_b   9.28950895
_cell_length_c   10.06581913
_cell_angle_alpha   89.52366425
_cell_angle_beta   89.62185543
_cell_angle_gamma   60.07000996
_symmetry_Int_Tables_number   1
_chemical_formula_structural   Al11BN12
_chemical_formula_sum   'Al33 B3 N36'
_cell_volume   752.70942601
_cell_formula_units_Z   3
loop_
 _symmetry_equiv_pos_site_id
 _symmetry_equiv_pos_as_xyz
  1  'x, y, z'
loop_
 _atom_site_type_symbol
 _atom_site_label
 _atom_site_symmetry_multiplicity
 _atom_site_fract_x
 _atom_site_fract_y
 _atom_site_fract_z
 _atom_site_occupancy
  Al  Al0  1  0.09772585  0.09626979  0.39543514  1
  Al  Al1  1  0.22353325  0.19894537  0.14040555  1
  Al  Al2  1  0.77774570  0.09451789  0.81371984  1
  Al  Al3  1  0.44547837  0.08979704  0.37785518  1
  Al  Al4  1  0.56044819  0.20099646  0.07791574  1
  Al  Al5  1  0.11063567  0.09600992  0.88500073  1
  Al  Al6  1  0.22196495  0.20571778  0.63844591  1
  Al  Al7  1  0.88888704  0.20498401  0.14329222  1
  Al  Al8  1  0.44573014  0.08566946  0.89343564  1
  Al  Al9  1  0.57236143  0.20651877  0.55963314  1
  Al  Al10  1  0.10861390  0.42636241  0.39001660  1
  Al  Al11  1  0.21845040  0.53562161  0.13524740  1
  Al  Al12  1  0.78012852  0.42572652  0.88489883  1
  Al  Al13  1  0.89019076  0.53685066  0.63677586  1
  Al  Al14  1  0.45279895  0.41817430  0.32132919  1
  Al  Al15  1  0.56177296  0.54552311  0.13823543  1
  Al  Al16  1  0.11260212  0.42606579  0.88935289  1
  Al  Al17  1  0.22016718  0.53622553  0.63174917  1
  Al  Al18  1  0.77886887  0.41538976  0.39520211  1
  Al  Al19  1  0.88332996  0.53861166  0.13841715  1
  Al  Al20  1  0.44982058  0.41947036  0.82336012  1
  Al  Al21  1  0.56370323  0.53902313  0.63750527  1
  Al  Al22  1  0.10049337  0.77009225  0.32098965  1
  Al  Al23  1  0.22793707  0.87834492  0.13784804  1
  Al  Al24  1  0.77279748  0.76110726  0.88297339  1
  Al  Al25  1  0.88919373  0.88610302  0.55952876  1
  Al  Al26  1  0.44411151  0.76245218  0.38518843  1
  Al  Al27  1  0.10469610  0.76534483  0.82291914  1
  Al  Al28  1  0.22228097  0.88016238  0.63738172  1
  Al  Al29  1  0.77120001  0.76604095  0.36405147  1
  Al  Al30  1  0.88273462  0.87664937  0.07640559  1
  Al  Al31  1  0.44749820  0.76293860  0.89269607  1
  Al  Al32  1  0.55819230  0.87500413  0.63419211  1
  B  B33  1  0.89356293  0.20896991  0.64710636  1
  B  B34  1  0.77491946  0.09232623  0.30906570  1
  B  B35  1  0.55288595  0.87320774  0.14222449  1
  N  N36  1  0.21691810  0.20466387  0.32944315  1
  N  N37  1  0.10567132  0.09686921  0.07429142  1
  N  N38  1  0.89621768  0.21168201  0.81030642  1
  N  N39  1  0.79029820  0.10498039  0.62666634  1
  N  N40  1  0.58526332  0.19166610  0.36806721  1
  N  N41  1  0.45266900  0.06688966  0.08729907  1
  N  N42  1  0.22767574  0.20441681  0.82860527  1
  N  N43  1  0.08615063  0.10923912  0.58696942  1
  N  N44  1  0.87769540  0.19531691  0.33075723  1
  N  N45  1  0.77222161  0.08837073  0.14847741  1
  N  N46  1  0.56393572  0.20302622  0.88682319  1
  N  N47  1  0.44367781  0.09417847  0.57024221  1
  N  N48  1  0.21921036  0.53660718  0.33523891  1
  N  N49  1  0.10949521  0.42465090  0.07830081  1
  N  N50  1  0.89082635  0.54015416  0.82780860  1
  N  N51  1  0.79265517  0.40197010  0.58657799  1
  N  N52  1  0.56111309  0.54105564  0.33137309  1
  N  N53  1  0.44806518  0.42412154  0.12563616  1
  N  N54  1  0.22070377  0.53630604  0.83242209  1
  N  N55  1  0.11080828  0.42590136  0.57762742  1
  N  N56  1  0.88718179  0.53407485  0.32826066  1
  N  N57  1  0.77988082  0.42184012  0.07396506  1
  N  N58  1  0.55854351  0.54382551  0.83042733  1
  N  N59  1  0.45071534  0.42059820  0.62364561  1
  N  N60  1  0.22255782  0.87873083  0.33118956  1
  N  N61  1  0.10613548  0.76515195  0.12499735  1
  N  N62  1  0.88773033  0.87950149  0.88523749  1
  N  N63  1  0.77778330  0.76031408  0.57357236  1
  N  N64  1  0.54980176  0.87431929  0.30459033  1
  N  N65  1  0.45631897  0.77373459  0.08465518  1
  N  N66  1  0.22806018  0.87448195  0.83051610  1
  N  N67  1  0.10472801  0.76661128  0.62300200  1
  N  N68  1  0.87400891  0.90266097  0.36758669  1
  N  N69  1  0.75049037  0.77020195  0.09262083  1
  N  N70  1  0.55605410  0.87341488  0.82237647  1
  N  N71  1  0.44614937  0.76330234  0.57454157  1
