# generated using pymatgen
data_Al11BN12
_symmetry_space_group_name_H-M   'P 1'
_cell_length_a   9.27218499
_cell_length_b   9.28046391
_cell_length_c   10.13666622
_cell_angle_alpha   89.71690727
_cell_angle_beta   89.77547843
_cell_angle_gamma   60.12235839
_symmetry_Int_Tables_number   1
_chemical_formula_structural   Al11BN12
_chemical_formula_sum   'Al33 B3 N36'
_cell_volume   756.32035281
_cell_formula_units_Z   3
loop_
 _symmetry_equiv_pos_site_id
 _symmetry_equiv_pos_as_xyz
  1  'x, y, z'
loop_
 _atom_site_type_symbol
 _atom_site_label
 _atom_site_symmetry_multiplicity
 _atom_site_fract_x
 _atom_site_fract_y
 _atom_site_fract_z
 _atom_site_occupancy
  Al  Al0  1  0.10106610  0.09297005  0.39431258  1
  Al  Al1  1  0.21789411  0.20158718  0.13491872  1
  Al  Al2  1  0.77865458  0.09661835  0.81195663  1
  Al  Al3  1  0.45591469  0.08572761  0.31304444  1
  Al  Al4  1  0.55705265  0.19796566  0.07083036  1
  Al  Al5  1  0.10841486  0.09703661  0.88636463  1
  Al  Al6  1  0.21457322  0.21019390  0.63927759  1
  Al  Al7  1  0.88751536  0.20229085  0.14334837  1
  Al  Al8  1  0.45269975  0.09436648  0.82314280  1
  Al  Al9  1  0.56799659  0.20386362  0.56173089  1
  Al  Al10  1  0.10838933  0.42338921  0.38579486  1
  Al  Al11  1  0.22465613  0.54194186  0.06917334  1
  Al  Al12  1  0.78449701  0.42333800  0.88223664  1
  Al  Al13  1  0.89209402  0.53230939  0.63907831  1
  Al  Al14  1  0.45158555  0.42225701  0.31656945  1
  Al  Al15  1  0.55354441  0.54043936  0.06862168  1
  Al  Al16  1  0.10844235  0.42536511  0.88937920  1
  Al  Al17  1  0.22547697  0.54325265  0.56621492  1
  Al  Al18  1  0.78757843  0.41032606  0.39296640  1
  Al  Al19  1  0.88322182  0.53527908  0.13499293  1
  Al  Al20  1  0.44479829  0.42762673  0.81656215  1
  Al  Al21  1  0.55735805  0.53399781  0.57748776  1
  Al  Al22  1  0.10284511  0.76223253  0.31606265  1
  Al  Al23  1  0.22832185  0.87677867  0.13586810  1
  Al  Al24  1  0.77420760  0.77118694  0.82199253  1
  Al  Al25  1  0.88845547  0.88478501  0.56146094  1
  Al  Al26  1  0.44358253  0.76064348  0.36950177  1
  Al  Al27  1  0.10612248  0.75883639  0.81848509  1
  Al  Al28  1  0.22026570  0.88105001  0.64081416  1
  Al  Al29  1  0.76800884  0.77277980  0.31271862  1
  Al  Al30  1  0.88091039  0.87374271  0.07017090  1
  Al  Al31  1  0.44219529  0.76841391  0.87497872  1
  Al  Al32  1  0.55907224  0.87681185  0.56979810  1
  B  B33  1  0.89271232  0.20925526  0.64484222  1
  B  B34  1  0.77440680  0.09031184  0.30977175  1
  B  B35  1  0.55689805  0.87408100  0.06350779  1
  N  N36  1  0.21790448  0.20308438  0.32688051  1
  N  N37  1  0.10414612  0.09468763  0.07338431  1
  N  N38  1  0.89654674  0.21201946  0.80757342  1
  N  N39  1  0.79008849  0.10669799  0.62488011  1
  N  N40  1  0.58057152  0.19119519  0.36916028  1
  N  N41  1  0.45682400  0.06716372  0.12055177  1
  N  N42  1  0.21990030  0.20819017  0.82911827  1
  N  N43  1  0.08733652  0.10705619  0.58436953  1
  N  N44  1  0.87896496  0.19134448  0.32959613  1
  N  N45  1  0.77001481  0.08639442  0.14742865  1
  N  N46  1  0.56147286  0.20730336  0.88292161  1
  N  N47  1  0.45325441  0.09541569  0.63031649  1
  N  N48  1  0.22652453  0.54061454  0.37578777  1
  N  N49  1  0.10753980  0.42454097  0.07893734  1
  N  N50  1  0.89070872  0.53864653  0.82824790  1
  N  N51  1  0.79625419  0.39910802  0.58608766  1
  N  N52  1  0.55690142  0.53332303  0.38152181  1
  N  N53  1  0.44554203  0.42533277  0.12963781  1
  N  N54  1  0.22568466  0.54151543  0.87901092  1
  N  N55  1  0.10880078  0.42612863  0.57531445  1
  N  N56  1  0.88709200  0.53475105  0.32626391  1
  N  N57  1  0.78487083  0.41599615  0.07322974  1
  N  N58  1  0.55252728  0.53945939  0.87418028  1
  N  N59  1  0.44504822  0.42362879  0.62887557  1
  N  N60  1  0.22168050  0.87665042  0.32838352  1
  N  N61  1  0.10574035  0.76008499  0.12727541  1
  N  N62  1  0.88753384  0.87938576  0.88265551  1
  N  N63  1  0.77790659  0.77089729  0.62953486  1
  N  N64  1  0.55746525  0.87461201  0.38307755  1
  N  N65  1  0.45577479  0.77332302  0.09049383  1
  N  N66  1  0.22031610  0.87815894  0.83075433  1
  N  N67  1  0.10649694  0.76098912  0.62673305  1
  N  N68  1  0.87479072  0.89642325  0.36954585  1
  N  N69  1  0.74928019  0.77421688  0.12026382  1
  N  N70  1  0.56064087  0.88003679  0.89845032  1
  N  N71  1  0.44517966  0.76304338  0.60052279  1
