# generated using pymatgen
data_Al11BN12
_symmetry_space_group_name_H-M   'P 1'
_cell_length_a   9.28035693
_cell_length_b   9.28734987
_cell_length_c   10.02252552
_cell_angle_alpha   89.53070630
_cell_angle_beta   89.45238558
_cell_angle_gamma   59.97825610
_symmetry_Int_Tables_number   1
_chemical_formula_structural   Al11BN12
_chemical_formula_sum   'Al33 B3 N36'
_cell_volume   747.90405507
_cell_formula_units_Z   3
loop_
 _symmetry_equiv_pos_site_id
 _symmetry_equiv_pos_as_xyz
  1  'x, y, z'
loop_
 _atom_site_type_symbol
 _atom_site_label
 _atom_site_symmetry_multiplicity
 _atom_site_fract_x
 _atom_site_fract_y
 _atom_site_fract_z
 _atom_site_occupancy
  Al  Al0  1  0.09779060  0.09647909  0.39451280  1
  Al  Al1  1  0.22223293  0.19981518  0.13867831  1
  Al  Al2  1  0.77719390  0.09438476  0.81398572  1
  Al  Al3  1  0.44735930  0.08903505  0.37354032  1
  Al  Al4  1  0.55977435  0.19789884  0.08153223  1
  Al  Al5  1  0.10994114  0.09677418  0.88332631  1
  Al  Al6  1  0.22135463  0.20545965  0.63646199  1
  Al  Al7  1  0.88874593  0.20643207  0.14223703  1
  Al  Al8  1  0.44572668  0.08629750  0.89109666  1
  Al  Al9  1  0.57338430  0.19946733  0.56119259  1
  Al  Al10  1  0.10942447  0.42602238  0.38914099  1
  Al  Al11  1  0.22214044  0.53535956  0.13846536  1
  Al  Al12  1  0.77994363  0.42663304  0.88304844  1
  Al  Al13  1  0.88973458  0.53776286  0.63633089  1
  Al  Al14  1  0.44680180  0.43046250  0.38089565  1
  Al  Al15  1  0.55856819  0.54316366  0.13866230  1
  Al  Al16  1  0.11211388  0.42708569  0.88678378  1
  Al  Al17  1  0.22387599  0.53785325  0.63462764  1
  Al  Al18  1  0.77899003  0.41553050  0.39407998  1
  Al  Al19  1  0.88276277  0.53967623  0.13824830  1
  Al  Al20  1  0.44444517  0.43235966  0.89038004  1
  Al  Al21  1  0.55903643  0.53425745  0.63746750  1
  Al  Al22  1  0.10712051  0.76690223  0.35349965  1
  Al  Al23  1  0.22759151  0.87710243  0.13700248  1
  Al  Al24  1  0.77012531  0.76175060  0.89161008  1
  Al  Al25  1  0.88891705  0.88686698  0.55976491  1
  Al  Al26  1  0.44587974  0.76301707  0.38370211  1
  Al  Al27  1  0.11364064  0.76065507  0.87257549  1
  Al  Al28  1  0.21927699  0.87560434  0.63630621  1
  Al  Al29  1  0.77120096  0.76440311  0.37449157  1
  Al  Al30  1  0.88166651  0.87731517  0.08067598  1
  Al  Al31  1  0.44838837  0.76339363  0.89053150  1
  Al  Al32  1  0.55773886  0.87260713  0.63372719  1
  B  B33  1  0.89372602  0.20967064  0.64657992  1
  B  B34  1  0.77300159  0.09352105  0.30764726  1
  B  B35  1  0.55413741  0.87014059  0.14069521  1
  N  N36  1  0.21725046  0.20420658  0.32861134  1
  N  N37  1  0.10576289  0.09669620  0.07305594  1
  N  N38  1  0.89563318  0.21203473  0.80974183  1
  N  N39  1  0.78988600  0.10485026  0.62647260  1
  N  N40  1  0.58395665  0.19228032  0.36381575  1
  N  N41  1  0.45203047  0.06608078  0.08716057  1
  N  N42  1  0.22697461  0.20463315  0.82723834  1
  N  N43  1  0.08614269  0.10814691  0.58679341  1
  N  N44  1  0.87792307  0.19566848  0.33027514  1
  N  N45  1  0.77220556  0.09037504  0.14745221  1
  N  N46  1  0.56340616  0.20106767  0.88408812  1
  N  N47  1  0.44396212  0.09152971  0.56881967  1
  N  N48  1  0.22198351  0.53501436  0.32755579  1
  N  N49  1  0.11020062  0.42632062  0.07714601  1
  N  N50  1  0.88915946  0.54312574  0.82742007  1
  N  N51  1  0.79162971  0.40248946  0.58682200  1
  N  N52  1  0.55921675  0.54009960  0.32781724  1
  N  N53  1  0.44309598  0.43424358  0.08329225  1
  N  N54  1  0.22537324  0.53628684  0.82724511  1
  N  N55  1  0.11205012  0.42716664  0.57791915  1
  N  N56  1  0.88727570  0.53471578  0.32836978  1
  N  N57  1  0.77882660  0.42332690  0.07329690  1
  N  N58  1  0.55561940  0.54149986  0.82808520  1
  N  N59  1  0.44506977  0.42987390  0.57404783  1
  N  N60  1  0.22371480  0.87826952  0.32763079  1
  N  N61  1  0.11367703  0.76134750  0.09845355  1
  N  N62  1  0.88515688  0.88004671  0.88497924  1
  N  N63  1  0.77660502  0.76004961  0.56857927  1
  N  N64  1  0.55420355  0.87112074  0.30334943  1
  N  N65  1  0.45722036  0.77272094  0.08340343  1
  N  N66  1  0.22669253  0.87280693  0.82889306  1
  N  N67  1  0.11326161  0.76067502  0.58611338  1
  N  N68  1  0.87280611  0.90279304  0.36365547  1
  N  N69  1  0.74942050  0.76943575  0.08690974  1
  N  N70  1  0.55701021  0.87251214  0.82159655  1
  N  N71  1  0.44671862  0.76137612  0.57441111  1
