# generated using pymatgen
data_Al11BN12
_symmetry_space_group_name_H-M   'P 1'
_cell_length_a   9.25681510
_cell_length_b   9.25681466
_cell_length_c   9.88994683
_cell_angle_alpha   90.08194609
_cell_angle_beta   90.08192639
_cell_angle_gamma   60.01883344
_symmetry_Int_Tables_number   1
_chemical_formula_structural   Al11BN12
_chemical_formula_sum   'Al33 B3 N36'
_cell_volume   734.05659010
_cell_formula_units_Z   3
loop_
 _symmetry_equiv_pos_site_id
 _symmetry_equiv_pos_as_xyz
  1  'x, y, z'
loop_
 _atom_site_type_symbol
 _atom_site_label
 _atom_site_symmetry_multiplicity
 _atom_site_fract_x
 _atom_site_fract_y
 _atom_site_fract_z
 _atom_site_occupancy
  Al  Al0  1  0.10193996  0.09579883  0.40675276  1
  Al  Al1  1  0.22474229  0.20015767  0.15234278  1
  Al  Al2  1  0.77847713  0.09509944  0.89388457  1
  Al  Al3  1  0.45089283  0.09096611  0.39615470  1
  Al  Al4  1  0.56406649  0.19772675  0.15677493  1
  Al  Al5  1  0.10700457  0.09621338  0.89555222  1
  Al  Al6  1  0.21933649  0.20603367  0.65188994  1
  Al  Al7  1  0.88631411  0.20293570  0.15438386  1
  Al  Al8  1  0.44800146  0.09033564  0.90618458  1
  Al  Al9  1  0.56146019  0.20471908  0.64499306  1
  Al  Al10  1  0.11097723  0.42759813  0.40275276  1
  Al  Al11  1  0.22228716  0.53890961  0.15311092  1
  Al  Al12  1  0.77959093  0.42362728  0.89555212  1
  Al  Al13  1  0.88940994  0.53596001  0.65189001  1
  Al  Al14  1  0.45011645  0.42460796  0.40224986  1
  Al  Al15  1  0.55911754  0.54151482  0.15201748  1
  Al  Al16  1  0.11121765  0.42783939  0.90277142  1
  Al  Al17  1  0.22270630  0.53932929  0.65263207  1
  Al  Al18  1  0.77917712  0.41856147  0.40675296  1
  Al  Al19  1  0.88353661  0.54136288  0.15234273  1
  Al  Al20  1  0.44549754  0.42595202  0.90237282  1
  Al  Al21  1  0.55870075  0.53557327  0.65250577  1
  Al  Al22  1  0.10798529  0.76673826  0.40224984  1
  Al  Al23  1  0.22489266  0.87573982  0.15201749  1
  Al  Al24  1  0.77371307  0.76462372  0.90618475  1
  Al  Al25  1  0.88809597  0.87808283  0.64499284  1
  Al  Al26  1  0.44633805  0.76296111  0.39632355  1
  Al  Al27  1  0.10932894  0.76212065  0.90237279  1
  Al  Al28  1  0.21894883  0.87532513  0.65250564  1
  Al  Al29  1  0.77434441  0.76751363  0.39615442  1
  Al  Al30  1  0.88110395  0.88068851  0.15677500  1
  Al  Al31  1  0.44731943  0.76394262  0.90653021  1
  Al  Al32  1  0.55592533  0.87254831  0.65155776  1
  B  B33  1  0.88931161  0.20593494  0.64960797  1
  B  B34  1  0.78246046  0.09908276  0.40770696  1
  B  B35  1  0.55614063  0.87276243  0.15715417  1
  N  N36  1  0.22078928  0.20380487  0.34460179  1
  N  N37  1  0.10660221  0.09688937  0.08930016  1
  N  N38  1  0.88735173  0.20397445  0.81682923  1
  N  N39  1  0.78995607  0.10657887  0.57973061  1
  N  N40  1  0.58318198  0.19306013  0.35206243  1
  N  N41  1  0.45785726  0.07118601  0.10274386  1
  N  N42  1  0.22452914  0.20442696  0.84456777  1
  N  N43  1  0.08650579  0.10718234  0.60002948  1
  N  N44  1  0.87631203  0.19293374  0.34683755  1
  N  N45  1  0.77872966  0.09535164  0.08434075  1
  N  N46  1  0.55512755  0.20422154  0.83896966  1
  N  N47  1  0.44463737  0.09307351  0.58824503  1
  N  N48  1  0.22273133  0.53935320  0.34419386  1
  N  N49  1  0.11070229  0.42732355  0.09454808  1
  N  N50  1  0.88780482  0.54115149  0.84456795  1
  N  N51  1  0.79055855  0.40312925  0.60002975  1
  N  N52  1  0.55846958  0.53826692  0.34353336  1
  N  N53  1  0.44662497  0.42502055  0.09586840  1
  N  N54  1  0.22249084  0.53911379  0.84450869  1
  N  N55  1  0.11145917  0.42808258  0.59382096  1
  N  N56  1  0.88718382  0.53741009  0.34460175  1
  N  N57  1  0.78026721  0.42322395  0.08930015  1
  N  N58  1  0.55412036  0.54103273  0.84485513  1
  N  N59  1  0.44438514  0.42865229  0.59277218  1
  N  N60  1  0.22164427  0.87509154  0.34353320  1
  N  N61  1  0.10839789  0.76324751  0.09586842  1
  N  N62  1  0.88759864  0.87175006  0.83896949  1
  N  N63  1  0.77645031  0.76126019  0.58824476  1
  N  N64  1  0.55589008  0.87251197  0.32144070  1
  N  N65  1  0.45727372  0.77389601  0.10090306  1
  N  N66  1  0.22440963  0.87074323  0.84485491  1
  N  N67  1  0.11202914  0.76100816  0.59277215  1
  N  N68  1  0.87643756  0.89980387  0.35206244  1
  N  N69  1  0.75456411  0.77447853  0.10274404  1
  N  N70  1  0.55594622  0.87256873  0.84061926  1
  N  N71  1  0.44519774  0.76182183  0.58957086  1
