# generated using pymatgen
data_Al11BN12
_symmetry_space_group_name_H-M   'P 1'
_cell_length_a   9.28445668
_cell_length_b   9.26876330
_cell_length_c   10.11380833
_cell_angle_alpha   89.64243440
_cell_angle_beta   89.57701723
_cell_angle_gamma   60.01208977
_symmetry_Int_Tables_number   1
_chemical_formula_structural   Al11BN12
_chemical_formula_sum   'Al33 B3 N36'
_cell_volume   753.81159381
_cell_formula_units_Z   3
loop_
 _symmetry_equiv_pos_site_id
 _symmetry_equiv_pos_as_xyz
  1  'x, y, z'
loop_
 _atom_site_type_symbol
 _atom_site_label
 _atom_site_symmetry_multiplicity
 _atom_site_fract_x
 _atom_site_fract_y
 _atom_site_fract_z
 _atom_site_occupancy
  Al  Al0  1  0.10290988  0.09109585  0.39364827  1
  Al  Al1  1  0.21855912  0.20127006  0.13610970  1
  Al  Al2  1  0.77819901  0.09623199  0.81259491  1
  Al  Al3  1  0.45653797  0.08616153  0.31520583  1
  Al  Al4  1  0.55677488  0.19889462  0.07210601  1
  Al  Al5  1  0.10878581  0.09565849  0.88666897  1
  Al  Al6  1  0.21566138  0.20933480  0.63987129  1
  Al  Al7  1  0.88603868  0.20448405  0.14391888  1
  Al  Al8  1  0.45267909  0.09111146  0.82614630  1
  Al  Al9  1  0.56798943  0.20437839  0.56295218  1
  Al  Al10  1  0.10873600  0.42325491  0.38661732  1
  Al  Al11  1  0.22464024  0.54140684  0.06930190  1
  Al  Al12  1  0.78336162  0.42312293  0.88265250  1
  Al  Al13  1  0.89161000  0.53254073  0.63914851  1
  Al  Al14  1  0.45188730  0.42452760  0.31782469  1
  Al  Al15  1  0.55017479  0.54548869  0.06574569  1
  Al  Al16  1  0.10867413  0.42426564  0.88919696  1
  Al  Al17  1  0.22573827  0.54274599  0.56678164  1
  Al  Al18  1  0.78684412  0.41164960  0.39340565  1
  Al  Al19  1  0.88303613  0.53594194  0.13332402  1
  Al  Al20  1  0.44480635  0.42703736  0.81700353  1
  Al  Al21  1  0.55434271  0.53977112  0.57395364  1
  Al  Al22  1  0.10451094  0.76256072  0.31753215  1
  Al  Al23  1  0.22291144  0.87842737  0.13256708  1
  Al  Al24  1  0.77246222  0.77070378  0.82477202  1
  Al  Al25  1  0.88755122  0.88491921  0.56222571  1
  Al  Al26  1  0.45620989  0.75831995  0.31669696  1
  Al  Al27  1  0.10537982  0.75860311  0.81962961  1
  Al  Al28  1  0.21575128  0.88337309  0.63987919  1
  Al  Al29  1  0.77017787  0.77244921  0.31467811  1
  Al  Al30  1  0.88005410  0.87465015  0.07100223  1
  Al  Al31  1  0.45041711  0.76222364  0.82598243  1
  Al  Al32  1  0.55826254  0.87471931  0.56884475  1
  B  B33  1  0.89099159  0.21033076  0.64536813  1
  B  B34  1  0.77476757  0.09102148  0.31061618  1
  B  B35  1  0.55641744  0.87160244  0.06684217  1
  N  N36  1  0.21885250  0.20271154  0.32803011  1
  N  N37  1  0.10316140  0.09664684  0.07369454  1
  N  N38  1  0.89611237  0.21147956  0.80820859  1
  N  N39  1  0.78982348  0.10711938  0.62540462  1
  N  N40  1  0.58082681  0.19227489  0.37010049  1
  N  N41  1  0.45738177  0.06701398  0.12148065  1
  N  N42  1  0.22019631  0.20651300  0.82967027  1
  N  N43  1  0.08706883  0.10806780  0.58414380  1
  N  N44  1  0.87898663  0.19190039  0.33044984  1
  N  N45  1  0.76979575  0.08759397  0.14798584  1
  N  N46  1  0.56078052  0.20589556  0.88348584  1
  N  N47  1  0.45424369  0.09414985  0.63100196  1
  N  N48  1  0.22671182  0.54010410  0.37634919  1
  N  N49  1  0.10793057  0.42402099  0.07918675  1
  N  N50  1  0.89028836  0.53803473  0.82957924  1
  N  N51  1  0.79423797  0.40062774  0.58662519  1
  N  N52  1  0.55431868  0.54081173  0.38218443  1
  N  N53  1  0.44525021  0.42720304  0.13010974  1
  N  N54  1  0.22539383  0.54035375  0.87860125  1
  N  N55  1  0.10925441  0.42597947  0.57686341  1
  N  N56  1  0.88770686  0.53481964  0.32724326  1
  N  N57  1  0.78251336  0.41810150  0.07346733  1
  N  N58  1  0.55019179  0.54112228  0.87654809  1
  N  N59  1  0.44554083  0.42572586  0.62853703  1
  N  N60  1  0.22372993  0.87496850  0.32888512  1
  N  N61  1  0.10435361  0.76005396  0.12723345  1
  N  N62  1  0.88587617  0.87896937  0.88321125  1
  N  N63  1  0.77705219  0.77136293  0.63040231  1
  N  N64  1  0.55673581  0.87202092  0.38383708  1
  N  N65  1  0.46208343  0.77047712  0.12197337  1
  N  N66  1  0.21875796  0.87665481  0.83354041  1
  N  N67  1  0.10612531  0.76115587  0.62638706  1
  N  N68  1  0.87515608  0.89680823  0.37024266  1
  N  N69  1  0.74983638  0.77481615  0.12097551  1
  N  N70  1  0.55559470  0.87315475  0.90212049  1
  N  N71  1  0.45263721  0.76169688  0.63355834  1
