# generated using pymatgen
data_Al11BN12
_symmetry_space_group_name_H-M   'P 1'
_cell_length_a   9.27269672
_cell_length_b   9.27349613
_cell_length_c   9.94935696
_cell_angle_alpha   89.82942326
_cell_angle_beta   89.62851443
_cell_angle_gamma   60.00832238
_symmetry_Int_Tables_number   1
_chemical_formula_structural   Al11BN12
_chemical_formula_sum   'Al33 B3 N36'
_cell_volume   740.97313270
_cell_formula_units_Z   3
loop_
 _symmetry_equiv_pos_site_id
 _symmetry_equiv_pos_as_xyz
  1  'x, y, z'
loop_
 _atom_site_type_symbol
 _atom_site_label
 _atom_site_symmetry_multiplicity
 _atom_site_fract_x
 _atom_site_fract_y
 _atom_site_fract_z
 _atom_site_occupancy
  Al  Al0  1  0.09881332  0.09675655  0.33704722  1
  Al  Al1  1  0.23018350  0.20228251  0.06747641  1
  Al  Al2  1  0.78054732  0.09700181  0.81428246  1
  Al  Al3  1  0.45304549  0.08760158  0.30797381  1
  Al  Al4  1  0.55867444  0.19809418  0.06401243  1
  Al  Al5  1  0.10641172  0.09673650  0.87201568  1
  Al  Al6  1  0.21877301  0.20749516  0.56244932  1
  Al  Al7  1  0.88212905  0.20533168  0.08970239  1
  Al  Al8  1  0.44727207  0.09180842  0.81648756  1
  Al  Al9  1  0.56717591  0.20474021  0.55610050  1
  Al  Al10  1  0.11039540  0.42887466  0.31142081  1
  Al  Al11  1  0.22255520  0.53861207  0.06071746  1
  Al  Al12  1  0.78097957  0.42157410  0.81517691  1
  Al  Al13  1  0.89081556  0.53520321  0.56230248  1
  Al  Al14  1  0.45007186  0.42396019  0.31074700  1
  Al  Al15  1  0.55772256  0.54229687  0.05917567  1
  Al  Al16  1  0.11140402  0.42801306  0.81112789  1
  Al  Al17  1  0.22312175  0.53914227  0.56031666  1
  Al  Al18  1  0.77474886  0.42399539  0.31173342  1
  Al  Al19  1  0.88281720  0.54293240  0.06044621  1
  Al  Al20  1  0.44544981  0.42605657  0.81089864  1
  Al  Al21  1  0.55974466  0.53438396  0.56250433  1
  Al  Al22  1  0.10648408  0.76628012  0.31123154  1
  Al  Al23  1  0.23041805  0.86591166  0.06648257  1
  Al  Al24  1  0.77563017  0.76367283  0.81692509  1
  Al  Al25  1  0.88842999  0.88320801  0.55635353  1
  Al  Al26  1  0.44806742  0.76321204  0.30833375  1
  Al  Al27  1  0.10966813  0.76182119  0.81094920  1
  Al  Al28  1  0.21825044  0.87564696  0.56300707  1
  Al  Al29  1  0.77207539  0.76799189  0.30735755  1
  Al  Al30  1  0.88192048  0.87453702  0.06480666  1
  Al  Al31  1  0.44638736  0.76275926  0.81687425  1
  Al  Al32  1  0.55692524  0.87287206  0.56196319  1
  B  B33  1  0.89245663  0.20435819  0.59548683  1
  B  B34  1  0.77621321  0.09607162  0.30196855  1
  B  B35  1  0.55633255  0.87129702  0.05871642  1
  N  N36  1  0.22537592  0.20481812  0.36816510  1
  N  N37  1  0.11414531  0.09187286  0.10324644  1
  N  N38  1  0.88003171  0.20847580  0.88792278  1
  N  N39  1  0.79418501  0.11041523  0.62073384  1
  N  N40  1  0.57872122  0.19257348  0.36235447  1
  N  N41  1  0.45835466  0.06780790  0.11501289  1
  N  N42  1  0.22461871  0.20792655  0.87298072  1
  N  N43  1  0.07913108  0.11155831  0.59124082  1
  N  N44  1  0.86989873  0.19376887  0.33433698  1
  N  N45  1  0.77187528  0.08880020  0.13868376  1
  N  N46  1  0.55791638  0.20403278  0.87237217  1
  N  N47  1  0.44754146  0.09511377  0.62275179  1
  N  N48  1  0.22258181  0.53938069  0.36985507  1
  N  N49  1  0.10945551  0.42919736  0.12082403  1
  N  N50  1  0.88832954  0.53843241  0.86892550  1
  N  N51  1  0.79348052  0.39868502  0.61840950  1
  N  N52  1  0.55368552  0.54175266  0.37219523  1
  N  N53  1  0.44563157  0.42704048  0.11942849  1
  N  N54  1  0.22228303  0.53915560  0.86987224  1
  N  N55  1  0.11182221  0.42850582  0.62102537  1
  N  N56  1  0.88648743  0.54034379  0.37080046  1
  N  N57  1  0.77393563  0.43420315  0.12188387  1
  N  N58  1  0.55634603  0.53827613  0.86822674  1
  N  N59  1  0.44581525  0.42569124  0.61911881  1
  N  N60  1  0.22582660  0.86864658  0.36978707  1
  N  N61  1  0.10969584  0.76043077  0.12109116  1
  N  N62  1  0.88779343  0.87491815  0.87296549  1
  N  N63  1  0.77861869  0.76407883  0.62316653  1
  N  N64  1  0.55577391  0.87169794  0.37463626  1
  N  N65  1  0.45874318  0.77154577  0.11447484  1
  N  N66  1  0.22398704  0.86746302  0.87269068  1
  N  N67  1  0.10931374  0.76211245  0.61953942  1
  N  N68  1  0.87527606  0.89589248  0.36265121  1
  N  N69  1  0.75269010  0.77249834  0.11335569  1
  N  N70  1  0.55551322  0.87234296  0.89202696  1
  N  N71  1  0.44568046  0.76230622  0.62493027  1
