# generated using pymatgen
data_Al11BN12
_symmetry_space_group_name_H-M   'P 1'
_cell_length_a   9.23694121
_cell_length_b   9.23694164
_cell_length_c   10.21389135
_cell_angle_alpha   89.80471390
_cell_angle_beta   89.80468194
_cell_angle_gamma   60.21360270
_symmetry_Int_Tables_number   1
_chemical_formula_structural   Al11BN12
_chemical_formula_sum   'Al33 B3 N36'
_cell_volume   756.32008145
_cell_formula_units_Z   3
loop_
 _symmetry_equiv_pos_site_id
 _symmetry_equiv_pos_as_xyz
  1  'x, y, z'
loop_
 _atom_site_type_symbol
 _atom_site_label
 _atom_site_symmetry_multiplicity
 _atom_site_fract_x
 _atom_site_fract_y
 _atom_site_fract_z
 _atom_site_occupancy
  Al  Al0  1  0.09957705  0.09480950  0.39518772  1
  Al  Al1  1  0.21799372  0.20179906  0.13612860  1
  Al  Al2  1  0.77996438  0.09650227  0.81325430  1
  Al  Al3  1  0.45592598  0.08316445  0.31349590  1
  Al  Al4  1  0.55711337  0.19796346  0.07166635  1
  Al  Al5  1  0.11025189  0.09593873  0.88669227  1
  Al  Al6  1  0.21486180  0.21040389  0.64157652  1
  Al  Al7  1  0.88667872  0.20321677  0.14480714  1
  Al  Al8  1  0.45403929  0.09171330  0.82402679  1
  Al  Al9  1  0.56786036  0.20469148  0.56292714  1
  Al  Al10  1  0.10728507  0.42382353  0.38820400  1
  Al  Al11  1  0.22592955  0.54246704  0.06991782  1
  Al  Al12  1  0.77940182  0.42678955  0.88669239  1
  Al  Al13  1  0.89386756  0.53139829  0.64157689  1
  Al  Al14  1  0.44684033  0.41845604  0.31757822  1
  Al  Al15  1  0.56088437  0.54476661  0.14062747  1
  Al  Al16  1  0.10893526  0.42547250  0.89131795  1
  Al  Al17  1  0.22707828  0.54361619  0.56743163  1
  Al  Al18  1  0.77827166  0.41611512  0.39518767  1
  Al  Al19  1  0.88526237  0.53453092  0.13612869  1
  Al  Al20  1  0.44327656  0.42470413  0.81932164  1
  Al  Al21  1  0.56405077  0.53801404  0.64124739  1
  Al  Al22  1  0.10191820  0.76337837  0.31757834  1
  Al  Al23  1  0.22822797  0.87742224  0.14062738  1
  Al  Al24  1  0.77517473  0.77057785  0.82402644  1
  Al  Al25  1  0.88815264  0.88439875  0.56292703  1
  Al  Al26  1  0.43973508  0.75627268  0.39132785  1
  Al  Al27  1  0.10816564  0.75981425  0.81932158  1
  Al  Al28  1  0.22147618  0.88058763  0.64124720  1
  Al  Al29  1  0.76662587  0.77246441  0.31349566  1
  Al  Al30  1  0.88142481  0.87365164  0.07166637  1
  Al  Al31  1  0.44439941  0.76093753  0.89576109  1
  Al  Al32  1  0.55999517  0.87653326  0.56824767  1
  B  B33  1  0.89244280  0.20898031  0.64567937  1
  B  B34  1  0.77422782  0.09076586  0.31184641  1
  B  B35  1  0.55872221  0.87526013  0.06302260  1
  N  N36  1  0.21766324  0.20413588  0.32669323  1
  N  N37  1  0.10364823  0.09446102  0.07349069  1
  N  N38  1  0.89708068  0.21361829  0.80856122  1
  N  N39  1  0.79013405  0.10667228  0.62709395  1
  N  N40  1  0.58010940  0.19066601  0.37194237  1
  N  N41  1  0.45723843  0.06527593  0.12181688  1
  N  N42  1  0.22105143  0.20869145  0.82986845  1
  N  N43  1  0.08666292  0.10777918  0.58503766  1
  N  N44  1  0.87719101  0.19372891  0.33077714  1
  N  N45  1  0.76957858  0.08611682  0.14995911  1
  N  N46  1  0.56284954  0.20618014  0.88501295  1
  N  N47  1  0.45386371  0.09315319  0.63258919  1
  N  N48  1  0.22582484  0.54236292  0.37932194  1
  N  N49  1  0.10773124  0.42426803  0.07882978  1
  N  N50  1  0.89215404  0.53758963  0.82986867  1
  N  N51  1  0.79124218  0.40320025  0.58503766  1
  N  N52  1  0.56089943  0.53894683  0.32979690  1
  N  N53  1  0.44346019  0.42191246  0.13037338  1
  N  N54  1  0.22660947  0.54314725  0.88199793  1
  N  N55  1  0.10923937  0.42577601  0.57613443  1
  N  N56  1  0.88759770  0.53420164  0.32669323  1
  N  N57  1  0.77792344  0.42018621  0.07349081  1
  N  N58  1  0.55937331  0.54470275  0.82887691  1
  N  N59  1  0.44472134  0.42227127  0.62948384  1
  N  N60  1  0.22240911  0.87743713  0.32979689  1
  N  N61  1  0.10537412  0.75999791  0.13037334  1
  N  N62  1  0.88964175  0.87938773  0.88501296  1
  N  N63  1  0.77661539  0.77040073  0.63258891  1
  N  N64  1  0.55679726  0.87333571  0.38402653  1
  N  N65  1  0.45301239  0.76955070  0.08295588  1
  N  N66  1  0.22816484  0.87591039  0.82887673  1
  N  N67  1  0.10573260  0.76125919  0.62948377  1
  N  N68  1  0.87412781  0.89664760  0.37194223  1
  N  N69  1  0.74873805  0.77377601  0.12181679  1
  N  N70  1  0.56249300  0.87903138  0.90120087  1
  N  N71  1  0.44144842  0.75798613  0.57936808  1
