# generated using pymatgen
data_Al11BN12
_symmetry_space_group_name_H-M   'P 1'
_cell_length_a   9.27845356
_cell_length_b   9.27955126
_cell_length_c   9.97964974
_cell_angle_alpha   89.85907242
_cell_angle_beta   89.58491870
_cell_angle_gamma   60.07777375
_symmetry_Int_Tables_number   1
_chemical_formula_structural   Al11BN12
_chemical_formula_sum   'Al33 B3 N36'
_cell_volume   744.69175508
_cell_formula_units_Z   3
loop_
 _symmetry_equiv_pos_site_id
 _symmetry_equiv_pos_as_xyz
  1  'x, y, z'
loop_
 _atom_site_type_symbol
 _atom_site_label
 _atom_site_symmetry_multiplicity
 _atom_site_fract_x
 _atom_site_fract_y
 _atom_site_fract_z
 _atom_site_occupancy
  Al  Al0  1  0.09415152  0.10220666  0.37129481  1
  Al  Al1  1  0.22603951  0.19689159  0.12691521  1
  Al  Al2  1  0.78106600  0.09729878  0.81418238  1
  Al  Al3  1  0.45932314  0.08480630  0.31112493  1
  Al  Al4  1  0.55756081  0.19791280  0.06335411  1
  Al  Al5  1  0.10908065  0.09920365  0.88698635  1
  Al  Al6  1  0.21709636  0.20379807  0.61944482  1
  Al  Al7  1  0.88183567  0.20502261  0.08970733  1
  Al  Al8  1  0.45042246  0.08945172  0.81737022  1
  Al  Al9  1  0.56776707  0.20517305  0.55507984  1
  Al  Al10  1  0.10794908  0.43425927  0.31319501  1
  Al  Al11  1  0.22230006  0.53790684  0.06005830  1
  Al  Al12  1  0.78107630  0.42083254  0.81519710  1
  Al  Al13  1  0.89035008  0.53599350  0.56067585  1
  Al  Al14  1  0.45015770  0.42441113  0.30983849  1
  Al  Al15  1  0.55754874  0.54200079  0.05843999  1
  Al  Al16  1  0.10787947  0.43368415  0.81074535  1
  Al  Al17  1  0.22358996  0.53957867  0.55879082  1
  Al  Al18  1  0.77459494  0.42427688  0.30986160  1
  Al  Al19  1  0.88232195  0.54308320  0.05938411  1
  Al  Al20  1  0.44526601  0.42602833  0.81052702  1
  Al  Al21  1  0.56002619  0.53419719  0.56186987  1
  Al  Al22  1  0.10666583  0.76851819  0.31006745  1
  Al  Al23  1  0.23153616  0.86361479  0.06390599  1
  Al  Al24  1  0.77519470  0.76400170  0.81632357  1
  Al  Al25  1  0.88873021  0.88258683  0.55592930  1
  Al  Al26  1  0.44727080  0.76389387  0.30773853  1
  Al  Al27  1  0.10976852  0.76263713  0.81073161  1
  Al  Al28  1  0.22183710  0.87045326  0.56304048  1
  Al  Al29  1  0.77276246  0.76759659  0.30610050  1
  Al  Al30  1  0.88196747  0.87445652  0.06404664  1
  Al  Al31  1  0.44592780  0.76277681  0.81676558  1
  Al  Al32  1  0.55878575  0.87168654  0.56091592  1
  B  B33  1  0.88911925  0.20620458  0.59403538  1
  B  B34  1  0.77726277  0.09615336  0.30055671  1
  B  B35  1  0.55654005  0.87147525  0.05853482  1
  N  N36  1  0.22419333  0.20280855  0.33259800  1
  N  N37  1  0.11372791  0.09188761  0.08190908  1
  N  N38  1  0.87960465  0.20877792  0.88554354  1
  N  N39  1  0.79494935  0.11063811  0.61985243  1
  N  N40  1  0.58029867  0.19347712  0.36216865  1
  N  N41  1  0.46115435  0.06513784  0.11443047  1
  N  N42  1  0.21927922  0.20304997  0.82343072  1
  N  N43  1  0.07788139  0.11261612  0.57453874  1
  N  N44  1  0.87167446  0.19348390  0.33033291  1
  N  N45  1  0.77136209  0.08861557  0.13803438  1
  N  N46  1  0.55750031  0.20426182  0.87236748  1
  N  N47  1  0.45525876  0.09191647  0.62001716  1
  N  N48  1  0.22307618  0.54121930  0.36920586  1
  N  N49  1  0.10653307  0.43254863  0.11917627  1
  N  N50  1  0.88672749  0.53948091  0.86860740  1
  N  N51  1  0.79413922  0.39807617  0.61773133  1
  N  N52  1  0.55400417  0.54182403  0.37188450  1
  N  N53  1  0.44525405  0.42674521  0.11908937  1
  N  N54  1  0.22229220  0.53932540  0.86980246  1
  N  N55  1  0.10893023  0.43449223  0.61756842  1
  N  N56  1  0.88508944  0.54109516  0.37038026  1
  N  N57  1  0.77355149  0.43420090  0.12096432  1
  N  N58  1  0.55623926  0.53820772  0.86775697  1
  N  N59  1  0.44589969  0.42583420  0.61881788  1
  N  N60  1  0.22619099  0.86923530  0.37041889  1
  N  N61  1  0.10975449  0.76050385  0.12053627  1
  N  N62  1  0.88749589  0.87502492  0.87234136  1
  N  N63  1  0.77921851  0.76353692  0.62292149  1
  N  N64  1  0.55749167  0.86967128  0.37449762  1
  N  N65  1  0.45841580  0.77129762  0.11436677  1
  N  N66  1  0.22426365  0.86699776  0.87041678  1
  N  N67  1  0.10921606  0.76230249  0.61955901  1
  N  N68  1  0.87555254  0.89611628  0.36230682  1
  N  N69  1  0.75298335  0.77214787  0.11287847  1
  N  N70  1  0.55567875  0.87174826  0.89222883  1
  N  N71  1  0.44701800  0.76191831  0.62483720  1
