# generated using pymatgen
data_Al11BN12
_symmetry_space_group_name_H-M   'P 1'
_cell_length_a   9.28155878
_cell_length_b   9.27737076
_cell_length_c   10.03423975
_cell_angle_alpha   89.85680244
_cell_angle_beta   89.63854174
_cell_angle_gamma   60.11454922
_symmetry_Int_Tables_number   1
_chemical_formula_structural   Al11BN12
_chemical_formula_sum   'Al33 B3 N36'
_cell_volume   749.12159059
_cell_formula_units_Z   3
loop_
 _symmetry_equiv_pos_site_id
 _symmetry_equiv_pos_as_xyz
  1  'x, y, z'
loop_
 _atom_site_type_symbol
 _atom_site_label
 _atom_site_symmetry_multiplicity
 _atom_site_fract_x
 _atom_site_fract_y
 _atom_site_fract_z
 _atom_site_occupancy
  Al  Al0  1  0.09766799  0.10166254  0.39473017  1
  Al  Al1  1  0.22151534  0.19615269  0.13459837  1
  Al  Al2  1  0.77905104  0.09380073  0.81546241  1
  Al  Al3  1  0.45760229  0.08391957  0.31775310  1
  Al  Al4  1  0.55781506  0.19859973  0.07399745  1
  Al  Al5  1  0.10770067  0.10109685  0.88874909  1
  Al  Al6  1  0.21889608  0.20154570  0.63977447  1
  Al  Al7  1  0.88623087  0.20420847  0.14602536  1
  Al  Al8  1  0.45431318  0.08948779  0.82928540  1
  Al  Al9  1  0.56823467  0.20367846  0.56441212  1
  Al  Al10  1  0.10752478  0.43353674  0.32006692  1
  Al  Al11  1  0.22164635  0.53870714  0.06999113  1
  Al  Al12  1  0.77812469  0.42979535  0.84124351  1
  Al  Al13  1  0.89185553  0.53914677  0.57445623  1
  Al  Al14  1  0.44953089  0.42399413  0.31893157  1
  Al  Al15  1  0.55592356  0.54108426  0.06835625  1
  Al  Al16  1  0.10973155  0.43543698  0.82156497  1
  Al  Al17  1  0.22297136  0.53849009  0.56809867  1
  Al  Al18  1  0.77827680  0.41665193  0.37459408  1
  Al  Al19  1  0.88230277  0.54182971  0.06865508  1
  Al  Al20  1  0.44473689  0.42629177  0.81951599  1
  Al  Al21  1  0.55424188  0.53807079  0.57630309  1
  Al  Al22  1  0.10744557  0.76825422  0.31990072  1
  Al  Al23  1  0.22846091  0.86641077  0.06972037  1
  Al  Al24  1  0.77586607  0.76709251  0.82505908  1
  Al  Al25  1  0.88763633  0.88412102  0.56445230  1
  Al  Al26  1  0.44603705  0.76369010  0.31711344  1
  Al  Al27  1  0.11032390  0.76315771  0.81958999  1
  Al  Al28  1  0.22235158  0.87027578  0.57567185  1
  Al  Al29  1  0.77161726  0.76627228  0.31496940  1
  Al  Al30  1  0.88223542  0.87384953  0.07422720  1
  Al  Al31  1  0.44569191  0.76485110  0.82570532  1
  Al  Al32  1  0.55833715  0.87287199  0.57061629  1
  B  B33  1  0.89444893  0.20553465  0.64847294  1
  B  B34  1  0.77447240  0.08899581  0.31245006  1
  B  B35  1  0.55622533  0.87142102  0.06810397  1
  N  N36  1  0.22141910  0.20051107  0.33298814  1
  N  N37  1  0.10153573  0.09844582  0.07861907  1
  N  N38  1  0.89960178  0.20532016  0.81130673  1
  N  N39  1  0.78976670  0.10577152  0.62690032  1
  N  N40  1  0.58034166  0.19184425  0.37105610  1
  N  N41  1  0.45934411  0.06522554  0.12210624  1
  N  N42  1  0.22387094  0.20416500  0.83618887  1
  N  N43  1  0.08384772  0.11051670  0.58765845  1
  N  N44  1  0.87794972  0.19032260  0.33510475  1
  N  N45  1  0.77046406  0.08641755  0.14953251  1
  N  N46  1  0.56178250  0.20545436  0.88453985  1
  N  N47  1  0.45585367  0.09174964  0.63197674  1
  N  N48  1  0.22252251  0.53986451  0.37890917  1
  N  N49  1  0.10564587  0.43335029  0.12777874  1
  N  N50  1  0.88942448  0.54457817  0.87728287  1
  N  N51  1  0.78947372  0.40526331  0.60662279  1
  N  N52  1  0.54955316  0.54301982  0.38359844  1
  N  N53  1  0.44376204  0.42669484  0.12981514  1
  N  N54  1  0.22330254  0.54082725  0.88080164  1
  N  N55  1  0.11046368  0.43286702  0.62986648  1
  N  N56  1  0.88726769  0.54281787  0.38200560  1
  N  N57  1  0.77779149  0.42250383  0.10086149  1
  N  N58  1  0.55194273  0.54091910  0.87615191  1
  N  N59  1  0.44439587  0.42484995  0.62929912  1
  N  N60  1  0.22594247  0.86886210  0.38246118  1
  N  N61  1  0.10990405  0.76162008  0.13084820  1
  N  N62  1  0.88874729  0.87741260  0.88415555  1
  N  N63  1  0.77882682  0.76602090  0.63290149  1
  N  N64  1  0.55660436  0.86969501  0.38420705  1
  N  N65  1  0.45576344  0.77243612  0.12394414  1
  N  N66  1  0.22479375  0.86787785  0.87832951  1
  N  N67  1  0.10874860  0.76155698  0.62920027  1
  N  N68  1  0.87474715  0.89557601  0.37076011  1
  N  N69  1  0.75223838  0.77110857  0.12304997  1
  N  N70  1  0.55730391  0.87134286  0.90232662  1
  N  N71  1  0.44648097  0.76383079  0.63558790  1
