# generated using pymatgen
data_Al11BN12
_symmetry_space_group_name_H-M   'P 1'
_cell_length_a   9.27550160
_cell_length_b   9.28502334
_cell_length_c   10.16851493
_cell_angle_alpha   89.52954315
_cell_angle_beta   89.84786774
_cell_angle_gamma   60.05952036
_symmetry_Int_Tables_number   1
_chemical_formula_structural   Al11BN12
_chemical_formula_sum   'Al33 B3 N36'
_cell_volume   758.84571646
_cell_formula_units_Z   3
loop_
 _symmetry_equiv_pos_site_id
 _symmetry_equiv_pos_as_xyz
  1  'x, y, z'
loop_
 _atom_site_type_symbol
 _atom_site_label
 _atom_site_symmetry_multiplicity
 _atom_site_fract_x
 _atom_site_fract_y
 _atom_site_fract_z
 _atom_site_occupancy
  Al  Al0  1  0.09968118  0.09501153  0.39557174  1
  Al  Al1  1  0.22633335  0.19590035  0.14157353  1
  Al  Al2  1  0.77806838  0.09601423  0.81275954  1
  Al  Al3  1  0.44380487  0.09207498  0.38813902  1
  Al  Al4  1  0.56237965  0.19987206  0.07565966  1
  Al  Al5  1  0.11015698  0.09692338  0.88667402  1
  Al  Al6  1  0.22032944  0.20831405  0.64137287  1
  Al  Al7  1  0.88963422  0.20277186  0.14501637  1
  Al  Al8  1  0.44649864  0.08594365  0.88730508  1
  Al  Al9  1  0.57253972  0.20957061  0.56147704  1
  Al  Al10  1  0.10872223  0.42723882  0.38967894  1
  Al  Al11  1  0.21869430  0.53502501  0.13612307  1
  Al  Al12  1  0.78080190  0.42604172  0.88649725  1
  Al  Al13  1  0.89404001  0.52928622  0.63723517  1
  Al  Al14  1  0.45392096  0.41682599  0.31980627  1
  Al  Al15  1  0.56320587  0.54493470  0.13908830  1
  Al  Al16  1  0.11153059  0.42690655  0.89138085  1
  Al  Al17  1  0.21923488  0.53733307  0.63378244  1
  Al  Al18  1  0.77850017  0.41669568  0.39473528  1
  Al  Al19  1  0.88585295  0.53352174  0.13818047  1
  Al  Al20  1  0.44916951  0.41981281  0.82358642  1
  Al  Al21  1  0.56381206  0.53826771  0.64109318  1
  Al  Al22  1  0.09930459  0.77008882  0.31947141  1
  Al  Al23  1  0.22878157  0.87778311  0.13836579  1
  Al  Al24  1  0.78100232  0.76659232  0.81431826  1
  Al  Al25  1  0.88857728  0.88473262  0.55937967  1
  Al  Al26  1  0.44245625  0.76003928  0.39276630  1
  Al  Al27  1  0.10446870  0.76568195  0.82406254  1
  Al  Al28  1  0.22015916  0.88110242  0.64109243  1
  Al  Al29  1  0.76578995  0.77377843  0.31987709  1
  Al  Al30  1  0.87945447  0.87458433  0.07089915  1
  Al  Al31  1  0.44895887  0.76310240  0.88820235  1
  Al  Al32  1  0.55164860  0.87830207  0.62474918  1
  B  B33  1  0.89371245  0.20821382  0.64657173  1
  B  B34  1  0.77430557  0.09158051  0.31092878  1
  B  B35  1  0.55479790  0.87139149  0.11299254  1
  N  N36  1  0.21812677  0.20483924  0.32902886  1
  N  N37  1  0.10631329  0.09621889  0.07489606  1
  N  N38  1  0.89630978  0.21234010  0.81001361  1
  N  N39  1  0.79166765  0.10520448  0.62705459  1
  N  N40  1  0.58576320  0.19222840  0.37078391  1
  N  N41  1  0.45656568  0.06116488  0.08248753  1
  N  N42  1  0.22552447  0.20631964  0.82980102  1
  N  N43  1  0.08677293  0.10954899  0.58693777  1
  N  N44  1  0.87817669  0.19460391  0.33090398  1
  N  N45  1  0.77280186  0.08562339  0.14948360  1
  N  N46  1  0.56474233  0.20326897  0.88701865  1
  N  N47  1  0.44051581  0.10328484  0.57754184  1
  N  N48  1  0.21999438  0.53626032  0.33326688  1
  N  N49  1  0.11127882  0.42260141  0.07874687  1
  N  N50  1  0.89287262  0.53531650  0.82843273  1
  N  N51  1  0.79141245  0.40223279  0.58534945  1
  N  N52  1  0.56041668  0.54148778  0.32977721  1
  N  N53  1  0.44901976  0.42257622  0.12562925  1
  N  N54  1  0.21969379  0.53651977  0.83302735  1
  N  N55  1  0.11122641  0.42667819  0.57588891  1
  N  N56  1  0.88768935  0.53449977  0.32848223  1
  N  N57  1  0.78052374  0.42011216  0.07423509  1
  N  N58  1  0.55929316  0.54257128  0.83194000  1
  N  N59  1  0.45002940  0.42162138  0.62685954  1
  N  N60  1  0.22262021  0.87743303  0.32956235  1
  N  N61  1  0.10420460  0.76522149  0.12399212  1
  N  N62  1  0.88468877  0.87895505  0.88408693  1
  N  N63  1  0.78513746  0.76471394  0.62019915  1
  N  N64  1  0.54720303  0.87469119  0.34935471  1
  N  N65  1  0.46035370  0.77425497  0.08112929  1
  N  N66  1  0.22619471  0.87559814  0.83266863  1
  N  N67  1  0.10400922  0.76751119  0.62541428  1
  N  N68  1  0.87288357  0.89931689  0.36977081  1
  N  N69  1  0.74778693  0.77404293  0.12119898  1
  N  N70  1  0.55088717  0.87599563  0.81841765  1
  N  N71  1  0.44184377  0.75992781  0.58012373  1
