# generated using pymatgen
data_Al11BN12
_symmetry_space_group_name_H-M   'P 1'
_cell_length_a   9.27693341
_cell_length_b   9.28195750
_cell_length_c   10.14535883
_cell_angle_alpha   89.53024605
_cell_angle_beta   89.80741565
_cell_angle_gamma   60.08009375
_symmetry_Int_Tables_number   1
_chemical_formula_structural   Al11BN12
_chemical_formula_sum   'Al33 B3 N36'
_cell_volume   757.14185186
_cell_formula_units_Z   3
loop_
 _symmetry_equiv_pos_site_id
 _symmetry_equiv_pos_as_xyz
  1  'x, y, z'
loop_
 _atom_site_type_symbol
 _atom_site_label
 _atom_site_symmetry_multiplicity
 _atom_site_fract_x
 _atom_site_fract_y
 _atom_site_fract_z
 _atom_site_occupancy
  Al  Al0  1  0.09864757  0.09554577  0.39562496  1
  Al  Al1  1  0.22556080  0.19698162  0.14146469  1
  Al  Al2  1  0.77788667  0.09620510  0.81318137  1
  Al  Al3  1  0.44372607  0.09153192  0.38308157  1
  Al  Al4  1  0.56163895  0.20006830  0.07701303  1
  Al  Al5  1  0.11078223  0.09661503  0.88629741  1
  Al  Al6  1  0.22120727  0.20716123  0.64049528  1
  Al  Al7  1  0.88945178  0.20282458  0.14448630  1
  Al  Al8  1  0.44677757  0.08495007  0.89250731  1
  Al  Al9  1  0.57279379  0.20851480  0.56049869  1
  Al  Al10  1  0.10843353  0.42718925  0.38995776  1
  Al  Al11  1  0.21856714  0.53525272  0.13582085  1
  Al  Al12  1  0.78063490  0.42614826  0.88637780  1
  Al  Al13  1  0.89412746  0.52906943  0.63716590  1
  Al  Al14  1  0.45337615  0.41729436  0.31995157  1
  Al  Al15  1  0.56247129  0.54531835  0.13903696  1
  Al  Al16  1  0.11233170  0.42625915  0.89115768  1
  Al  Al17  1  0.21956260  0.53709168  0.63374986  1
  Al  Al18  1  0.77858363  0.41608216  0.39499107  1
  Al  Al19  1  0.88565677  0.53426138  0.13761956  1
  Al  Al20  1  0.44965168  0.41969305  0.82390922  1
  Al  Al21  1  0.56387781  0.53871226  0.63994202  1
  Al  Al22  1  0.09889865  0.77006149  0.31973991  1
  Al  Al23  1  0.22826325  0.87743527  0.13823006  1
  Al  Al24  1  0.78205760  0.76574029  0.81706440  1
  Al  Al25  1  0.88861950  0.88470847  0.56010348  1
  Al  Al26  1  0.44246627  0.76135236  0.38840650  1
  Al  Al27  1  0.10554715  0.76575123  0.82414366  1
  Al  Al28  1  0.22116377  0.88096328  0.63983396  1
  Al  Al29  1  0.76968538  0.77213112  0.31740792  1
  Al  Al30  1  0.87928140  0.87383738  0.07092395  1
  Al  Al31  1  0.44965670  0.76318776  0.89252626  1
  Al  Al32  1  0.55103280  0.87893300  0.63275793  1
  B  B33  1  0.89363408  0.20829022  0.64688481  1
  B  B34  1  0.77422650  0.09182204  0.31038533  1
  B  B35  1  0.55063053  0.87410558  0.13880358  1
  N  N36  1  0.21676078  0.20526448  0.32943108  1
  N  N37  1  0.10609816  0.09629059  0.07473306  1
  N  N38  1  0.89658101  0.21220368  0.81003800  1
  N  N39  1  0.79127201  0.10520983  0.62702835  1
  N  N40  1  0.58541677  0.19190856  0.36995153  1
  N  N41  1  0.45443906  0.06451331  0.08567527  1
  N  N42  1  0.22731837  0.20530798  0.82929354  1
  N  N43  1  0.08661902  0.10954335  0.58693960  1
  N  N44  1  0.87766916  0.19448909  0.33094780  1
  N  N45  1  0.77297146  0.08545425  0.14942441  1
  N  N46  1  0.56477458  0.20315471  0.88742161  1
  N  N47  1  0.44232020  0.09815975  0.57272931  1
  N  N48  1  0.21960824  0.53632532  0.33369056  1
  N  N49  1  0.11091874  0.42296418  0.07871714  1
  N  N50  1  0.89359583  0.53478421  0.82827480  1
  N  N51  1  0.79161606  0.40190751  0.58557389  1
  N  N52  1  0.56065639  0.54127311  0.33064350  1
  N  N53  1  0.44878036  0.42307908  0.12587891  1
  N  N54  1  0.22011782  0.53652894  0.83295690  1
  N  N55  1  0.11184725  0.42608501  0.57635339  1
  N  N56  1  0.88707756  0.53421319  0.32998273  1
  N  N57  1  0.78019231  0.42033145  0.07430350  1
  N  N58  1  0.55903127  0.54365594  0.83118335  1
  N  N59  1  0.45033645  0.42107454  0.62613607  1
  N  N60  1  0.22142630  0.87798387  0.33039306  1
  N  N61  1  0.10388832  0.76536203  0.12418807  1
  N  N62  1  0.88576861  0.87899866  0.88355588  1
  N  N63  1  0.78356704  0.76502942  0.61945323  1
  N  N64  1  0.54138883  0.87819161  0.31644851  1
  N  N65  1  0.45833842  0.77371482  0.08403185  1
  N  N66  1  0.22800946  0.87506843  0.83182194  1
  N  N67  1  0.10482622  0.76726086  0.62479358  1
  N  N68  1  0.87198225  0.89953822  0.37067589  1
  N  N69  1  0.75228460  0.77213184  0.12230502  1
  N  N70  1  0.55173654  0.87580238  0.82131148  1
  N  N71  1  0.44472725  0.76215165  0.57608991  1
