# generated using pymatgen
data_Al11BN12
_symmetry_space_group_name_H-M   'P 1'
_cell_length_a   9.28192247
_cell_length_b   9.29380234
_cell_length_c   10.15423367
_cell_angle_alpha   89.60335105
_cell_angle_beta   89.85877446
_cell_angle_gamma   60.05259215
_symmetry_Int_Tables_number   1
_chemical_formula_structural   Al11BN12
_chemical_formula_sum   'Al33 B3 N36'
_cell_volume   758.97657877
_cell_formula_units_Z   3
loop_
 _symmetry_equiv_pos_site_id
 _symmetry_equiv_pos_as_xyz
  1  'x, y, z'
loop_
 _atom_site_type_symbol
 _atom_site_label
 _atom_site_symmetry_multiplicity
 _atom_site_fract_x
 _atom_site_fract_y
 _atom_site_fract_z
 _atom_site_occupancy
  Al  Al0  1  0.10006842  0.09452775  0.39545135  1
  Al  Al1  1  0.22637282  0.19568809  0.14088743  1
  Al  Al2  1  0.77857362  0.09564733  0.81291792  1
  Al  Al3  1  0.44346644  0.09422070  0.39128837  1
  Al  Al4  1  0.56182323  0.19879240  0.07413709  1
  Al  Al5  1  0.10971222  0.09757945  0.88691469  1
  Al  Al6  1  0.21965044  0.20892249  0.64141325  1
  Al  Al7  1  0.88907276  0.20305936  0.14476560  1
  Al  Al8  1  0.44683887  0.08637273  0.87892265  1
  Al  Al9  1  0.57253929  0.21057299  0.56301466  1
  Al  Al10  1  0.10940208  0.42725566  0.38952077  1
  Al  Al11  1  0.21857150  0.53500104  0.13512395  1
  Al  Al12  1  0.78109270  0.42645020  0.88648954  1
  Al  Al13  1  0.89481676  0.52891903  0.63702868  1
  Al  Al14  1  0.45433688  0.41650964  0.31887719  1
  Al  Al15  1  0.56297432  0.54473672  0.13728775  1
  Al  Al16  1  0.11032466  0.42778580  0.89149316  1
  Al  Al17  1  0.21939825  0.53745162  0.63445543  1
  Al  Al18  1  0.77842695  0.41667882  0.39472365  1
  Al  Al19  1  0.88509074  0.53369664  0.13917123  1
  Al  Al20  1  0.44870377  0.42040649  0.82467692  1
  Al  Al21  1  0.56393499  0.53763642  0.64282155  1
  Al  Al22  1  0.10007987  0.77009739  0.31878886  1
  Al  Al23  1  0.22841200  0.87810356  0.13663998  1
  Al  Al24  1  0.77867838  0.76816140  0.81057227  1
  Al  Al25  1  0.89004245  0.88465676  0.55928654  1
  Al  Al26  1  0.44164431  0.75755231  0.39543955  1
  Al  Al27  1  0.10346940  0.76580838  0.82534086  1
  Al  Al28  1  0.21992101  0.88092531  0.64285404  1
  Al  Al29  1  0.76476513  0.77396110  0.32365762  1
  Al  Al30  1  0.87831923  0.87499566  0.07151201  1
  Al  Al31  1  0.44900335  0.76412140  0.88477512  1
  Al  Al32  1  0.55550322  0.87511164  0.60472309  1
  B  B33  1  0.89383077  0.20796390  0.64667496  1
  B  B34  1  0.77441880  0.09164886  0.31081486  1
  B  B35  1  0.55503117  0.87140628  0.10079128  1
  N  N36  1  0.21974827  0.20367937  0.32897929  1
  N  N37  1  0.10576619  0.09674154  0.07514802  1
  N  N38  1  0.89611986  0.21251735  0.81035877  1
  N  N39  1  0.79238054  0.10519900  0.62701404  1
  N  N40  1  0.58603757  0.19237280  0.37106481  1
  N  N41  1  0.45682547  0.06001393  0.08150549  1
  N  N42  1  0.22351826  0.20765668  0.82975448  1
  N  N43  1  0.08707893  0.10906031  0.58693309  1
  N  N44  1  0.87844245  0.19451037  0.33081394  1
  N  N45  1  0.77195475  0.08627903  0.14906104  1
  N  N46  1  0.56456756  0.20310730  0.88580201  1
  N  N47  1  0.43938331  0.10789841  0.58151951  1
  N  N48  1  0.22043875  0.53634775  0.33260161  1
  N  N49  1  0.11041008  0.42285056  0.07922488  1
  N  N50  1  0.89201392  0.53641500  0.82849909  1
  N  N51  1  0.79136387  0.40227970  0.58552697  1
  N  N52  1  0.56070428  0.54157693  0.32822507  1
  N  N53  1  0.44894384  0.42188378  0.12435536  1
  N  N54  1  0.21938943  0.53678728  0.83439975  1
  N  N55  1  0.11157175  0.42678973  0.57568917  1
  N  N56  1  0.88808915  0.53440090  0.32880461  1
  N  N57  1  0.78071336  0.42022154  0.07436870  1
  N  N58  1  0.55941945  0.54197254  0.83367603  1
  N  N59  1  0.44995656  0.42209576  0.62801111  1
  N  N60  1  0.22429874  0.87720986  0.32817382  1
  N  N61  1  0.10383218  0.76529417  0.12326791  1
  N  N62  1  0.88310400  0.87877824  0.88460013  1
  N  N63  1  0.78892779  0.76309743  0.61924829  1
  N  N64  1  0.55537744  0.87033786  0.38266030  1
  N  N65  1  0.46058050  0.77486780  0.07987549  1
  N  N66  1  0.22475765  0.87611629  0.83430314  1
  N  N67  1  0.10410651  0.76745697  0.62647385  1
  N  N68  1  0.87386047  0.89947628  0.36910107  1
  N  N69  1  0.74333687  0.77625534  0.12429950  1
  N  N70  1  0.55049108  0.87548693  0.81472070  1
  N  N71  1  0.43905208  0.75658575  0.58260438  1
