# generated using pymatgen
data_Al11BN12
_symmetry_space_group_name_H-M   'P 1'
_cell_length_a   9.25681846
_cell_length_b   9.25681771
_cell_length_c   9.88920772
_cell_angle_alpha   90.07582127
_cell_angle_beta   90.07581587
_cell_angle_gamma   60.02522417
_symmetry_Int_Tables_number   1
_chemical_formula_structural   Al11BN12
_chemical_formula_sum   'Al33 B3 N36'
_cell_volume   734.04961061
_cell_formula_units_Z   3
loop_
 _symmetry_equiv_pos_site_id
 _symmetry_equiv_pos_as_xyz
  1  'x, y, z'
loop_
 _atom_site_type_symbol
 _atom_site_label
 _atom_site_symmetry_multiplicity
 _atom_site_fract_x
 _atom_site_fract_y
 _atom_site_fract_z
 _atom_site_occupancy
  Al  Al0  1  0.10515044  0.09433242  0.30206094  1
  Al  Al1  1  0.22512824  0.19932495  0.04513519  1
  Al  Al2  1  0.78046519  0.09713122  0.79266298  1
  Al  Al3  1  0.45185072  0.08778836  0.29075104  1
  Al  Al4  1  0.56138091  0.19887315  0.05131681  1
  Al  Al5  1  0.10417572  0.09752292  0.79025594  1
  Al  Al6  1  0.21892246  0.20593474  0.54498080  1
  Al  Al7  1  0.88804636  0.20471294  0.05283987  1
  Al  Al8  1  0.44683662  0.09221823  0.80182106  1
  Al  Al9  1  0.56416985  0.20333522  0.54107536  1
  Al  Al10  1  0.11117824  0.42784349  0.29366297  1
  Al  Al11  1  0.22244360  0.53911019  0.04431355  1
  Al  Al12  1  0.78085637  0.42084228  0.79025582  1
  Al  Al13  1  0.88926704  0.53558998  0.54498093  1
  Al  Al14  1  0.44958773  0.42427154  0.29454569  1
  Al  Al15  1  0.55906415  0.54140638  0.04472983  1
  Al  Al16  1  0.11067618  0.42734204  0.79520102  1
  Al  Al17  1  0.22190863  0.53857578  0.54446400  1
  Al  Al18  1  0.77766572  0.42181724  0.30206103  1
  Al  Al19  1  0.88265907  0.54179370  0.04513506  1
  Al  Al20  1  0.44590056  0.42574376  0.79520581  1
  Al  Al21  1  0.55795610  0.53563650  0.54504100  1
  Al  Al22  1  0.10760458  0.76625400  0.29454554  1
  Al  Al23  1  0.22473990  0.87573097  0.04473006  1
  Al  Al24  1  0.77555130  0.76350315  0.80182142  1
  Al  Al25  1  0.88666871  0.88083609  0.54107535  1
  Al  Al26  1  0.44698532  0.76365258  0.29047534  1
  Al  Al27  1  0.10907676  0.76256758  0.79520605  1
  Al  Al28  1  0.21896834  0.87462433  0.54504084  1
  Al  Al29  1  0.77112272  0.76851605  0.29075086  1
  Al  Al30  1  0.88220627  0.87804729  0.05131696  1
  Al  Al31  1  0.44580415  0.76247193  0.80149766  1
  Al  Al32  1  0.55577165  0.87243824  0.54637642  1
  B  B33  1  0.88420690  0.20087408  0.53854924  1
  B  B34  1  0.77701606  0.09368274  0.29714011  1
  B  B35  1  0.55572920  0.87239559  0.04090574  1
  N  N36  1  0.22565733  0.20442166  0.35267004  1
  N  N37  1  0.10986395  0.09509547  0.11010915  1
  N  N38  1  0.88829002  0.20495663  0.86183673  1
  N  N39  1  0.79040394  0.10707038  0.60009629  1
  N  N40  1  0.57963182  0.19182944  0.34645679  1
  N  N41  1  0.45731196  0.06933439  0.09656978  1
  N  N42  1  0.22089985  0.20371658  0.85246290  1
  N  N43  1  0.08467683  0.10681280  0.59388727  1
  N  N44  1  0.87673278  0.19339953  0.36808117  1
  N  N45  1  0.77945245  0.09611890  0.13066955  1
  N  N46  1  0.56014613  0.20354885  0.85788092  1
  N  N47  1  0.44644381  0.09459177  0.60730408  1
  N  N48  1  0.22263637  0.53930274  0.35270487  1
  N  N49  1  0.11064441  0.42731035  0.10195200  1
  N  N50  1  0.88705043  0.53756601  0.85246276  1
  N  N51  1  0.79014505  0.40134431  0.59388714  1
  N  N52  1  0.55346022  0.54207257  0.35365486  1
  N  N53  1  0.44558578  0.42769517  0.10327100  1
  N  N54  1  0.22241296  0.53907980  0.85298978  1
  N  N55  1  0.11095328  0.42762068  0.60401682  1
  N  N56  1  0.88775600  0.54232308  0.35267004  1
  N  N57  1  0.77842864  0.42653045  0.11010915  1
  N  N58  1  0.55849561  0.53689344  0.85242627  1
  N  N59  1  0.44521010  0.42535447  0.60246035  1
  N  N60  1  0.22540529  0.87012705  0.35365479  1
  N  N61  1  0.11102843  0.76225243  0.10327093  1
  N  N62  1  0.88688205  0.87681256  0.85788114  1
  N  N63  1  0.77792476  0.76311081  0.60730441  1
  N  N64  1  0.55531972  0.87198546  0.35789502  1
  N  N65  1  0.45688620  0.77355279  0.09562455  1
  N  N66  1  0.22022620  0.87516262  0.85242665  1
  N  N67  1  0.10868760  0.76187717  0.60246053  1
  N  N68  1  0.87516272  0.89629817  0.34645682  1
  N  N69  1  0.75266825  0.77397770  0.09656963  1
  N  N70  1  0.55569422  0.87236111  0.87527489  1
  N  N71  1  0.44508303  0.76175105  0.60862263  1
