# generated using pymatgen
data_Al11BN12
_symmetry_space_group_name_H-M   'P 1'
_cell_length_a   9.23659193
_cell_length_b   9.23665361
_cell_length_c   10.21473016
_cell_angle_alpha   89.80491932
_cell_angle_beta   89.80446246
_cell_angle_gamma   60.21495074
_symmetry_Int_Tables_number   1
_chemical_formula_structural   Al11BN12
_chemical_formula_sum   'Al33 B3 N36'
_cell_volume   756.34019237
_cell_formula_units_Z   3
loop_
 _symmetry_equiv_pos_site_id
 _symmetry_equiv_pos_as_xyz
  1  'x, y, z'
loop_
 _atom_site_type_symbol
 _atom_site_label
 _atom_site_symmetry_multiplicity
 _atom_site_fract_x
 _atom_site_fract_y
 _atom_site_fract_z
 _atom_site_occupancy
  Al  Al0  1  0.09953362  0.09478437  0.39271196  1
  Al  Al1  1  0.21794318  0.20179526  0.13364395  1
  Al  Al2  1  0.77997024  0.09643906  0.81076470  1
  Al  Al3  1  0.45586937  0.08315269  0.31100612  1
  Al  Al4  1  0.55707756  0.19793572  0.06918180  1
  Al  Al5  1  0.11025273  0.09588132  0.88421448  1
  Al  Al6  1  0.21487374  0.21033277  0.63910318  1
  Al  Al7  1  0.88663691  0.20319819  0.14233465  1
  Al  Al8  1  0.45406104  0.09163706  0.82154847  1
  Al  Al9  1  0.56785007  0.20463584  0.56044191  1
  Al  Al10  1  0.10723102  0.42380076  0.38573276  1
  Al  Al11  1  0.22589694  0.54245296  0.06740047  1
  Al  Al12  1  0.77939727  0.42673223  0.88421001  1
  Al  Al13  1  0.89386904  0.53131957  0.63909058  1
  Al  Al14  1  0.44677709  0.41843890  0.31508459  1
  Al  Al15  1  0.56084514  0.54473706  0.13814961  1
  Al  Al16  1  0.10893292  0.42541361  0.88883077  1
  Al  Al17  1  0.22707112  0.54355858  0.56494228  1
  Al  Al18  1  0.77821522  0.41610071  0.39270578  1
  Al  Al19  1  0.88522361  0.53451686  0.13365465  1
  Al  Al20  1  0.44327765  0.42463954  0.81683368  1
  Al  Al21  1  0.56404064  0.53795367  0.63877121  1
  Al  Al22  1  0.10187554  0.76335025  0.31508510  1
  Al  Al23  1  0.22819646  0.87740369  0.13815683  1
  Al  Al24  1  0.77518467  0.77050896  0.82153296  1
  Al  Al25  1  0.88815869  0.88433347  0.56044498  1
  Al  Al26  1  0.43969334  0.75624709  0.38884954  1
  Al  Al27  1  0.10817286  0.75975485  0.81683232  1
  Al  Al28  1  0.22148302  0.88052575  0.63877177  1
  Al  Al29  1  0.76657997  0.77245798  0.31101030  1
  Al  Al30  1  0.88139381  0.87363066  0.06917965  1
  Al  Al31  1  0.44440411  0.76087843  0.89329591  1
  Al  Al32  1  0.56000202  0.87646418  0.56575672  1
  B  B33  1  0.89244026  0.20891647  0.64318925  1
  B  B34  1  0.77418151  0.09075279  0.30937282  1
  B  B35  1  0.55870173  0.87522717  0.06055293  1
  N  N36  1  0.21760141  0.20412654  0.32419193  1
  N  N37  1  0.10360748  0.09443698  0.07100267  1
  N  N38  1  0.89708760  0.21355998  0.80606633  1
  N  N39  1  0.79012997  0.10660822  0.62461662  1
  N  N40  1  0.58005860  0.19065374  0.36946726  1
  N  N41  1  0.45719340  0.06525358  0.11933975  1
  N  N42  1  0.22106492  0.20862638  0.82738412  1
  N  N43  1  0.08666139  0.10771501  0.58255201  1
  N  N44  1  0.87714481  0.19371310  0.32829271  1
  N  N45  1  0.76953858  0.08609425  0.14749245  1
  N  N46  1  0.56285890  0.20612149  0.88254035  1
  N  N47  1  0.45388150  0.09307268  0.63012524  1
  N  N48  1  0.22577525  0.54234765  0.37685646  1
  N  N49  1  0.10768553  0.42425599  0.07632505  1
  N  N50  1  0.89216131  0.53751690  0.82736382  1
  N  N51  1  0.79122568  0.40313869  0.58254392  1
  N  N52  1  0.56084740  0.53892618  0.32730072  1
  N  N53  1  0.44341099  0.42188557  0.12789585  1
  N  N54  1  0.22661148  0.54309439  0.87951910  1
  N  N55  1  0.10924171  0.42569671  0.57364397  1
  N  N56  1  0.88754673  0.53418985  0.32420986  1
  N  N57  1  0.77788775  0.42016211  0.07100203  1
  N  N58  1  0.55937268  0.54465009  0.82638516  1
  N  N59  1  0.44470644  0.42220504  0.62701608  1
  N  N60  1  0.22236555  0.87741747  0.32730899  1
  N  N61  1  0.10534201  0.75997239  0.12789721  1
  N  N62  1  0.88964807  0.87932784  0.88253441  1
  N  N63  1  0.77662251  0.77032625  0.63010384  1
  N  N64  1  0.55674541  0.87332578  0.38155401  1
  N  N65  1  0.45297855  0.76951950  0.08047428  1
  N  N66  1  0.22817474  0.87585816  0.82638720  1
  N  N67  1  0.10573298  0.76119559  0.62701764  1
  N  N68  1  0.87409339  0.89662868  0.36947180  1
  N  N69  1  0.74870218  0.77376186  0.11935292  1
  N  N70  1  0.56251106  0.87896805  0.89873825  1
  N  N71  1  0.44144706  0.75791935  0.57687059  1
