# generated using pymatgen
data_Al11BN12
_symmetry_space_group_name_H-M   'P 1'
_cell_length_a   9.31748096
_cell_length_b   9.29251447
_cell_length_c   10.04167775
_cell_angle_alpha   89.67217678
_cell_angle_beta   89.61891035
_cell_angle_gamma   59.98067965
_symmetry_Int_Tables_number   1
_chemical_formula_structural   Al11BN12
_chemical_formula_sum   'Al33 B3 N36'
_cell_volume   752.78823221
_cell_formula_units_Z   3
loop_
 _symmetry_equiv_pos_site_id
 _symmetry_equiv_pos_as_xyz
  1  'x, y, z'
loop_
 _atom_site_type_symbol
 _atom_site_label
 _atom_site_symmetry_multiplicity
 _atom_site_fract_x
 _atom_site_fract_y
 _atom_site_fract_z
 _atom_site_occupancy
  Al  Al0  1  0.10101937  0.09439827  0.39440596  1
  Al  Al1  1  0.21809939  0.20073561  0.13770593  1
  Al  Al2  1  0.77835198  0.09512769  0.81349485  1
  Al  Al3  1  0.45785387  0.08397566  0.31595999  1
  Al  Al4  1  0.55708929  0.19819743  0.07285287  1
  Al  Al5  1  0.10681358  0.10002676  0.88487499  1
  Al  Al6  1  0.21548327  0.20990777  0.64125464  1
  Al  Al7  1  0.88663819  0.20377229  0.14498046  1
  Al  Al8  1  0.45414145  0.09017679  0.82680862  1
  Al  Al9  1  0.56799459  0.20393910  0.56341278  1
  Al  Al10  1  0.11452041  0.42169635  0.38459921  1
  Al  Al11  1  0.22572599  0.54039583  0.07222261  1
  Al  Al12  1  0.78006383  0.42236005  0.87900089  1
  Al  Al13  1  0.88631191  0.54139924  0.57891959  1
  Al  Al14  1  0.45147649  0.42417650  0.31872209  1
  Al  Al15  1  0.55096849  0.54320324  0.06814091  1
  Al  Al16  1  0.11476967  0.42317389  0.88681515  1
  Al  Al17  1  0.22680927  0.54310750  0.56794980  1
  Al  Al18  1  0.78210214  0.40957103  0.39119640  1
  Al  Al19  1  0.87866456  0.54662996  0.07284974  1
  Al  Al20  1  0.44518443  0.42682745  0.81786547  1
  Al  Al21  1  0.55397428  0.53928909  0.57528282  1
  Al  Al22  1  0.10727069  0.76723389  0.31776081  1
  Al  Al23  1  0.22672036  0.87080070  0.08245934  1
  Al  Al24  1  0.77556389  0.76663893  0.82277047  1
  Al  Al25  1  0.88738710  0.88538038  0.56223683  1
  Al  Al26  1  0.44815515  0.76248598  0.31737170  1
  Al  Al27  1  0.10731872  0.76044753  0.82098999  1
  Al  Al28  1  0.21889655  0.87828167  0.60673488  1
  Al  Al29  1  0.77218926  0.76522752  0.31493796  1
  Al  Al30  1  0.88028973  0.87501501  0.07220047  1
  Al  Al31  1  0.44896978  0.76319431  0.82724760  1
  Al  Al32  1  0.55718874  0.87523059  0.56908426  1
  B  B33  1  0.89046658  0.21139439  0.64705995  1
  B  B34  1  0.77511880  0.08838509  0.31074465  1
  B  B35  1  0.55514228  0.87328287  0.06638810  1
  N  N36  1  0.21992460  0.20147924  0.32962874  1
  N  N37  1  0.10139635  0.10016623  0.07500848  1
  N  N38  1  0.89557084  0.21086476  0.80905592  1
  N  N39  1  0.78942647  0.10642442  0.62558688  1
  N  N40  1  0.58065153  0.19146472  0.37000702  1
  N  N41  1  0.45762907  0.06617012  0.12114793  1
  N  N42  1  0.22198483  0.20573454  0.83113271  1
  N  N43  1  0.08458467  0.11175193  0.58832190  1
  N  N44  1  0.87913529  0.18999520  0.33186906  1
  N  N45  1  0.77005127  0.08705683  0.14780642  1
  N  N46  1  0.56107528  0.20573205  0.88340586  1
  N  N47  1  0.45451128  0.09353494  0.63119712  1
  N  N48  1  0.22658498  0.54159485  0.37541981  1
  N  N49  1  0.11153188  0.42365635  0.08503578  1
  N  N50  1  0.88630072  0.54602801  0.87266193  1
  N  N51  1  0.79134854  0.39961372  0.58981740  1
  N  N52  1  0.55243755  0.54156443  0.38139474  1
  N  N53  1  0.44584446  0.42578411  0.13033179  1
  N  N54  1  0.22680804  0.54094608  0.87934056  1
  N  N55  1  0.11519631  0.42512936  0.58233209  1
  N  N56  1  0.88299969  0.54298340  0.37558392  1
  N  N57  1  0.77955214  0.41658262  0.07773810  1
  N  N58  1  0.54971574  0.54124660  0.87633757  1
  N  N59  1  0.44590783  0.42542661  0.62853907  1
  N  N60  1  0.22551996  0.87025018  0.36454085  1
  N  N61  1  0.10718188  0.76202706  0.12738139  1
  N  N62  1  0.88635258  0.87832549  0.88293439  1
  N  N63  1  0.77803137  0.76813255  0.63119605  1
  N  N64  1  0.55673348  0.87043505  0.38320130  1
  N  N65  1  0.45832700  0.77160452  0.12170053  1
  N  N66  1  0.22235547  0.87111511  0.86345627  1
  N  N67  1  0.10641899  0.76230627  0.62964296  1
  N  N68  1  0.87489503  0.89531312  0.36908951  1
  N  N69  1  0.75083563  0.77303126  0.12295018  1
  N  N70  1  0.55702352  0.87280689  0.90159810  1
  N  N71  1  0.45009014  0.76315346  0.63597594  1
