# generated using pymatgen
data_Al11BN12
_symmetry_space_group_name_H-M   'P 1'
_cell_length_a   9.26535340
_cell_length_b   9.26770852
_cell_length_c   10.05851178
_cell_angle_alpha   89.82438358
_cell_angle_beta   89.47638824
_cell_angle_gamma   60.06452886
_symmetry_Int_Tables_number   1
_chemical_formula_structural   Al11BN12
_chemical_formula_sum   'Al33 B3 N36'
_cell_volume   748.44856568
_cell_formula_units_Z   3
loop_
 _symmetry_equiv_pos_site_id
 _symmetry_equiv_pos_as_xyz
  1  'x, y, z'
loop_
 _atom_site_type_symbol
 _atom_site_label
 _atom_site_symmetry_multiplicity
 _atom_site_fract_x
 _atom_site_fract_y
 _atom_site_fract_z
 _atom_site_occupancy
  Al  Al0  1  0.09264767  0.10574248  0.38459965  1
  Al  Al1  1  0.22355959  0.19588820  0.12909816  1
  Al  Al2  1  0.77935102  0.09368328  0.81030544  1
  Al  Al3  1  0.45815977  0.08483631  0.31044088  1
  Al  Al4  1  0.55707896  0.19796451  0.06368456  1
  Al  Al5  1  0.10838330  0.10021250  0.88394543  1
  Al  Al6  1  0.21714938  0.20238271  0.63032285  1
  Al  Al7  1  0.88952973  0.19799309  0.13024319  1
  Al  Al8  1  0.45292827  0.08867245  0.81917330  1
  Al  Al9  1  0.56784718  0.20451085  0.55569985  1
  Al  Al10  1  0.10760740  0.43512407  0.31173732  1
  Al  Al11  1  0.22252034  0.53810462  0.06039724  1
  Al  Al12  1  0.77853775  0.42859274  0.81011409  1
  Al  Al13  1  0.89034802  0.53583041  0.56105783  1
  Al  Al14  1  0.44938837  0.42463832  0.30999424  1
  Al  Al15  1  0.55851210  0.54024468  0.05937062  1
  Al  Al16  1  0.10802446  0.43516106  0.81249838  1
  Al  Al17  1  0.22313611  0.53883048  0.55969914  1
  Al  Al18  1  0.77224343  0.42969669  0.31353431  1
  Al  Al19  1  0.88247960  0.54164111  0.05953052  1
  Al  Al20  1  0.44629846  0.42597363  0.81064740  1
  Al  Al21  1  0.56001255  0.53447147  0.56174814  1
  Al  Al22  1  0.10700613  0.76972442  0.31101624  1
  Al  Al23  1  0.23105165  0.86401869  0.06133740  1
  Al  Al24  1  0.77576216  0.76410555  0.81634203  1
  Al  Al25  1  0.88779245  0.88356261  0.55653830  1
  Al  Al26  1  0.44452537  0.76608088  0.30853444  1
  Al  Al27  1  0.11042988  0.76282177  0.81074939  1
  Al  Al28  1  0.22227493  0.87019632  0.56616005  1
  Al  Al29  1  0.77199258  0.76840364  0.30616933  1
  Al  Al30  1  0.88258411  0.87261300  0.06385301  1
  Al  Al31  1  0.44708003  0.76215831  0.81716846  1
  Al  Al32  1  0.55856944  0.87193315  0.56170268  1
  B  B33  1  0.89154895  0.20519245  0.63044078  1
  B  B34  1  0.77498267  0.09198323  0.30317915  1
  B  B35  1  0.55644235  0.87121061  0.05984380  1
  N  N36  1  0.22131332  0.20213679  0.32652005  1
  N  N37  1  0.10777668  0.09553788  0.07341672  1
  N  N38  1  0.89387149  0.20388083  0.82976259  1
  N  N39  1  0.79077283  0.10786343  0.61981284  1
  N  N40  1  0.58037730  0.19300181  0.36269654  1
  N  N41  1  0.46025154  0.06471435  0.11487723  1
  N  N42  1  0.22203933  0.20343359  0.82509868  1
  N  N43  1  0.07889349  0.11296355  0.57894577  1
  N  N44  1  0.87571588  0.19254305  0.32257527  1
  N  N45  1  0.77003904  0.08579278  0.13855805  1
  N  N46  1  0.55899220  0.20464058  0.87477801  1
  N  N47  1  0.45542877  0.09157977  0.62221202  1
  N  N48  1  0.22239108  0.54140616  0.37058457  1
  N  N49  1  0.10622263  0.43302671  0.11931540  1
  N  N50  1  0.88697921  0.54065236  0.87082226  1
  N  N51  1  0.78930990  0.40604761  0.61696212  1
  N  N52  1  0.55179885  0.54318145  0.37230833  1
  N  N53  1  0.44509579  0.42624347  0.12065431  1
  N  N54  1  0.22329031  0.53981302  0.87135955  1
  N  N55  1  0.10868888  0.43387703  0.62013631  1
  N  N56  1  0.88544312  0.54276402  0.37115692  1
  N  N57  1  0.77530479  0.43033009  0.12178226  1
  N  N58  1  0.55711479  0.53762063  0.87034360  1
  N  N59  1  0.44570363  0.42589615  0.61979860  1
  N  N60  1  0.22441242  0.87152914  0.37410641  1
  N  N61  1  0.11016993  0.76125207  0.12219624  1
  N  N62  1  0.88838374  0.87430177  0.87429768  1
  N  N63  1  0.77931283  0.76358508  0.62374294  1
  N  N64  1  0.55664131  0.87028298  0.37568358  1
  N  N65  1  0.45729176  0.77153577  0.11571411  1
  N  N66  1  0.22581098  0.86615575  0.87065124  1
  N  N67  1  0.10870218  0.76201557  0.62082765  1
  N  N68  1  0.87456334  0.89727187  0.36281085  1
  N  N69  1  0.75279461  0.77097560  0.11427260  1
  N  N70  1  0.55658419  0.87108226  0.89372409  1
  N  N71  1  0.44756115  0.76141056  0.62636013  1
