# generated using pymatgen
data_Al11BN12
_symmetry_space_group_name_H-M   'P 1'
_cell_length_a   9.26166143
_cell_length_b   9.26732056
_cell_length_c   10.07402164
_cell_angle_alpha   89.85588904
_cell_angle_beta   89.59296579
_cell_angle_gamma   60.04678377
_symmetry_Int_Tables_number   1
_chemical_formula_structural   Al11BN12
_chemical_formula_sum   'Al33 B3 N36'
_cell_volume   749.15188126
_cell_formula_units_Z   3
loop_
 _symmetry_equiv_pos_site_id
 _symmetry_equiv_pos_as_xyz
  1  'x, y, z'
loop_
 _atom_site_type_symbol
 _atom_site_label
 _atom_site_symmetry_multiplicity
 _atom_site_fract_x
 _atom_site_fract_y
 _atom_site_fract_z
 _atom_site_occupancy
  Al  Al0  1  0.09163733  0.10642116  0.39454558  1
  Al  Al1  1  0.22108891  0.19636957  0.13307452  1
  Al  Al2  1  0.77909013  0.09169227  0.81389945  1
  Al  Al3  1  0.45624305  0.08518323  0.31573699  1
  Al  Al4  1  0.55648493  0.19837407  0.07045562  1
  Al  Al5  1  0.10931986  0.09968406  0.88536390  1
  Al  Al6  1  0.21887410  0.20195469  0.63710221  1
  Al  Al7  1  0.88942284  0.19748932  0.14201200  1
  Al  Al8  1  0.45464918  0.08844867  0.82550601  1
  Al  Al9  1  0.56876011  0.20389306  0.56148154  1
  Al  Al10  1  0.10716788  0.43491776  0.31702661  1
  Al  Al11  1  0.22218196  0.53862115  0.06642561  1
  Al  Al12  1  0.77788003  0.43182661  0.81290746  1
  Al  Al13  1  0.89037416  0.53620121  0.56681483  1
  Al  Al14  1  0.44869047  0.42476766  0.31607236  1
  Al  Al15  1  0.55807038  0.54042900  0.06629476  1
  Al  Al16  1  0.10877868  0.43524848  0.81862242  1
  Al  Al17  1  0.22350913  0.53846742  0.56568567  1
  Al  Al18  1  0.77147341  0.43041785  0.32149992  1
  Al  Al19  1  0.88181162  0.54160560  0.06618095  1
  Al  Al20  1  0.44720122  0.42579844  0.81647344  1
  Al  Al21  1  0.56045007  0.53465679  0.56732063  1
  Al  Al22  1  0.10675070  0.76980199  0.31727979  1
  Al  Al23  1  0.22921646  0.86554704  0.06603039  1
  Al  Al24  1  0.77664246  0.76383857  0.82245181  1
  Al  Al25  1  0.88778763  0.88332469  0.56232628  1
  Al  Al26  1  0.44296687  0.76701741  0.31458262  1
  Al  Al27  1  0.11111875  0.76221335  0.81624707  1
  Al  Al28  1  0.22319590  0.86986014  0.57289846  1
  Al  Al29  1  0.77103092  0.76880948  0.31229056  1
  Al  Al30  1  0.88217691  0.87269195  0.07068653  1
  Al  Al31  1  0.44826217  0.76142582  0.82302892  1
  Al  Al32  1  0.55889067  0.87186866  0.56799664  1
  B  B33  1  0.89555657  0.20267917  0.64926747  1
  B  B34  1  0.77382876  0.09144017  0.31062151  1
  B  B35  1  0.55581161  0.87157731  0.06579718  1
  N  N36  1  0.21915784  0.20168971  0.33044386  1
  N  N37  1  0.10226705  0.09872937  0.07405719  1
  N  N38  1  0.90006010  0.20148663  0.81321186  1
  N  N39  1  0.79004110  0.10540004  0.62558288  1
  N  N40  1  0.57925674  0.19288142  0.36846738  1
  N  N41  1  0.45866771  0.06530709  0.12018523  1
  N  N42  1  0.22397284  0.20374040  0.83206391  1
  N  N43  1  0.08262019  0.11129218  0.58653296  1
  N  N44  1  0.87497070  0.19259216  0.33112157  1
  N  N45  1  0.76955056  0.08591390  0.14535083  1
  N  N46  1  0.56109423  0.20465718  0.88182740  1
  N  N47  1  0.45648363  0.09135066  0.62889582  1
  N  N48  1  0.22191611  0.54108034  0.37666524  1
  N  N49  1  0.10576620  0.43366802  0.12499033  1
  N  N50  1  0.88780555  0.54014785  0.87778456  1
  N  N51  1  0.78781815  0.41019542  0.62222219  1
  N  N52  1  0.55049358  0.54394955  0.37797291  1
  N  N53  1  0.44459054  0.42652361  0.12700440  1
  N  N54  1  0.22423052  0.53970532  0.87758486  1
  N  N55  1  0.10912651  0.43368865  0.62657472  1
  N  N56  1  0.88532260  0.54339390  0.37694444  1
  N  N57  1  0.77528487  0.42948456  0.12874634  1
  N  N58  1  0.55875179  0.53649016  0.87738843  1
  N  N59  1  0.44641457  0.42562602  0.62587091  1
  N  N60  1  0.22346282  0.87194497  0.38067921  1
  N  N61  1  0.10998417  0.76185091  0.12843876  1
  N  N62  1  0.88938794  0.87436085  0.88139548  1
  N  N63  1  0.77995957  0.76344651  0.63013371  1
  N  N64  1  0.55568755  0.87081074  0.38188499  1
  N  N65  1  0.45564185  0.77279277  0.12156697  1
  N  N66  1  0.22671161  0.86557284  0.87582112  1
  N  N67  1  0.10917765  0.76160499  0.62682649  1
  N  N68  1  0.87401569  0.89709003  0.36866347  1
  N  N69  1  0.75189187  0.77126650  0.12056372  1
  N  N70  1  0.55737645  0.87074204  0.89979675  1
  N  N71  1  0.44839180  0.76096965  0.63271836  1
