# generated using pymatgen
data_Al11BN12
_symmetry_space_group_name_H-M   'P 1'
_cell_length_a   9.27305189
_cell_length_b   9.27435176
_cell_length_c   10.04140847
_cell_angle_alpha   89.86684894
_cell_angle_beta   89.62587687
_cell_angle_gamma   60.10606395
_symmetry_Int_Tables_number   1
_chemical_formula_structural   Al11BN12
_chemical_formula_sum   'Al33 B3 N36'
_cell_volume   748.66094956
_cell_formula_units_Z   3
loop_
 _symmetry_equiv_pos_site_id
 _symmetry_equiv_pos_as_xyz
  1  'x, y, z'
loop_
 _atom_site_type_symbol
 _atom_site_label
 _atom_site_symmetry_multiplicity
 _atom_site_fract_x
 _atom_site_fract_y
 _atom_site_fract_z
 _atom_site_occupancy
  Al  Al0  1  0.09513816  0.10357216  0.39604524  1
  Al  Al1  1  0.22163687  0.19628397  0.13497873  1
  Al  Al2  1  0.77902439  0.09306806  0.81627848  1
  Al  Al3  1  0.45733545  0.08401309  0.31807439  1
  Al  Al4  1  0.55728032  0.19850226  0.07381166  1
  Al  Al5  1  0.10838654  0.10059687  0.88870605  1
  Al  Al6  1  0.21884991  0.20192572  0.64000494  1
  Al  Al7  1  0.88849922  0.19963643  0.14583341  1
  Al  Al8  1  0.45438664  0.08924482  0.82908842  1
  Al  Al9  1  0.56841256  0.20391478  0.56447055  1
  Al  Al10  1  0.10765477  0.43372757  0.32022188  1
  Al  Al11  1  0.22183769  0.53871059  0.06987851  1
  Al  Al12  1  0.77730014  0.43237871  0.81833328  1
  Al  Al13  1  0.89072670  0.53759586  0.57203689  1
  Al  Al14  1  0.44913931  0.42397783  0.31920542  1
  Al  Al15  1  0.55800971  0.54027822  0.06914598  1
  Al  Al16  1  0.10893220  0.43548999  0.82207229  1
  Al  Al17  1  0.22314379  0.53849179  0.56855409  1
  Al  Al18  1  0.77389029  0.42554333  0.33643310  1
  Al  Al19  1  0.88147165  0.54128594  0.06924274  1
  Al  Al20  1  0.44589278  0.42629315  0.81986436  1
  Al  Al21  1  0.55794327  0.53606038  0.57308957  1
  Al  Al22  1  0.10732741  0.76862102  0.32016875  1
  Al  Al23  1  0.22886106  0.86596241  0.06955666  1
  Al  Al24  1  0.77619386  0.76562208  0.82559925  1
  Al  Al25  1  0.88762761  0.88390354  0.56484683  1
  Al  Al26  1  0.44482281  0.76479805  0.31740313  1
  Al  Al27  1  0.11047245  0.76303004  0.81947874  1
  Al  Al28  1  0.22277897  0.87005430  0.57594216  1
  Al  Al29  1  0.77165347  0.76705592  0.31518527  1
  Al  Al30  1  0.88226374  0.87319757  0.07401894  1
  Al  Al31  1  0.44689244  0.76327645  0.82627695  1
  Al  Al32  1  0.55854775  0.87243147  0.57093226  1
  B  B33  1  0.89527923  0.20378184  0.65066178  1
  B  B34  1  0.77470089  0.08967450  0.31331064  1
  B  B35  1  0.55614722  0.87148073  0.06822843  1
  N  N36  1  0.22079684  0.20071058  0.33315324  1
  N  N37  1  0.10183044  0.09869135  0.07813003  1
  N  N38  1  0.90001480  0.20291477  0.81490358  1
  N  N39  1  0.78992366  0.10596363  0.62751651  1
  N  N40  1  0.58001701  0.19191110  0.37115042  1
  N  N41  1  0.45920212  0.06518622  0.12239062  1
  N  N42  1  0.22392991  0.20417878  0.83613361  1
  N  N43  1  0.08318742  0.11108683  0.58866779  1
  N  N44  1  0.87709063  0.19005145  0.33558779  1
  N  N45  1  0.77013705  0.08608586  0.14882776  1
  N  N46  1  0.56143362  0.20526555  0.88465901  1
  N  N47  1  0.45600776  0.09167105  0.63192091  1
  N  N48  1  0.22238783  0.54011957  0.37919873  1
  N  N49  1  0.10556369  0.43341304  0.12769425  1
  N  N50  1  0.88769052  0.54179379  0.87960638  1
  N  N51  1  0.78766303  0.40989129  0.62239520  1
  N  N52  1  0.55027732  0.54290561  0.38292541  1
  N  N53  1  0.44424686  0.42660043  0.12980944  1
  N  N54  1  0.22352515  0.54065325  0.88072025  1
  N  N55  1  0.10959317  0.43339521  0.62992009  1
  N  N56  1  0.88666172  0.54255768  0.38151447  1
  N  N57  1  0.77528046  0.42836200  0.12891991  1
  N  N58  1  0.55681744  0.53811300  0.87895357  1
  N  N59  1  0.44528702  0.42534189  0.62921480  1
  N  N60  1  0.22517870  0.86987169  0.38298001  1
  N  N61  1  0.10993127  0.76172045  0.13108954  1
  N  N62  1  0.88892893  0.87617225  0.88422588  1
  N  N63  1  0.77931181  0.76495816  0.63315043  1
  N  N64  1  0.55648031  0.86976711  0.38443094  1
  N  N65  1  0.45575109  0.77252040  0.12408079  1
  N  N66  1  0.22563325  0.86699199  0.87858672  1
  N  N67  1  0.10880419  0.76167904  0.62937770  1
  N  N68  1  0.87461019  0.89573304  0.37105226  1
  N  N69  1  0.75219006  0.77111358  0.12312843  1
  N  N70  1  0.55727293  0.87130890  0.90252664  1
  N  N71  1  0.44734924  0.76244479  0.63583867  1
