# generated using pymatgen
data_Al11BN12
_symmetry_space_group_name_H-M   'P 1'
_cell_length_a   9.30536279
_cell_length_b   9.28231477
_cell_length_c   10.06422241
_cell_angle_alpha   89.69467025
_cell_angle_beta   89.60913067
_cell_angle_gamma   59.99030730
_symmetry_Int_Tables_number   1
_chemical_formula_structural   Al11BN12
_chemical_formula_sum   'Al33 B3 N36'
_cell_volume   752.74323731
_cell_formula_units_Z   3
loop_
 _symmetry_equiv_pos_site_id
 _symmetry_equiv_pos_as_xyz
  1  'x, y, z'
loop_
 _atom_site_type_symbol
 _atom_site_label
 _atom_site_symmetry_multiplicity
 _atom_site_fract_x
 _atom_site_fract_y
 _atom_site_fract_z
 _atom_site_occupancy
  Al  Al0  1  0.09840196  0.09944612  0.39412577  1
  Al  Al1  1  0.21797272  0.20051322  0.13738774  1
  Al  Al2  1  0.77854206  0.09477723  0.81335064  1
  Al  Al3  1  0.45824308  0.08388830  0.31567084  1
  Al  Al4  1  0.55718651  0.19812979  0.07266719  1
  Al  Al5  1  0.10651904  0.10048815  0.88459476  1
  Al  Al6  1  0.21504623  0.20882905  0.64163186  1
  Al  Al7  1  0.88668748  0.20366073  0.14461227  1
  Al  Al8  1  0.45432892  0.08985444  0.82663752  1
  Al  Al9  1  0.56796198  0.20377994  0.56361078  1
  Al  Al10  1  0.11479860  0.42183978  0.38538051  1
  Al  Al11  1  0.22560224  0.54141050  0.07280104  1
  Al  Al12  1  0.77988416  0.42235183  0.87918409  1
  Al  Al13  1  0.88635489  0.54111251  0.57906841  1
  Al  Al14  1  0.45154710  0.42403571  0.31868721  1
  Al  Al15  1  0.55033792  0.54403428  0.06833661  1
  Al  Al16  1  0.11520722  0.42325995  0.88788537  1
  Al  Al17  1  0.22682994  0.54263635  0.56879837  1
  Al  Al18  1  0.78130338  0.41041985  0.39124711  1
  Al  Al19  1  0.87850338  0.54666972  0.07269091  1
  Al  Al20  1  0.44509932  0.42696581  0.81819620  1
  Al  Al21  1  0.55415707  0.53908968  0.57596285  1
  Al  Al22  1  0.10791744  0.76812264  0.31875963  1
  Al  Al23  1  0.22763960  0.86866160  0.06856711  1
  Al  Al24  1  0.77592258  0.76640603  0.82336212  1
  Al  Al25  1  0.88750910  0.88501875  0.56294486  1
  Al  Al26  1  0.44671183  0.76327458  0.31763788  1
  Al  Al27  1  0.10936538  0.76197028  0.81938642  1
  Al  Al28  1  0.22163026  0.87290040  0.57935430  1
  Al  Al29  1  0.77225215  0.76511438  0.31494795  1
  Al  Al30  1  0.88142523  0.87476255  0.07261766  1
  Al  Al31  1  0.44669872  0.76418082  0.82531865  1
  Al  Al32  1  0.55695904  0.87503294  0.56947375  1
  B  B33  1  0.89166979  0.21029180  0.64663249  1
  B  B34  1  0.77485105  0.08833154  0.31079975  1
  B  B35  1  0.55430720  0.87385182  0.06695738  1
  N  N36  1  0.21999050  0.20160279  0.32888240  1
  N  N37  1  0.10130069  0.10015689  0.07568044  1
  N  N38  1  0.89578254  0.21064359  0.80870389  1
  N  N39  1  0.78932414  0.10611956  0.62577399  1
  N  N40  1  0.58066132  0.19147857  0.37028237  1
  N  N41  1  0.45769320  0.06618158  0.12133194  1
  N  N42  1  0.22194462  0.20580163  0.83101577  1
  N  N43  1  0.08419436  0.11154864  0.58775083  1
  N  N44  1  0.87870303  0.19052924  0.33127374  1
  N  N45  1  0.76989181  0.08686984  0.14825167  1
  N  N46  1  0.56115460  0.20560578  0.88361791  1
  N  N47  1  0.45449480  0.09339404  0.63141055  1
  N  N48  1  0.22673639  0.54209670  0.37604493  1
  N  N49  1  0.11176260  0.42387707  0.08484021  1
  N  N50  1  0.88659679  0.54569531  0.87297355  1
  N  N51  1  0.79125950  0.39951777  0.58954647  1
  N  N52  1  0.55160776  0.54222126  0.38179802  1
  N  N53  1  0.44596968  0.42558092  0.13065066  1
  N  N54  1  0.22651171  0.54200857  0.87975039  1
  N  N55  1  0.11556006  0.42421847  0.58174187  1
  N  N56  1  0.88311600  0.54296473  0.37573595  1
  N  N57  1  0.77905355  0.41679384  0.07768701  1
  N  N58  1  0.54941106  0.54197363  0.87638600  1
  N  N59  1  0.44602067  0.42512603  0.62910235  1
  N  N60  1  0.22638031  0.86838391  0.38232424  1
  N  N61  1  0.10897473  0.76347767  0.12994551  1
  N  N62  1  0.88770253  0.87789346  0.88324957  1
  N  N63  1  0.77801561  0.76781741  0.63175528  1
  N  N64  1  0.55631602  0.87052075  0.38349973  1
  N  N65  1  0.45546831  0.77290594  0.12376144  1
  N  N66  1  0.22409532  0.86834021  0.87579390  1
  N  N67  1  0.10776447  0.76291070  0.62968956  1
  N  N68  1  0.87519518  0.89538881  0.36954363  1
  N  N69  1  0.75078676  0.77307175  0.12321406  1
  N  N70  1  0.55649239  0.87244965  0.90179950  1
  N  N71  1  0.44736987  0.76423399  0.63549811  1
