# generated using pymatgen
data_Al11BN12
_symmetry_space_group_name_H-M   'P 1'
_cell_length_a   9.26340396
_cell_length_b   9.27206147
_cell_length_c   10.15540434
_cell_angle_alpha   89.76305462
_cell_angle_beta   89.77971208
_cell_angle_gamma   60.17478491
_symmetry_Int_Tables_number   1
_chemical_formula_structural   Al11BN12
_chemical_formula_sum   'Al33 B3 N36'
_cell_volume   756.71497740
_cell_formula_units_Z   3
loop_
 _symmetry_equiv_pos_site_id
 _symmetry_equiv_pos_as_xyz
  1  'x, y, z'
loop_
 _atom_site_type_symbol
 _atom_site_label
 _atom_site_symmetry_multiplicity
 _atom_site_fract_x
 _atom_site_fract_y
 _atom_site_fract_z
 _atom_site_occupancy
  Al  Al0  1  0.09993767  0.09387766  0.39364719  1
  Al  Al1  1  0.21790368  0.20147990  0.13452917  1
  Al  Al2  1  0.77936703  0.09661053  0.81173660  1
  Al  Al3  1  0.45573183  0.08377350  0.31241119  1
  Al  Al4  1  0.55744220  0.19683295  0.07001932  1
  Al  Al5  1  0.10970252  0.09626770  0.88585015  1
  Al  Al6  1  0.21457341  0.21061676  0.63926769  1
  Al  Al7  1  0.88788008  0.20160755  0.14337020  1
  Al  Al8  1  0.45328091  0.09415722  0.82226002  1
  Al  Al9  1  0.56808151  0.20413818  0.56041230  1
  Al  Al10  1  0.10767891  0.42338313  0.38528583  1
  Al  Al11  1  0.22417520  0.54252358  0.06895954  1
  Al  Al12  1  0.78294442  0.42486645  0.88120224  1
  Al  Al13  1  0.89385126  0.53222899  0.63941754  1
  Al  Al14  1  0.45048398  0.42140218  0.31672020  1
  Al  Al15  1  0.55644352  0.54032387  0.09207382  1
  Al  Al16  1  0.10908725  0.42541158  0.88932999  1
  Al  Al17  1  0.22581265  0.54355089  0.56495386  1
  Al  Al18  1  0.78228964  0.41303148  0.39341299  1
  Al  Al19  1  0.88404896  0.53486259  0.13485733  1
  Al  Al20  1  0.44410104  0.42688727  0.81738057  1
  Al  Al21  1  0.56139458  0.53413105  0.60706750  1
  Al  Al22  1  0.10223747  0.76255684  0.31632160  1
  Al  Al23  1  0.22902854  0.87677938  0.13948014  1
  Al  Al24  1  0.77516328  0.77097324  0.82210978  1
  Al  Al25  1  0.88821803  0.88476526  0.56097791  1
  Al  Al26  1  0.43901797  0.75874546  0.39069069  1
  Al  Al27  1  0.10769691  0.75926189  0.81814607  1
  Al  Al28  1  0.21957868  0.88198642  0.64043302  1
  Al  Al29  1  0.76596734  0.77217197  0.31230841  1
  Al  Al30  1  0.88161355  0.87345068  0.07006620  1
  Al  Al31  1  0.44159620  0.76750444  0.88921351  1
  Al  Al32  1  0.55986224  0.87840915  0.56806144  1
  B  B33  1  0.89381058  0.20852071  0.64491736  1
  B  B34  1  0.77376534  0.09028717  0.30971283  1
  B  B35  1  0.55857589  0.87592374  0.06104642  1
  N  N36  1  0.21765148  0.20324162  0.32581551  1
  N  N37  1  0.10467576  0.09360868  0.07305765  1
  N  N38  1  0.89771492  0.21181377  0.80729492  1
  N  N39  1  0.79006540  0.10686046  0.62476824  1
  N  N40  1  0.58000683  0.19032651  0.36859787  1
  N  N41  1  0.45700948  0.06594897  0.11977609  1
  N  N42  1  0.22051663  0.20853012  0.82877198  1
  N  N43  1  0.08685857  0.10776555  0.58391433  1
  N  N44  1  0.87805844  0.19201733  0.32940091  1
  N  N45  1  0.76988117  0.08607852  0.14724111  1
  N  N46  1  0.56221026  0.20715150  0.88282851  1
  N  N47  1  0.45326448  0.09525361  0.63030143  1
  N  N48  1  0.22567746  0.54091868  0.37548269  1
  N  N49  1  0.10759604  0.42420727  0.07830399  1
  N  N50  1  0.89227081  0.53848546  0.82813654  1
  N  N51  1  0.79610109  0.40012719  0.58613989  1
  N  N52  1  0.55787995  0.53450371  0.36359855  1
  N  N53  1  0.44438303  0.42309853  0.12821486  1
  N  N54  1  0.22597572  0.54248550  0.87973462  1
  N  N55  1  0.10923434  0.42591885  0.57455075  1
  N  N56  1  0.88710453  0.53417910  0.32546964  1
  N  N57  1  0.78393896  0.41616648  0.07108140  1
  N  N58  1  0.55589928  0.54278967  0.85059766  1
  N  N59  1  0.44380439  0.42217740  0.62841869  1
  N  N60  1  0.22218638  0.87661252  0.32927713  1
  N  N61  1  0.10592181  0.76017307  0.12795578  1
  N  N62  1  0.88905209  0.87942828  0.88269987  1
  N  N63  1  0.77718558  0.77070404  0.63002836  1
  N  N64  1  0.55628735  0.87407449  0.38263686  1
  N  N65  1  0.45265310  0.77273151  0.08134636  1
  N  N66  1  0.22456277  0.87740681  0.82831116  1
  N  N67  1  0.10617503  0.76112207  0.62679209  1
  N  N68  1  0.87390417  0.89612145  0.36940123  1
  N  N69  1  0.74868783  0.77392393  0.11944607  1
  N  N70  1  0.56202339  0.88101159  0.89792709  1
  N  N71  1  0.43999181  0.76420612  0.58397307  1
