# generated using pymatgen
data_Al11BN12
_symmetry_space_group_name_H-M   'P 1'
_cell_length_a   9.32106250
_cell_length_b   9.29336598
_cell_length_c   10.04634616
_cell_angle_alpha   89.66347887
_cell_angle_beta   89.61388101
_cell_angle_gamma   59.96687112
_symmetry_Int_Tables_number   1
_chemical_formula_structural   Al11BN12
_chemical_formula_sum   'Al33 B3 N36'
_cell_volume   753.39109042
_cell_formula_units_Z   3
loop_
 _symmetry_equiv_pos_site_id
 _symmetry_equiv_pos_as_xyz
  1  'x, y, z'
loop_
 _atom_site_type_symbol
 _atom_site_label
 _atom_site_symmetry_multiplicity
 _atom_site_fract_x
 _atom_site_fract_y
 _atom_site_fract_z
 _atom_site_occupancy
  Al  Al0  1  0.10217160  0.09222377  0.39462776  1
  Al  Al1  1  0.21812582  0.20107693  0.13763228  1
  Al  Al2  1  0.77834101  0.09529375  0.81341397  1
  Al  Al3  1  0.45770676  0.08413756  0.31590212  1
  Al  Al4  1  0.55706407  0.19821089  0.07281093  1
  Al  Al5  1  0.10752830  0.09866080  0.88542862  1
  Al  Al6  1  0.21552391  0.20997200  0.64110974  1
  Al  Al7  1  0.88641776  0.20395774  0.14497715  1
  Al  Al8  1  0.45401960  0.09032194  0.82673623  1
  Al  Al9  1  0.56799538  0.20392893  0.56339715  1
  Al  Al10  1  0.11452483  0.42146930  0.38477061  1
  Al  Al11  1  0.22578906  0.54027257  0.07177316  1
  Al  Al12  1  0.78021812  0.42224857  0.87889164  1
  Al  Al13  1  0.88628230  0.54148481  0.57891904  1
  Al  Al14  1  0.45150855  0.42412855  0.31861739  1
  Al  Al15  1  0.55092085  0.54321113  0.06775609  1
  Al  Al16  1  0.11472096  0.42298109  0.88673423  1
  Al  Al17  1  0.22682839  0.54329601  0.56779196  1
  Al  Al18  1  0.78241961  0.40923491  0.39134991  1
  Al  Al19  1  0.87863946  0.54670120  0.07274771  1
  Al  Al20  1  0.44522807  0.42678205  0.81766564  1
  Al  Al21  1  0.55384275  0.53945727  0.57516962  1
  Al  Al22  1  0.10609383  0.76599379  0.31752010  1
  Al  Al23  1  0.22539809  0.87388304  0.10501155  1
  Al  Al24  1  0.77540091  0.76671806  0.82251653  1
  Al  Al25  1  0.88761220  0.88533338  0.56208444  1
  Al  Al26  1  0.45047917  0.76127783  0.31742222  1
  Al  Al27  1  0.10619364  0.75959652  0.82119623  1
  Al  Al28  1  0.21705804  0.88145627  0.62823137  1
  Al  Al29  1  0.77223018  0.76526805  0.31484783  1
  Al  Al30  1  0.87997802  0.87505507  0.07184277  1
  Al  Al31  1  0.45008700  0.76278342  0.82764083  1
  Al  Al32  1  0.55719647  0.87517216  0.56901701  1
  B  B33  1  0.89021272  0.21144820  0.64688326  1
  B  B34  1  0.77515211  0.08848188  0.31068909  1
  B  B35  1  0.55537035  0.87294804  0.06617751  1
  N  N36  1  0.21983864  0.20148581  0.32958755  1
  N  N37  1  0.10179475  0.09943526  0.07415721  1
  N  N38  1  0.89581170  0.21083191  0.80897532  1
  N  N39  1  0.78945866  0.10648340  0.62556328  1
  N  N40  1  0.58067029  0.19146721  0.36997056  1
  N  N41  1  0.45756429  0.06619515  0.12113660  1
  N  N42  1  0.22185125  0.20565668  0.83113228  1
  N  N43  1  0.08549174  0.11060999  0.58730129  1
  N  N44  1  0.87930209  0.18986028  0.33183440  1
  N  N45  1  0.77007817  0.08707262  0.14773151  1
  N  N46  1  0.56107320  0.20576779  0.88340969  1
  N  N47  1  0.45453570  0.09356555  0.63120596  1
  N  N48  1  0.22672912  0.54135744  0.37542682  1
  N  N49  1  0.11150138  0.42357235  0.08482064  1
  N  N50  1  0.88623819  0.54614143  0.87265134  1
  N  N51  1  0.79153082  0.39941875  0.58974189  1
  N  N52  1  0.55256726  0.54129529  0.38143959  1
  N  N53  1  0.44576748  0.42596178  0.13028197  1
  N  N54  1  0.22694388  0.54069697  0.87923610  1
  N  N55  1  0.11519173  0.42512624  0.58226035  1
  N  N56  1  0.88296275  0.54303315  0.37558113  1
  N  N57  1  0.77965570  0.41649631  0.07754873  1
  N  N58  1  0.54966855  0.54115283  0.87634175  1
  N  N59  1  0.44594146  0.42541771  0.62847245  1
  N  N60  1  0.22437099  0.87277278  0.34605217  1
  N  N61  1  0.10589576  0.76108181  0.12621035  1
  N  N62  1  0.88589733  0.87849529  0.88280989  1
  N  N63  1  0.77806280  0.76822522  0.63111663  1
  N  N64  1  0.55689234  0.87060135  0.38318921  1
  N  N65  1  0.46029993  0.77082946  0.12069199  1
  N  N66  1  0.22064870  0.87404516  0.84762923  1
  N  N67  1  0.10606801  0.76201072  0.62830385  1
  N  N68  1  0.87472011  0.89538937  0.36909560  1
  N  N69  1  0.75089569  0.77306498  0.12291409  1
  N  N70  1  0.55709190  0.87297271  0.90155016  1
  N  N71  1  0.45137625  0.76246022  0.63499581  1
