# generated using pymatgen
data_Al11BN12
_symmetry_space_group_name_H-M   'P 1'
_cell_length_a   9.25680441
_cell_length_b   9.25680442
_cell_length_c   9.88998307
_cell_angle_alpha   90.08145198
_cell_angle_beta   90.08133849
_cell_angle_gamma   60.01877625
_symmetry_Int_Tables_number   1
_chemical_formula_structural   Al11BN12
_chemical_formula_sum   'Al33 B3 N36'
_cell_volume   734.05721026
_cell_formula_units_Z   3
loop_
 _symmetry_equiv_pos_site_id
 _symmetry_equiv_pos_as_xyz
  1  'x, y, z'
loop_
 _atom_site_type_symbol
 _atom_site_label
 _atom_site_symmetry_multiplicity
 _atom_site_fract_x
 _atom_site_fract_y
 _atom_site_fract_z
 _atom_site_occupancy
  Al  Al0  1  0.10194289  0.09579571  0.40496965  1
  Al  Al1  1  0.22474475  0.20015451  0.15055761  1
  Al  Al2  1  0.77848017  0.09509604  0.89210037  1
  Al  Al3  1  0.45089558  0.09096239  0.39436815  1
  Al  Al4  1  0.56406999  0.19772438  0.15499276  1
  Al  Al5  1  0.10700837  0.09621003  0.89376456  1
  Al  Al6  1  0.21934088  0.20603071  0.65010545  1
  Al  Al7  1  0.88631771  0.20293282  0.15259659  1
  Al  Al8  1  0.44800523  0.09033347  0.90440222  1
  Al  Al9  1  0.56146354  0.20471532  0.64320571  1
  Al  Al10  1  0.11098020  0.42759471  0.40096701  1
  Al  Al11  1  0.22229050  0.53890648  0.15132426  1
  Al  Al12  1  0.77959400  0.42362465  0.89376436  1
  Al  Al13  1  0.88941342  0.53595796  0.65010558  1
  Al  Al14  1  0.45011884  0.42460539  0.40046599  1
  Al  Al15  1  0.55912146  0.54151061  0.15023359  1
  Al  Al16  1  0.11122109  0.42783644  0.90098574  1
  Al  Al17  1  0.22270948  0.53932609  0.65084684  1
  Al  Al18  1  0.77918045  0.41855793  0.40496986  1
  Al  Al19  1  0.88353989  0.54135882  0.15055753  1
  Al  Al20  1  0.44550154  0.42594855  0.90058660  1
  Al  Al21  1  0.55870325  0.53557131  0.65072036  1
  Al  Al22  1  0.10798918  0.76673420  0.40046598  1
  Al  Al23  1  0.22489497  0.87573726  0.15023372  1
  Al  Al24  1  0.77371728  0.76462107  0.90440242  1
  Al  Al25  1  0.88809867  0.87807970  0.64320553  1
  Al  Al26  1  0.44634145  0.76295803  0.39453702  1
  Al  Al27  1  0.10933188  0.76211822  0.90058660  1
  Al  Al28  1  0.21895336  0.87532114  0.65072018  1
  Al  Al29  1  0.77434717  0.76750995  0.39436796  1
  Al  Al30  1  0.88110804  0.88068557  0.15499284  1
  Al  Al31  1  0.44732262  0.76393940  0.90474810  1
  Al  Al32  1  0.55592874  0.87254525  0.64977594  1
  B  B33  1  0.88931559  0.20593228  0.64782375  1
  B  B34  1  0.78246444  0.09908014  0.40592260  1
  B  B35  1  0.55614446  0.87275956  0.15537000  1
  N  N36  1  0.22079187  0.20380173  0.34281599  1
  N  N37  1  0.10660659  0.09688590  0.08751298  1
  N  N38  1  0.88735520  0.20397132  0.81504396  1
  N  N39  1  0.78995967  0.10657593  0.57794435  1
  N  N40  1  0.58318521  0.19305748  0.35027854  1
  N  N41  1  0.45786096  0.07118371  0.10096051  1
  N  N42  1  0.22453371  0.20442424  0.84278281  1
  N  N43  1  0.08650951  0.10717971  0.59824576  1
  N  N44  1  0.87631579  0.19293093  0.34505154  1
  N  N45  1  0.77873285  0.09534818  0.08255672  1
  N  N46  1  0.55513104  0.20421848  0.83718334  1
  N  N47  1  0.44464091  0.09306984  0.58645885  1
  N  N48  1  0.22273457  0.53934984  0.34240701  1
  N  N49  1  0.11070592  0.42732065  0.09276202  1
  N  N50  1  0.88780865  0.54114955  0.84278296  1
  N  N51  1  0.79056252  0.40312638  0.59824607  1
  N  N52  1  0.55847359  0.53826273  0.34174852  1
  N  N53  1  0.44662874  0.42501737  0.09408229  1
  N  N54  1  0.22249452  0.53911096  0.84272317  1
  N  N55  1  0.11146283  0.42807965  0.59203513  1
  N  N56  1  0.88718717  0.53740614  0.34281584  1
  N  N57  1  0.78027037  0.42322168  0.08751286  1
  N  N58  1  0.55412306  0.54103110  0.84306938  1
  N  N59  1  0.44438856  0.42864986  0.59098723  1
  N  N60  1  0.22164674  0.87508893  0.34174846  1
  N  N61  1  0.10840126  0.76324470  0.09408244  1
  N  N62  1  0.88760216  0.87174695  0.83718324  1
  N  N63  1  0.77645326  0.76125713  0.58645864  1
  N  N64  1  0.55589363  0.87250889  0.31965457  1
  N  N65  1  0.45727709  0.77389275  0.09911956  1
  N  N66  1  0.22441450  0.87073942  0.84306918  1
  N  N67  1  0.11203329  0.76100500  0.59098723  1
  N  N68  1  0.87644141  0.89980062  0.35027866  1
  N  N69  1  0.75456838  0.77447564  0.10096068  1
  N  N70  1  0.55595000  0.87256595  0.83883784  1
  N  N71  1  0.44520201  0.76181947  0.58778479  1
