# generated using pymatgen
data_Al11BN12
_symmetry_space_group_name_H-M   'P 1'
_cell_length_a   9.25174421
_cell_length_b   9.25221859
_cell_length_c   9.91239264
_cell_angle_alpha   89.93686709
_cell_angle_beta   89.90883850
_cell_angle_gamma   60.00602384
_symmetry_Int_Tables_number   1
_chemical_formula_structural   Al11BN12
_chemical_formula_sum   'Al33 B3 N36'
_cell_volume   734.85966706
_cell_formula_units_Z   3
loop_
 _symmetry_equiv_pos_site_id
 _symmetry_equiv_pos_as_xyz
  1  'x, y, z'
loop_
 _atom_site_type_symbol
 _atom_site_label
 _atom_site_symmetry_multiplicity
 _atom_site_fract_x
 _atom_site_fract_y
 _atom_site_fract_z
 _atom_site_occupancy
  Al  Al0  1  0.10101617  0.09539359  0.40355583  1
  Al  Al1  1  0.22468256  0.20014159  0.14916390  1
  Al  Al2  1  0.77881075  0.09541837  0.88907382  1
  Al  Al3  1  0.45099971  0.09061590  0.39229956  1
  Al  Al4  1  0.56358778  0.19780550  0.15026791  1
  Al  Al5  1  0.10778912  0.09623511  0.89235334  1
  Al  Al6  1  0.21956896  0.20587219  0.64806164  1
  Al  Al7  1  0.88646446  0.20309404  0.14895975  1
  Al  Al8  1  0.44766357  0.09028096  0.90246181  1
  Al  Al9  1  0.56216307  0.20494715  0.64317029  1
  Al  Al10  1  0.11064519  0.42730069  0.39957219  1
  Al  Al11  1  0.22215603  0.53878546  0.14982094  1
  Al  Al12  1  0.77960662  0.42441112  0.89232036  1
  Al  Al13  1  0.88928902  0.53615250  0.64812046  1
  Al  Al14  1  0.45034603  0.42384438  0.39843515  1
  Al  Al15  1  0.55897109  0.54172651  0.14869371  1
  Al  Al16  1  0.11135040  0.42794914  0.89892837  1
  Al  Al17  1  0.22273667  0.53933136  0.64863551  1
  Al  Al18  1  0.77874529  0.41768809  0.40354624  1
  Al  Al19  1  0.88353920  0.54127519  0.14915143  1
  Al  Al20  1  0.44509694  0.42680562  0.89895423  1
  Al  Al21  1  0.55881488  0.53550297  0.64879426  1
  Al  Al22  1  0.10718500  0.76699078  0.39847593  1
  Al  Al23  1  0.22509084  0.87559233  0.14872376  1
  Al  Al24  1  0.77363768  0.76430803  0.90251580  1
  Al  Al25  1  0.88835277  0.87872388  0.64320535  1
  Al  Al26  1  0.44603028  0.76270717  0.39297700  1
  Al  Al27  1  0.11013188  0.76173648  0.89903466  1
  Al  Al28  1  0.21888974  0.87540085  0.64883796  1
  Al  Al29  1  0.77393742  0.76763264  0.39235735  1
  Al  Al30  1  0.88111957  0.88024986  0.15039465  1
  Al  Al31  1  0.44736808  0.76400677  0.90267936  1
  Al  Al32  1  0.55628198  0.87288733  0.64757359  1
  B  B33  1  0.88854361  0.20507253  0.64759176  1
  B  B34  1  0.78112254  0.09778247  0.39525509  1
  B  B35  1  0.55594976  0.87251150  0.15313801  1
  N  N36  1  0.22050501  0.20350783  0.34110480  1
  N  N37  1  0.10739760  0.09662360  0.08559797  1
  N  N38  1  0.88832811  0.20491134  0.81488144  1
  N  N39  1  0.79069210  0.10723342  0.58256278  1
  N  N40  1  0.58392882  0.19216302  0.34560658  1
  N  N41  1  0.45755957  0.07090640  0.09854820  1
  N  N42  1  0.22480088  0.20463064  0.84042652  1
  N  N43  1  0.08670214  0.10703961  0.59646809  1
  N  N44  1  0.87561301  0.19224618  0.34129095  1
  N  N45  1  0.77897843  0.09551927  0.07915117  1
  N  N46  1  0.55439098  0.20498169  0.83672366  1
  N  N47  1  0.44547645  0.09369655  0.58418105  1
  N  N48  1  0.22248138  0.53910981  0.34051862  1
  N  N49  1  0.11077444  0.42732214  0.09064923  1
  N  N50  1  0.88804649  0.54140471  0.84048283  1
  N  N51  1  0.79050771  0.40326397  0.59645991  1
  N  N52  1  0.55827054  0.53802211  0.33977376  1
  N  N53  1  0.44628363  0.42582612  0.09193256  1
  N  N54  1  0.22266358  0.53928843  0.84025116  1
  N  N55  1  0.11154056  0.42809368  0.59005840  1
  N  N56  1  0.88688503  0.53713760  0.34109307  1
  N  N57  1  0.78005448  0.42395676  0.08556342  1
  N  N58  1  0.55428822  0.54122575  0.84088376  1
  N  N59  1  0.44469543  0.42837780  0.58861856  1
  N  N60  1  0.22137738  0.87488842  0.33979574  1
  N  N61  1  0.10917401  0.76288782  0.09201645  1
  N  N62  1  0.88837878  0.87097333  0.83674168  1
  N  N63  1  0.77715815  0.76198946  0.58422374  1
  N  N64  1  0.55561285  0.87224741  0.31744442  1
  N  N65  1  0.45729027  0.77387366  0.09696880  1
  N  N66  1  0.22459539  0.87088198  0.84093230  1
  N  N67  1  0.11182511  0.76123677  0.58864452  1
  N  N68  1  0.87548514  0.90058204  0.34570749  1
  N  N69  1  0.75430827  0.77414518  0.09859634  1
  N  N70  1  0.55612251  0.87270922  0.83644335  1
  N  N71  1  0.44547429  0.76206080  0.58576365  1
