# generated using pymatgen
data_Al11BN12
_symmetry_space_group_name_H-M   'P 1'
_cell_length_a   9.29138315
_cell_length_b   9.29288041
_cell_length_c   9.97288897
_cell_angle_alpha   89.43952110
_cell_angle_beta   89.38442334
_cell_angle_gamma   59.96624202
_symmetry_Int_Tables_number   1
_chemical_formula_structural   Al11BN12
_chemical_formula_sum   'Al33 B3 N36'
_cell_volume   745.42475643
_cell_formula_units_Z   3
loop_
 _symmetry_equiv_pos_site_id
 _symmetry_equiv_pos_as_xyz
  1  'x, y, z'
loop_
 _atom_site_type_symbol
 _atom_site_label
 _atom_site_symmetry_multiplicity
 _atom_site_fract_x
 _atom_site_fract_y
 _atom_site_fract_z
 _atom_site_occupancy
  Al  Al0  1  0.09970208  0.09490015  0.40590256  1
  Al  Al1  1  0.22494358  0.20035829  0.15122864  1
  Al  Al2  1  0.77802930  0.09819790  0.85333117  1
  Al  Al3  1  0.45050869  0.08874247  0.38918332  1
  Al  Al4  1  0.56020339  0.19933577  0.08311815  1
  Al  Al5  1  0.10910251  0.09632821  0.89824306  1
  Al  Al6  1  0.21844662  0.20553845  0.64930301  1
  Al  Al7  1  0.88693623  0.20345889  0.14944678  1
  Al  Al8  1  0.44182809  0.08631884  0.89974818  1
  Al  Al9  1  0.57025287  0.20080045  0.59253605  1
  Al  Al10  1  0.11026350  0.42748380  0.40102298  1
  Al  Al11  1  0.22205031  0.53935658  0.15164489  1
  Al  Al12  1  0.77963250  0.42610222  0.89836235  1
  Al  Al13  1  0.88920617  0.53403652  0.64954840  1
  Al  Al14  1  0.44877564  0.42915639  0.39583153  1
  Al  Al15  1  0.55932027  0.54271717  0.15073937  1
  Al  Al16  1  0.11118930  0.42765135  0.89956891  1
  Al  Al17  1  0.22296739  0.53747930  0.64893271  1
  Al  Al18  1  0.77844079  0.41652625  0.40573060  1
  Al  Al19  1  0.88379150  0.54169695  0.15137671  1
  Al  Al20  1  0.44035771  0.43460069  0.89844519  1
  Al  Al21  1  0.55917891  0.53457893  0.65030343  1
  Al  Al22  1  0.10823596  0.76818349  0.39790250  1
  Al  Al23  1  0.22562186  0.87593527  0.15080246  1
  Al  Al24  1  0.76991608  0.75928683  0.89964229  1
  Al  Al25  1  0.88792926  0.87919799  0.62132723  1
  Al  Al26  1  0.44651999  0.76313842  0.39435585  1
  Al  Al27  1  0.11664052  0.75798977  0.89775164  1
  Al  Al28  1  0.21891451  0.87573099  0.65027108  1
  Al  Al29  1  0.77339596  0.76887551  0.39093032  1
  Al  Al30  1  0.88238611  0.87704509  0.09356287  1
  Al  Al31  1  0.44648107  0.76323599  0.90419439  1
  Al  Al32  1  0.55474708  0.87181012  0.64717363  1
  B  B33  1  0.89082883  0.20748589  0.66284941  1
  B  B34  1  0.77939462  0.09258619  0.36318376  1
  B  B35  1  0.55478975  0.87232267  0.15278188  1
  N  N36  1  0.21958667  0.20435189  0.34238039  1
  N  N37  1  0.10923139  0.09683359  0.08946113  1
  N  N38  1  0.89627589  0.21328763  0.82426220  1
  N  N39  1  0.78957706  0.10736774  0.64683473  1
  N  N40  1  0.59071975  0.18955233  0.38066135  1
  N  N41  1  0.45503934  0.06665652  0.09848713  1
  N  N42  1  0.22292889  0.20514589  0.84020791  1
  N  N43  1  0.08535123  0.10695326  0.59860240  1
  N  N44  1  0.87410108  0.19054460  0.34265965  1
  N  N45  1  0.78372654  0.09899376  0.08211309  1
  N  N46  1  0.54779567  0.20749043  0.87912325  1
  N  N47  1  0.44302552  0.09164490  0.58387196  1
  N  N48  1  0.22143373  0.54016789  0.34147328  1
  N  N49  1  0.11152016  0.42801098  0.09127705  1
  N  N50  1  0.88857917  0.53974729  0.84042176  1
  N  N51  1  0.79050853  0.40164975  0.59847605  1
  N  N52  1  0.55950577  0.53951778  0.34074242  1
  N  N53  1  0.44335055  0.43439363  0.09384507  1
  N  N54  1  0.22206526  0.53889342  0.83859332  1
  N  N55  1  0.11133154  0.42769043  0.59064251  1
  N  N56  1  0.88719570  0.53722852  0.34268694  1
  N  N57  1  0.78039718  0.42582912  0.08956799  1
  N  N58  1  0.55549807  0.54162088  0.84145146  1
  N  N59  1  0.44344627  0.43122090  0.58843807  1
  N  N60  1  0.22253071  0.87556198  0.34114033  1
  N  N61  1  0.11631090  0.76046900  0.09170501  1
  N  N62  1  0.89052084  0.86505253  0.86509971  1
  N  N63  1  0.77588007  0.75974916  0.58526227  1
  N  N64  1  0.55622350  0.87184850  0.31695205  1
  N  N65  1  0.45692318  0.77364747  0.09770884  1
  N  N66  1  0.22503132  0.87220009  0.84141421  1
  N  N67  1  0.11484467  0.75958913  0.58982798  1
  N  N68  1  0.87344957  0.90599069  0.36995855  1
  N  N69  1  0.75092762  0.77178880  0.09684765  1
  N  N70  1  0.55435399  0.87108681  0.83459880  1
  N  N71  1  0.44523512  0.76117748  0.58613406  1
