# generated using pymatgen
data_Al11BN12
_symmetry_space_group_name_H-M   'P 1'
_cell_length_a   9.27072726
_cell_length_b   9.27072909
_cell_length_c   10.04640066
_cell_angle_alpha   89.52464189
_cell_angle_beta   89.52464928
_cell_angle_gamma   59.99346645
_symmetry_Int_Tables_number   1
_chemical_formula_structural   Al11BN12
_chemical_formula_sum   'Al33 B3 N36'
_cell_volume   747.68780429
_cell_formula_units_Z   3
loop_
 _symmetry_equiv_pos_site_id
 _symmetry_equiv_pos_as_xyz
  1  'x, y, z'
loop_
 _atom_site_type_symbol
 _atom_site_label
 _atom_site_symmetry_multiplicity
 _atom_site_fract_x
 _atom_site_fract_y
 _atom_site_fract_z
 _atom_site_occupancy
  Al  Al0  1  0.09866581  0.09608876  0.40520986  1
  Al  Al1  1  0.22257113  0.19982302  0.14943105  1
  Al  Al2  1  0.77749115  0.09409295  0.82584927  1
  Al  Al3  1  0.44789367  0.08895820  0.38483287  1
  Al  Al4  1  0.56022975  0.19792301  0.09242698  1
  Al  Al5  1  0.11005762  0.09642375  0.89439281  1
  Al  Al6  1  0.22081239  0.20596658  0.64777996  1
  Al  Al7  1  0.88932725  0.20593027  0.15371535  1
  Al  Al8  1  0.44553085  0.08667136  0.90233005  1
  Al  Al9  1  0.57212203  0.20053741  0.57273528  1
  Al  Al10  1  0.10994510  0.42654584  0.39988835  1
  Al  Al11  1  0.22147352  0.53807721  0.15109594  1
  Al  Al12  1  0.77982337  0.42665843  0.89439270  1
  Al  Al13  1  0.88936481  0.53741377  0.64778004  1
  Al  Al14  1  0.44743448  0.42999500  0.39139487  1
  Al  Al15  1  0.55880961  0.54311847  0.14971125  1
  Al  Al16  1  0.11200325  0.42860336  0.89783450  1
  Al  Al17  1  0.22287092  0.53947269  0.64714960  1
  Al  Al18  1  0.77948671  0.41526832  0.40520985  1
  Al  Al19  1  0.88322188  0.53917267  0.14943080  1
  Al  Al20  1  0.44336556  0.43322397  0.90140970  1
  Al  Al21  1  0.55868944  0.53442559  0.64874884  1
  Al  Al22  1  0.11339087  0.76403767  0.39139539  1
  Al  Al23  1  0.22651544  0.87541219  0.14971133  1
  Al  Al24  1  0.77007062  0.76213190  0.90232937  1
  Al  Al25  1  0.88393395  0.88872406  0.57273628  1
  Al  Al26  1  0.44643671  0.76303975  0.39444482  1
  Al  Al27  1  0.11662390  0.75996581  0.90140960  1
  Al  Al28  1  0.21782262  0.87529216  0.64874875  1
  Al  Al29  1  0.77235706  0.76449458  0.38483291  1
  Al  Al30  1  0.88131890  0.87683365  0.09242535  1
  Al  Al31  1  0.44731480  0.76391609  0.90155210  1
  Al  Al32  1  0.55621524  0.87281686  0.64510123  1
  B  B33  1  0.89341603  0.21001795  0.65787730  1
  B  B34  1  0.77514734  0.09174995  0.31971568  1
  B  B35  1  0.55365548  0.87025723  0.15148794  1
  N  N36  1  0.21782791  0.20431351  0.33930535  1
  N  N37  1  0.10626499  0.09567253  0.08427034  1
  N  N38  1  0.89570511  0.21230605  0.82059118  1
  N  N39  1  0.78882739  0.10542988  0.63859508  1
  N  N40  1  0.58495664  0.19173355  0.37586287  1
  N  N41  1  0.45229671  0.06605290  0.09795366  1
  N  N42  1  0.22657711  0.20545828  0.83833200  1
  N  N43  1  0.08582613  0.10783459  0.59776454  1
  N  N44  1  0.87878317  0.19538570  0.34137542  1
  N  N45  1  0.77285400  0.08945684  0.15950843  1
  N  N46  1  0.56319117  0.20171410  0.89539361  1
  N  N47  1  0.44326123  0.09188171  0.57988178  1
  N  N48  1  0.22133723  0.53794038  0.33869587  1
  N  N49  1  0.11065506  0.42725617  0.08836067  1
  N  N50  1  0.88885785  0.54317788  0.83833208  1
  N  N51  1  0.79123233  0.40242826  0.59776465  1
  N  N52  1  0.55986087  0.53988629  0.33865966  1
  N  N53  1  0.44274243  0.43443284  0.09461771  1
  N  N54  1  0.22354059  0.54014095  0.83757943  1
  N  N55  1  0.11165390  0.42825545  0.58881272  1
  N  N56  1  0.88771257  0.53442913  0.33930519  1
  N  N57  1  0.77907022  0.42286758  0.08427029  1
  N  N58  1  0.55543638  0.54168575  0.83904434  1
  N  N59  1  0.44364878  0.43111290  0.58483811  1
  N  N60  1  0.22328325  0.87646302  0.33865973  1
  N  N61  1  0.11782920  0.75934567  0.09461748  1
  N  N62  1  0.88511344  0.87979213  0.89539222  1
  N  N63  1  0.77527994  0.75986211  0.57988187  1
  N  N64  1  0.55458495  0.87118626  0.31418851  1
  N  N65  1  0.45646207  0.77306468  0.09458436  1
  N  N66  1  0.22508477  0.87203725  0.83904418  1
  N  N67  1  0.11450980  0.76025110  0.58483871  1
  N  N68  1  0.87512994  0.90155977  0.37586373  1
  N  N69  1  0.74945113  0.76889855  0.09795320  1
  N  N70  1  0.55622952  0.87283056  0.83258792  1
  N  N71  1  0.44511339  0.76171614  0.58529754  1
