# generated using pymatgen
data_Sc5Al13N18
_symmetry_space_group_name_H-M   'P 1'
_cell_length_a   10.35598768
_cell_length_b   10.34865513
_cell_length_c   8.65046960
_cell_angle_alpha   90.14572168
_cell_angle_beta   90.03002289
_cell_angle_gamma   60.03954502
_symmetry_Int_Tables_number   1
_chemical_formula_structural   Sc5Al13N18
_chemical_formula_sum   'Sc10 Al26 N36'
_cell_volume   803.18781290
_cell_formula_units_Z   2
loop_
 _symmetry_equiv_pos_site_id
 _symmetry_equiv_pos_as_xyz
  1  'x, y, z'
loop_
 _atom_site_type_symbol
 _atom_site_label
 _atom_site_symmetry_multiplicity
 _atom_site_fract_x
 _atom_site_fract_y
 _atom_site_fract_z
 _atom_site_occupancy
  Al  Al0  1  0.11415404  0.09231009  0.35026367  1
  Al  Al1  1  0.77082580  0.09765101  0.85397894  1
  Al  Al2  1  0.45153391  0.09017571  0.35119626  1
  Al  Al3  1  0.55834731  0.20148114  0.08903975  1
  Al  Al4  1  0.23262700  0.19634246  0.59433260  1
  Al  Al5  1  0.77350387  0.09694738  0.33171952  1
  Al  Al6  1  0.88387629  0.20612066  0.10057745  1
  Al  Al7  1  0.45405862  0.09344147  0.83908783  1
  Al  Al8  1  0.56006490  0.19959867  0.59782421  1
  Al  Al9  1  0.11000483  0.42208027  0.35024903  1
  Al  Al10  1  0.22078967  0.54133436  0.10018978  1
  Al  Al11  1  0.76851397  0.42777632  0.85791723  1
  Al  Al12  1  0.55681368  0.53936983  0.10091612  1
  Al  Al13  1  0.77700714  0.42730820  0.33942388  1
  Al  Al14  1  0.88391966  0.53988937  0.10077955  1
  Al  Al15  1  0.45118227  0.42340655  0.85470306  1
  Al  Al16  1  0.55334568  0.54091334  0.59094313  1
  Al  Al17  1  0.22322449  0.86979351  0.10268856  1
  Al  Al18  1  0.77483557  0.76627076  0.85603787  1
  Al  Al19  1  0.88256186  0.87981744  0.62030398  1
  Al  Al20  1  0.44616343  0.76680884  0.34736165  1
  Al  Al21  1  0.55856331  0.87472450  0.09417591  1
  Al  Al22  1  0.10912015  0.76330935  0.85811991  1
  Al  Al23  1  0.22537405  0.87265058  0.59535678  1
  Al  Al24  1  0.88622563  0.87627693  0.09574702  1
  Al  Al25  1  0.55393980  0.87812151  0.59803955  1
  Sc  Sc26  1  0.23301430  0.19797280  0.10759135  1
  Sc  Sc27  1  0.88193702  0.20394966  0.59703402  1
  Sc  Sc28  1  0.10985692  0.09159742  0.85194292  1
  Sc  Sc29  1  0.88163811  0.53930464  0.60295687  1
  Sc  Sc30  1  0.45091007  0.42108127  0.34631322  1
  Sc  Sc31  1  0.11102267  0.42588674  0.85592479  1
  Sc  Sc32  1  0.22464264  0.53949740  0.60494861  1
  Sc  Sc33  1  0.10557388  0.76926495  0.34907270  1
  Sc  Sc34  1  0.77469502  0.76636037  0.34856015  1
  Sc  Sc35  1  0.44909030  0.75800512  0.85123335  1
  N  N36  1  0.22785283  0.20186413  0.35899374  1
  N  N37  1  0.10272171  0.08700480  0.11170453  1
  N  N38  1  0.87237033  0.21358194  0.86056528  1
  N  N39  1  0.76804487  0.08642320  0.61767680  1
  N  N40  1  0.56614797  0.18856874  0.35951595  1
  N  N41  1  0.46697541  0.08398010  0.11318125  1
  N  N42  1  0.24462478  0.19130986  0.85206545  1
  N  N43  1  0.12550797  0.08681457  0.59269236  1
  N  N44  1  0.88331489  0.20615278  0.34200783  1
  N  N45  1  0.77364178  0.09792395  0.09631200  1
  N  N46  1  0.55355357  0.20600436  0.85659085  1
  N  N47  1  0.44776259  0.09470109  0.60313893  1
  N  N48  1  0.21446084  0.53181248  0.34667985  1
  N  N49  1  0.10354113  0.43923612  0.10780393  1
  N  N50  1  0.86859823  0.54621458  0.86127633  1
  N  N51  1  0.75798317  0.43470124  0.60312700  1
  N  N52  1  0.56185958  0.54936270  0.34682386  1
  N  N53  1  0.44566850  0.42377553  0.09567612  1
  N  N54  1  0.23053629  0.54507404  0.85985694  1
  N  N55  1  0.11812438  0.40964348  0.59930225  1
  N  N56  1  0.89440429  0.52345363  0.34404965  1
  N  N57  1  0.77632028  0.42675618  0.10437577  1
  N  N58  1  0.56005724  0.52519296  0.86434914  1
  N  N59  1  0.46196475  0.41830116  0.60817990  1
  N  N60  1  0.23239820  0.87745134  0.35050946  1
  N  N61  1  0.11089914  0.76160049  0.09445714  1
  N  N62  1  0.88883732  0.87230229  0.85945501  1
  N  N63  1  0.77146834  0.77752866  0.60964870  1
  N  N64  1  0.54195936  0.88052719  0.36056304  1
  N  N65  1  0.44654466  0.76483359  0.10909881  1
  N  N66  1  0.21786926  0.86262279  0.85609572  1
  N  N67  1  0.09841458  0.78154498  0.60871731  1
  N  N68  1  0.87810649  0.89262426  0.33662361  1
  N  N69  1  0.77647625  0.76140835  0.09397681  1
  N  N70  1  0.56293902  0.88302266  0.85305537  1
  N  N71  1  0.44503570  0.75974184  0.59597159  1
