# generated using pymatgen
data_Sc5Al13N18
_symmetry_space_group_name_H-M   'P 1'
_cell_length_a   10.13789244
_cell_length_b   10.12773575
_cell_length_c   9.28042810
_cell_angle_alpha   90.08940675
_cell_angle_beta   90.03185840
_cell_angle_gamma   59.97442726
_symmetry_Int_Tables_number   1
_chemical_formula_structural   Sc5Al13N18
_chemical_formula_sum   'Sc10 Al26 N36'
_cell_volume   824.98522181
_cell_formula_units_Z   2
loop_
 _symmetry_equiv_pos_site_id
 _symmetry_equiv_pos_as_xyz
  1  'x, y, z'
loop_
 _atom_site_type_symbol
 _atom_site_label
 _atom_site_symmetry_multiplicity
 _atom_site_fract_x
 _atom_site_fract_y
 _atom_site_fract_z
 _atom_site_occupancy
  Al  Al0  1  0.10756012  0.09452309  0.33273444  1
  Al  Al1  1  0.77044142  0.09425328  0.83904907  1
  Al  Al2  1  0.45541605  0.08787412  0.33643332  1
  Al  Al3  1  0.55720898  0.20321304  0.07651481  1
  Al  Al4  1  0.23104029  0.19696511  0.57205057  1
  Al  Al5  1  0.77455778  0.09761215  0.31931956  1
  Al  Al6  1  0.88247348  0.20574620  0.08149513  1
  Al  Al7  1  0.45251722  0.09529524  0.82381997  1
  Al  Al8  1  0.56090303  0.19783631  0.58190692  1
  Al  Al9  1  0.10655815  0.42627170  0.32791899  1
  Al  Al10  1  0.22261820  0.54481935  0.07947419  1
  Al  Al11  1  0.76420451  0.42925355  0.83762045  1
  Al  Al12  1  0.55660221  0.53458292  0.08764612  1
  Al  Al13  1  0.78139930  0.42505612  0.32210991  1
  Al  Al14  1  0.87916530  0.54603475  0.07939835  1
  Al  Al15  1  0.45383121  0.42231098  0.83355805  1
  Al  Al16  1  0.55419839  0.54539154  0.57314354  1
  Al  Al17  1  0.21802485  0.86805946  0.08713473  1
  Al  Al18  1  0.77508341  0.77037123  0.82949781  1
  Al  Al19  1  0.87914466  0.88591655  0.58317813  1
  Al  Al20  1  0.44731344  0.76829502  0.32346983  1
  Al  Al21  1  0.56493221  0.87593517  0.07540448  1
  Al  Al22  1  0.10600161  0.76781089  0.83144607  1
  Al  Al23  1  0.23030024  0.87446282  0.57394387  1
  Al  Al24  1  0.88913543  0.87056120  0.07695202  1
  Al  Al25  1  0.54837540  0.87766876  0.58385644  1
  Sc  Sc26  1  0.23502502  0.19550693  0.10634202  1
  Sc  Sc27  1  0.88412015  0.20291567  0.59279545  1
  Sc  Sc28  1  0.11379223  0.09066051  0.84559307  1
  Sc  Sc29  1  0.88552798  0.53516524  0.59925119  1
  Sc  Sc30  1  0.44780186  0.42273088  0.34451480  1
  Sc  Sc31  1  0.11331664  0.42158405  0.85542114  1
  Sc  Sc32  1  0.22258778  0.53657048  0.60326478  1
  Sc  Sc33  1  0.10800291  0.76549916  0.34535381  1
  Sc  Sc34  1  0.77443153  0.76268746  0.34532263  1
  Sc  Sc35  1  0.44890635  0.75765735  0.84915626  1
  N  N36  1  0.22496962  0.20404632  0.35659026  1
  N  N37  1  0.09911142  0.08620927  0.11724650  1
  N  N38  1  0.87128665  0.21254683  0.86788216  1
  N  N39  1  0.76499799  0.08873018  0.63493939  1
  N  N40  1  0.56819345  0.18682564  0.37582058  1
  N  N41  1  0.47321246  0.08133537  0.13178103  1
  N  N42  1  0.24998662  0.18706484  0.87978285  1
  N  N43  1  0.13001085  0.08605215  0.60774513  1
  N  N44  1  0.88341763  0.20682304  0.35714402  1
  N  N45  1  0.77572693  0.09406423  0.11134177  1
  N  N46  1  0.55256366  0.20689806  0.87067521  1
  N  N47  1  0.44449934  0.09617966  0.61588692  1
  N  N48  1  0.21141510  0.52867543  0.36984003  1
  N  N49  1  0.10084854  0.44514016  0.10817028  1
  N  N50  1  0.86443517  0.55102249  0.86478351  1
  N  N51  1  0.75460073  0.43571030  0.63004798  1
  N  N52  1  0.56511283  0.55150533  0.36185678  1
  N  N53  1  0.44233784  0.42498240  0.11313013  1
  N  N54  1  0.23180257  0.54748243  0.85970170  1
  N  N55  1  0.12116993  0.40190335  0.62439145  1
  N  N56  1  0.89705131  0.51843942  0.36349242  1
  N  N57  1  0.77813357  0.42669980  0.11511440  1
  N  N58  1  0.55892348  0.52227771  0.88295237  1
  N  N59  1  0.46453322  0.41815942  0.61308742  1
  N  N60  1  0.23441095  0.87915659  0.36262604  1
  N  N61  1  0.10805919  0.75982656  0.11366003  1
  N  N62  1  0.88989469  0.87090972  0.87023830  1
  N  N63  1  0.76871176  0.77921599  0.61476296  1
  N  N64  1  0.53852056  0.88086714  0.37782891  1
  N  N65  1  0.44825844  0.76453313  0.11181848  1
  N  N66  1  0.21556964  0.86094202  0.88063641  1
  N  N67  1  0.09998084  0.78561825  0.61473390  1
  N  N68  1  0.87633953  0.89581716  0.37501335  1
  N  N69  1  0.77919582  0.76152022  0.11256110  1
  N  N70  1  0.56590165  0.88564733  0.86838010  1
  N  N71  1  0.44423866  0.76004539  0.61648857  1
