# generated using pymatgen
data_Sc5Al13N18
_symmetry_space_group_name_H-M   'P 1'
_cell_length_a   9.94180027
_cell_length_b   9.93244109
_cell_length_c   9.84209594
_cell_angle_alpha   89.97363830
_cell_angle_beta   89.98586202
_cell_angle_gamma   59.97005382
_symmetry_Int_Tables_number   1
_chemical_formula_structural   Sc5Al13N18
_chemical_formula_sum   'Sc10 Al26 N36'
_cell_volume   841.41079646
_cell_formula_units_Z   2
loop_
 _symmetry_equiv_pos_site_id
 _symmetry_equiv_pos_as_xyz
  1  'x, y, z'
loop_
 _atom_site_type_symbol
 _atom_site_label
 _atom_site_symmetry_multiplicity
 _atom_site_fract_x
 _atom_site_fract_y
 _atom_site_fract_z
 _atom_site_occupancy
  Al  Al0  1  0.10629991  0.09379870  0.32205896  1
  Al  Al1  1  0.77055758  0.09408178  0.82983255  1
  Al  Al2  1  0.45459974  0.08845669  0.32762415  1
  Al  Al3  1  0.55852109  0.20388814  0.07117220  1
  Al  Al4  1  0.23098794  0.19735714  0.56498248  1
  Al  Al5  1  0.77497524  0.09695088  0.31693704  1
  Al  Al6  1  0.88127659  0.20539415  0.07361887  1
  Al  Al7  1  0.45244671  0.09524702  0.82129462  1
  Al  Al8  1  0.56013084  0.19635733  0.57599868  1
  Al  Al9  1  0.10617379  0.42810142  0.31702201  1
  Al  Al10  1  0.22453171  0.54641559  0.06662043  1
  Al  Al11  1  0.76487837  0.42853339  0.82954098  1
  Al  Al12  1  0.55633407  0.53346259  0.07749184  1
  Al  Al13  1  0.78124754  0.42521475  0.31779045  1
  Al  Al14  1  0.87677041  0.54773976  0.06979424  1
  Al  Al15  1  0.45608040  0.42089963  0.82176326  1
  Al  Al16  1  0.55534214  0.54567122  0.57051624  1
  Al  Al17  1  0.21686603  0.86765080  0.07734829  1
  Al  Al18  1  0.77392566  0.77147462  0.82110618  1
  Al  Al19  1  0.87854016  0.88568779  0.57727910  1
  Al  Al20  1  0.44612923  0.76822464  0.31818715  1
  Al  Al21  1  0.56593710  0.87552052  0.07116813  1
  Al  Al22  1  0.10524268  0.76995690  0.82099516  1
  Al  Al23  1  0.23032920  0.87546574  0.56945376  1
  Al  Al24  1  0.88954361  0.87045591  0.07026175  1
  Al  Al25  1  0.54690411  0.87844756  0.57590371  1
  Sc  Sc26  1  0.23360009  0.19578781  0.10177483  1
  Sc  Sc27  1  0.88613587  0.20159530  0.58226715  1
  Sc  Sc28  1  0.11417550  0.09227371  0.83550286  1
  Sc  Sc29  1  0.88789581  0.53394305  0.59058079  1
  Sc  Sc30  1  0.44676758  0.42438482  0.33842985  1
  Sc  Sc31  1  0.11311291  0.42179699  0.85156161  1
  Sc  Sc32  1  0.22169489  0.53604071  0.59865434  1
  Sc  Sc33  1  0.10911633  0.76418981  0.33715201  1
  Sc  Sc34  1  0.77481904  0.76127840  0.33692881  1
  Sc  Sc35  1  0.44961192  0.75842607  0.84177339  1
  N  N36  1  0.22414877  0.20450243  0.35696393  1
  N  N37  1  0.09757496  0.08419024  0.12430626  1
  N  N38  1  0.87060634  0.21233637  0.87601160  1
  N  N39  1  0.76465751  0.08873431  0.63933220  1
  N  N40  1  0.56730258  0.18639105  0.38299938  1
  N  N41  1  0.47498402  0.08111946  0.13681519  1
  N  N42  1  0.25161029  0.18569411  0.89099938  1
  N  N43  1  0.13169514  0.08628240  0.61719338  1
  N  N44  1  0.88401946  0.20667484  0.36428723  1
  N  N45  1  0.77628624  0.09340201  0.12150507  1
  N  N46  1  0.55377299  0.20693647  0.87703646  1
  N  N47  1  0.44372972  0.09565464  0.62470826  1
  N  N48  1  0.20976410  0.52735579  0.38272062  1
  N  N49  1  0.09991367  0.44838901  0.11037928  1
  N  N50  1  0.86176316  0.55259520  0.87102790  1
  N  N51  1  0.75591667  0.43459848  0.63795811  1
  N  N52  1  0.56591566  0.55261454  0.37413580  1
  N  N53  1  0.44184036  0.42639829  0.12082623  1
  N  N54  1  0.23340268  0.54874250  0.86208079  1
  N  N55  1  0.12267750  0.39806295  0.63741333  1
  N  N56  1  0.89924630  0.51588337  0.37239686  1
  N  N57  1  0.77711169  0.42742213  0.12305395  1
  N  N58  1  0.55976253  0.52064274  0.88664625  1
  N  N59  1  0.46612723  0.41666916  0.61979208  1
  N  N60  1  0.23397650  0.88041119  0.37377918  1
  N  N61  1  0.10892017  0.75894331  0.12037752  1
  N  N62  1  0.88979326  0.87118477  0.87564294  1
  N  N63  1  0.76701482  0.77991911  0.62191620  1
  N  N64  1  0.53691905  0.88193553  0.38310724  1
  N  N65  1  0.44693586  0.76345932  0.11719143  1
  N  N66  1  0.21397531  0.86184870  0.88655149  1
  N  N67  1  0.09882626  0.78758310  0.62208644  1
  N  N68  1  0.87660365  0.89532223  0.38480192  1
  N  N69  1  0.78005763  0.76103864  0.12012116  1
  N  N70  1  0.56722828  0.88607178  0.87834734  1
  N  N71  1  0.44435980  0.76078718  0.62400155  1
