# generated using pymatgen
data_Sc5Al13N18
_symmetry_space_group_name_H-M   'P 1'
_cell_length_a   9.84745438
_cell_length_b   9.83815963
_cell_length_c   10.10165092
_cell_angle_alpha   89.91829398
_cell_angle_beta   90.02268655
_cell_angle_gamma   59.99057653
_symmetry_Int_Tables_number   1
_chemical_formula_structural   Sc5Al13N18
_chemical_formula_sum   'Sc10 Al26 N36'
_cell_volume   847.45917441
_cell_formula_units_Z   2
loop_
 _symmetry_equiv_pos_site_id
 _symmetry_equiv_pos_as_xyz
  1  'x, y, z'
loop_
 _atom_site_type_symbol
 _atom_site_label
 _atom_site_symmetry_multiplicity
 _atom_site_fract_x
 _atom_site_fract_y
 _atom_site_fract_z
 _atom_site_occupancy
  Al  Al0  1  0.10755067  0.09345132  0.31384341  1
  Al  Al1  1  0.77125203  0.09462650  0.82048274  1
  Al  Al2  1  0.45287782  0.08930192  0.31900481  1
  Al  Al3  1  0.55956652  0.20254232  0.06252675  1
  Al  Al4  1  0.23100860  0.19804330  0.55663146  1
  Al  Al5  1  0.77485976  0.09594622  0.31026107  1
  Al  Al6  1  0.88203016  0.20448868  0.06719496  1
  Al  Al7  1  0.45219142  0.09480518  0.81380675  1
  Al  Al8  1  0.55940293  0.19704082  0.56883055  1
  Al  Al9  1  0.10727286  0.42775116  0.30811887  1
  Al  Al10  1  0.22448987  0.54559793  0.05708862  1
  Al  Al11  1  0.76677629  0.42770212  0.82195269  1
  Al  Al12  1  0.55640610  0.53467251  0.06693286  1
  Al  Al13  1  0.78056701  0.42569930  0.30839783  1
  Al  Al14  1  0.87799429  0.54661364  0.06193872  1
  Al  Al15  1  0.45569622  0.42082757  0.81529174  1
  Al  Al16  1  0.55629481  0.54334611  0.56400890  1
  Al  Al17  1  0.21844882  0.86823448  0.06762674  1
  Al  Al18  1  0.77365766  0.77066181  0.81535628  1
  Al  Al19  1  0.87921811  0.88422837  0.57140496  1
  Al  Al20  1  0.44590278  0.76727306  0.31329832  1
  Al  Al21  1  0.56385065  0.87467464  0.06330203  1
  Al  Al22  1  0.10596791  0.76963083  0.81498034  1
  Al  Al23  1  0.22867538  0.87495681  0.56090555  1
  Al  Al24  1  0.88902429  0.87149255  0.05989172  1
  Al  Al25  1  0.54817056  0.87831547  0.56701146  1
  Sc  Sc26  1  0.23197912  0.19664911  0.08984761  1
  Sc  Sc27  1  0.88520032  0.20226785  0.56832478  1
  Sc  Sc28  1  0.11258299  0.09328807  0.82162770  1
  Sc  Sc29  1  0.88693040  0.53575596  0.57645690  1
  Sc  Sc30  1  0.44754179  0.42419158  0.32447107  1
  Sc  Sc31  1  0.11213513  0.42345751  0.83815663  1
  Sc  Sc32  1  0.22244577  0.53771005  0.58598018  1
  Sc  Sc33  1  0.10832861  0.76498022  0.32199817  1
  Sc  Sc34  1  0.77428193  0.76281598  0.32245774  1
  Sc  Sc35  1  0.44959830  0.75827686  0.82736666  1
  N  N36  1  0.22425040  0.20473736  0.35313994  1
  N  N37  1  0.09842554  0.08305848  0.12258850  1
  N  N38  1  0.87109487  0.21189586  0.87507203  1
  N  N39  1  0.76530076  0.08924000  0.63432671  1
  N  N40  1  0.56638439  0.18698319  0.37951138  1
  N  N41  1  0.47403172  0.08106116  0.13226571  1
  N  N42  1  0.24954743  0.18688035  0.88428407  1
  N  N43  1  0.13021215  0.08716871  0.60980231  1
  N  N44  1  0.88407808  0.20685403  0.35706345  1
  N  N45  1  0.77650873  0.09228027  0.11895898  1
  N  N46  1  0.55468357  0.20569146  0.87266353  1
  N  N47  1  0.44362358  0.09528316  0.62104348  1
  N  N48  1  0.21072937  0.52858887  0.37617463  1
  N  N49  1  0.10029355  0.44856096  0.10809358  1
  N  N50  1  0.86239245  0.55193012  0.86955618  1
  N  N51  1  0.75812996  0.43395837  0.63482236  1
  N  N52  1  0.56672740  0.55070152  0.37226048  1
  N  N53  1  0.44284918  0.42596646  0.11308943  1
  N  N54  1  0.23366801  0.54877460  0.85984714  1
  N  N55  1  0.12192574  0.40023030  0.63006360  1
  N  N56  1  0.89866629  0.51755999  0.36486115  1
  N  N57  1  0.77647175  0.42777657  0.11874809  1
  N  N58  1  0.56040914  0.52134215  0.88098640  1
  N  N59  1  0.46637126  0.41616828  0.61935326  1
  N  N60  1  0.23292718  0.87965223  0.37090921  1
  N  N61  1  0.10911121  0.75938028  0.11168783  1
  N  N62  1  0.88929801  0.87216299  0.87055354  1
  N  N63  1  0.76658489  0.77973201  0.62182941  1
  N  N64  1  0.53773704  0.88192045  0.37882342  1
  N  N65  1  0.44661613  0.76267411  0.11608712  1
  N  N66  1  0.21465907  0.86363149  0.88185028  1
  N  N67  1  0.09884729  0.78768622  0.62194726  1
  N  N68  1  0.87748608  0.89399918  0.38313928  1
  N  N69  1  0.77980813  0.76154041  0.11238824  1
  N  N70  1  0.56573659  0.88553393  0.87522264  1
  N  N71  1  0.44426964  0.76053940  0.61607936  1
