# generated using pymatgen
data_Sc5Al13N18
_symmetry_space_group_name_H-M   'P 1'
_cell_length_a   10.22114309
_cell_length_b   10.21094824
_cell_length_c   9.03327234
_cell_angle_alpha   90.12247382
_cell_angle_beta   90.04946131
_cell_angle_gamma   59.98104480
_symmetry_Int_Tables_number   1
_chemical_formula_structural   Sc5Al13N18
_chemical_formula_sum   'Sc10 Al26 N36'
_cell_volume   816.31408387
_cell_formula_units_Z   2
loop_
 _symmetry_equiv_pos_site_id
 _symmetry_equiv_pos_as_xyz
  1  'x, y, z'
loop_
 _atom_site_type_symbol
 _atom_site_label
 _atom_site_symmetry_multiplicity
 _atom_site_fract_x
 _atom_site_fract_y
 _atom_site_fract_z
 _atom_site_occupancy
  Al  Al0  1  0.10951239  0.09432577  0.33998205  1
  Al  Al1  1  0.77095108  0.09463973  0.84389696  1
  Al  Al2  1  0.45465617  0.08825289  0.34178017  1
  Al  Al3  1  0.55719819  0.20208650  0.07955530  1
  Al  Al4  1  0.23147427  0.19671488  0.57840106  1
  Al  Al5  1  0.77396237  0.09771449  0.32163849  1
  Al  Al6  1  0.88349886  0.20564464  0.08812912  1
  Al  Al7  1  0.45277492  0.09505792  0.82610804  1
  Al  Al8  1  0.56087561  0.19915351  0.58648078  1
  Al  Al9  1  0.10771469  0.42427675  0.33741540  1
  Al  Al10  1  0.22123069  0.54307202  0.08928468  1
  Al  Al11  1  0.76513556  0.42898355  0.84356284  1
  Al  Al12  1  0.55686493  0.53637905  0.09264496  1
  Al  Al13  1  0.78057909  0.42532660  0.32488419  1
  Al  Al14  1  0.88132623  0.54381570  0.08723519  1
  Al  Al15  1  0.45215897  0.42318759  0.84397103  1
  Al  Al16  1  0.55377677  0.54395222  0.57627243  1
  Al  Al17  1  0.21989272  0.86895911  0.09253585  1
  Al  Al18  1  0.77578654  0.76898617  0.83819512  1
  Al  Al19  1  0.88022003  0.88457119  0.58933098  1
  Al  Al20  1  0.44749580  0.76803807  0.33013411  1
  Al  Al21  1  0.56274161  0.87594934  0.07881494  1
  Al  Al22  1  0.10679940  0.76603813  0.84245039  1
  Al  Al23  1  0.22906373  0.87341651  0.57807801  1
  Al  Al24  1  0.88811008  0.87198790  0.08100688  1
  Al  Al25  1  0.55044257  0.87729509  0.58870538  1
  Sc  Sc26  1  0.23470263  0.19614332  0.10716829  1
  Sc  Sc27  1  0.88267850  0.20370436  0.59540870  1
  Sc  Sc28  1  0.11264355  0.09051964  0.84854753  1
  Sc  Sc29  1  0.88361308  0.53682982  0.60137372  1
  Sc  Sc30  1  0.44894008  0.42165512  0.34510953  1
  Sc  Sc31  1  0.11265015  0.42284580  0.85573322  1
  Sc  Sc32  1  0.22360350  0.53804049  0.60448290  1
  Sc  Sc33  1  0.10712489  0.76675344  0.34655852  1
  Sc  Sc34  1  0.77393258  0.76408811  0.34674100  1
  Sc  Sc35  1  0.44870779  0.75728060  0.85005882  1
  N  N36  1  0.22596293  0.20325659  0.35738557  1
  N  N37  1  0.10037278  0.08692165  0.11506409  1
  N  N38  1  0.87189242  0.21249927  0.86539411  1
  N  N39  1  0.76573296  0.08867694  0.63134127  1
  N  N40  1  0.56797279  0.18745326  0.37170267  1
  N  N41  1  0.47142176  0.08182591  0.12820280  1
  N  N42  1  0.24812393  0.18846456  0.87076229  1
  N  N43  1  0.12835159  0.08616528  0.60068935  1
  N  N44  1  0.88308677  0.20686627  0.35115001  1
  N  N45  1  0.77524390  0.09446593  0.10631328  1
  N  N46  1  0.55255987  0.20639381  0.86651498  1
  N  N47  1  0.44541952  0.09609875  0.61105363  1
  N  N48  1  0.21260523  0.52993923  0.35970606  1
  N  N49  1  0.10163520  0.44274355  0.10796470  1
  N  N50  1  0.86623260  0.54944218  0.86332410  1
  N  N51  1  0.75507617  0.43576246  0.62484570  1
  N  N52  1  0.56462703  0.55022837  0.35574069  1
  N  N53  1  0.44325243  0.42407360  0.10612403  1
  N  N54  1  0.23099828  0.54651221  0.85966502  1
  N  N55  1  0.11991876  0.40514266  0.61390423  1
  N  N56  1  0.89557332  0.52047466  0.35581749  1
  N  N57  1  0.77800431  0.42648852  0.11070453  1
  N  N58  1  0.55881456  0.52364584  0.87950432  1
  N  N59  1  0.46356999  0.41881782  0.61067618  1
  N  N60  1  0.23391266  0.87824484  0.35703154  1
  N  N61  1  0.10794622  0.76063864  0.10628717  1
  N  N62  1  0.88957735  0.87142838  0.86679602  1
  N  N63  1  0.76977273  0.77845607  0.61304344  1
  N  N64  1  0.53996055  0.88047634  0.37438664  1
  N  N65  1  0.44853217  0.76505401  0.11106546  1
  N  N66  1  0.21675186  0.86141820  0.87567972  1
  N  N67  1  0.10043409  0.78428753  0.61231230  1
  N  N68  1  0.87657515  0.89525011  0.36865982  1
  N  N69  1  0.77835738  0.76196637  0.10553280  1
  N  N70  1  0.56456205  0.88509899  0.86285550  1
  N  N71  1  0.44427074  0.75960592  0.60949354  1
