# generated using pymatgen
data_Sc5Al13N18
_symmetry_space_group_name_H-M   'P 1'
_cell_length_a   10.31926492
_cell_length_b   10.31515243
_cell_length_c   8.74832525
_cell_angle_alpha   90.18704413
_cell_angle_beta   90.05558251
_cell_angle_gamma   60.01874539
_symmetry_Int_Tables_number   1
_chemical_formula_structural   Sc5Al13N18
_chemical_formula_sum   'Sc10 Al26 N36'
_cell_volume   806.60243296
_cell_formula_units_Z   2
loop_
 _symmetry_equiv_pos_site_id
 _symmetry_equiv_pos_as_xyz
  1  'x, y, z'
loop_
 _atom_site_type_symbol
 _atom_site_label
 _atom_site_symmetry_multiplicity
 _atom_site_fract_x
 _atom_site_fract_y
 _atom_site_fract_z
 _atom_site_occupancy
  Al  Al0  1  0.11279238  0.09296715  0.34781027  1
  Al  Al1  1  0.77035685  0.09834553  0.85360422  1
  Al  Al2  1  0.45294689  0.08941517  0.34871733  1
  Al  Al3  1  0.55653809  0.20242359  0.08392046  1
  Al  Al4  1  0.23203598  0.19645655  0.58944607  1
  Al  Al5  1  0.77312817  0.09804807  0.32516852  1
  Al  Al6  1  0.88404262  0.20688190  0.09632386  1
  Al  Al7  1  0.45334082  0.09404912  0.83206515  1
  Al  Al8  1  0.56109884  0.19940225  0.59433664  1
  Al  Al9  1  0.10938905  0.42232505  0.34867237  1
  Al  Al10  1  0.22085216  0.54079826  0.09987577  1
  Al  Al11  1  0.76705773  0.42848783  0.85147259  1
  Al  Al12  1  0.55698990  0.53853086  0.09847064  1
  Al  Al13  1  0.77850392  0.42650411  0.33271795  1
  Al  Al14  1  0.88360357  0.54031640  0.09796039  1
  Al  Al15  1  0.45074435  0.42406020  0.85264275  1
  Al  Al16  1  0.55337854  0.54189443  0.58313119  1
  Al  Al17  1  0.22300947  0.86960325  0.10014460  1
  Al  Al18  1  0.77523727  0.76562474  0.85596108  1
  Al  Al19  1  0.88313846  0.87963956  0.62535618  1
  Al  Al20  1  0.44666728  0.76744466  0.34262263  1
  Al  Al21  1  0.55912442  0.87542930  0.08845584  1
  Al  Al22  1  0.11007663  0.76236213  0.86025797  1
  Al  Al23  1  0.22611091  0.87276364  0.58962947  1
  Al  Al24  1  0.88632085  0.87560462  0.09587469  1
  Al  Al25  1  0.55360862  0.87754225  0.59504130  1
  Sc  Sc26  1  0.23370110  0.19738645  0.10754489  1
  Sc  Sc27  1  0.88161100  0.20364378  0.59666985  1
  Sc  Sc28  1  0.11084740  0.09100491  0.85093657  1
  Sc  Sc29  1  0.88170863  0.53911824  0.60274340  1
  Sc  Sc30  1  0.45036009  0.42060926  0.34586813  1
  Sc  Sc31  1  0.11155400  0.42488184  0.85575983  1
  Sc  Sc32  1  0.22421747  0.53987654  0.60502064  1
  Sc  Sc33  1  0.10494511  0.76934973  0.34857016  1
  Sc  Sc34  1  0.77472367  0.76659863  0.34833263  1
  Sc  Sc35  1  0.44914475  0.75716974  0.85046998  1
  N  N36  1  0.22727289  0.20211710  0.35849015  1
  N  N37  1  0.10209093  0.08709030  0.11216119  1
  N  N38  1  0.87284060  0.21370685  0.86134803  1
  N  N39  1  0.76810435  0.08606188  0.62380770  1
  N  N40  1  0.56742876  0.18807070  0.36488316  1
  N  N41  1  0.46848952  0.08337269  0.11972391  1
  N  N42  1  0.24554557  0.19048024  0.85669728  1
  N  N43  1  0.12600749  0.08662592  0.59374506  1
  N  N44  1  0.88286619  0.20658105  0.34357421  1
  N  N45  1  0.77249081  0.09945824  0.09547932  1
  N  N46  1  0.55197756  0.20676522  0.85852860  1
  N  N47  1  0.44703126  0.09515223  0.60475884  1
  N  N48  1  0.21363740  0.53158869  0.34869754  1
  N  N49  1  0.10300132  0.43973332  0.10749537  1
  N  N50  1  0.86840026  0.54651450  0.86138333  1
  N  N51  1  0.75674722  0.43518152  0.61249574  1
  N  N52  1  0.56305683  0.54909528  0.34893100  1
  N  N53  1  0.44448081  0.42349375  0.09835555  1
  N  N54  1  0.23078184  0.54479317  0.85921752  1
  N  N55  1  0.11848933  0.40877215  0.60154430  1
  N  N56  1  0.89439436  0.52302796  0.34638060  1
  N  N57  1  0.77709412  0.42669763  0.10602979  1
  N  N58  1  0.55924666  0.52485517  0.87136315  1
  N  N59  1  0.46241623  0.41902549  0.60821014  1
  N  N60  1  0.23265618  0.87763331  0.35148506  1
  N  N61  1  0.11146983  0.76021337  0.09572192  1
  N  N62  1  0.88974813  0.87115390  0.86107995  1
  N  N63  1  0.77169654  0.77789292  0.60998823  1
  N  N64  1  0.54197558  0.88024156  0.36586387  1
  N  N65  1  0.44740766  0.76523210  0.10995127  1
  N  N66  1  0.21799968  0.86211230  0.86199843  1
  N  N67  1  0.09855694  0.78275233  0.60801195  1
  N  N68  1  0.87749986  0.89367887  0.33222706  1
  N  N69  1  0.77642460  0.76088758  0.09474275  1
  N  N70  1  0.56297778  0.88393553  0.85551453  1
  N  N71  1  0.44473029  0.75940645  0.59873051  1
