# generated using pymatgen
data_Sc5Al13N18
_symmetry_space_group_name_H-M   'P 1'
_cell_length_a   9.85206704
_cell_length_b   9.84273125
_cell_length_c   10.08927720
_cell_angle_alpha   89.91972391
_cell_angle_beta   90.01678594
_cell_angle_gamma   59.98818172
_symmetry_Int_Tables_number   1
_chemical_formula_structural   Sc5Al13N18
_chemical_formula_sum   'Sc10 Al26 N36'
_cell_volume   847.19079301
_cell_formula_units_Z   2
loop_
 _symmetry_equiv_pos_site_id
 _symmetry_equiv_pos_as_xyz
  1  'x, y, z'
loop_
 _atom_site_type_symbol
 _atom_site_label
 _atom_site_symmetry_multiplicity
 _atom_site_fract_x
 _atom_site_fract_y
 _atom_site_fract_z
 _atom_site_occupancy
  Al  Al0  1  0.10745927  0.09343874  0.31800517  1
  Al  Al1  1  0.77122365  0.09457331  0.82468812  1
  Al  Al2  1  0.45298722  0.08923416  0.32317709  1
  Al  Al3  1  0.55951024  0.20262478  0.06672249  1
  Al  Al4  1  0.23102853  0.19797076  0.56083002  1
  Al  Al5  1  0.77485929  0.09598516  0.31434764  1
  Al  Al6  1  0.88197413  0.20452692  0.07125038  1
  Al  Al7  1  0.45222246  0.09482028  0.81796427  1
  Al  Al8  1  0.55944793  0.19696878  0.57293104  1
  Al  Al9  1  0.10720351  0.42775399  0.31231074  1
  Al  Al10  1  0.22450472  0.54565510  0.06129316  1
  Al  Al11  1  0.76666803  0.42772581  0.82606422  1
  Al  Al12  1  0.55638987  0.53459157  0.07122253  1
  Al  Al13  1  0.78058992  0.42564901  0.31265574  1
  Al  Al14  1  0.87787609  0.54668302  0.06607908  1
  Al  Al15  1  0.45574669  0.42080850  0.81932142  1
  Al  Al16  1  0.55624302  0.54347327  0.56809294  1
  Al  Al17  1  0.21833078  0.86819894  0.07186888  1
  Al  Al18  1  0.77368115  0.77069398  0.81936049  1
  Al  Al19  1  0.87917880  0.88428185  0.57541787  1
  Al  Al20  1  0.44589811  0.76732875  0.31727055  1
  Al  Al21  1  0.56398317  0.87471971  0.06745680  1
  Al  Al22  1  0.10590860  0.76966682  0.81899765  1
  Al  Al23  1  0.22878671  0.87495343  0.56511907  1
  Al  Al24  1  0.88904689  0.87142423  0.06419512  1
  Al  Al25  1  0.54809973  0.87829930  0.57121669  1
  Sc  Sc26  1  0.23207296  0.19656299  0.09430399  1
  Sc  Sc27  1  0.88528339  0.20217944  0.57279664  1
  Sc  Sc28  1  0.11270253  0.09323734  0.82610040  1
  Sc  Sc29  1  0.88704862  0.53557507  0.58098397  1
  Sc  Sc30  1  0.44745653  0.42421210  0.32900344  1
  Sc  Sc31  1  0.11219427  0.42332790  0.84275622  1
  Sc  Sc32  1  0.22238330  0.53756747  0.59051246  1
  Sc  Sc33  1  0.10839491  0.76487643  0.32657752  1
  Sc  Sc34  1  0.77432547  0.76266559  0.32699195  1
  Sc  Sc35  1  0.44961018  0.75828561  0.83191382  1
  N  N36  1  0.22424592  0.20469488  0.35704596  1
  N  N37  1  0.09833954  0.08309959  0.12646873  1
  N  N38  1  0.87106593  0.21190498  0.87888844  1
  N  N39  1  0.76526165  0.08917792  0.63834740  1
  N  N40  1  0.56642726  0.18692805  0.38346725  1
  N  N41  1  0.47411982  0.08104971  0.13627627  1
  N  N42  1  0.24972182  0.18674336  0.88851680  1
  N  N43  1  0.13032952  0.08708358  0.61399821  1
  N  N44  1  0.88405964  0.20682187  0.36124737  1
  N  N45  1  0.77648922  0.09234144  0.12287582  1
  N  N46  1  0.55464562  0.20576176  0.87666688  1
  N  N47  1  0.44364229  0.09527647  0.62502965  1
  N  N48  1  0.21062515  0.52846740  0.38041497  1
  N  N49  1  0.10025552  0.44856098  0.11190492  1
  N  N50  1  0.86230773  0.55197250  0.87340255  1
  N  N51  1  0.75799959  0.43396156  0.63875581  1
  N  N52  1  0.56666150  0.55082768  0.37614932  1
  N  N53  1  0.44276685  0.42600686  0.11731958  1
  N  N54  1  0.23366759  0.54877567  0.86367432  1
  N  N55  1  0.12199845  0.39999914  0.63438449  1
  N  N56  1  0.89872526  0.51738442  0.36908858  1
  N  N57  1  0.77648653  0.42775033  0.12276981  1
  N  N58  1  0.56037630  0.52127068  0.88505661  1
  N  N59  1  0.46637975  0.41616525  0.62311776  1
  N  N60  1  0.23298671  0.87967983  0.37486686  1
  N  N61  1  0.10910057  0.75933523  0.11596523  1
  N  N62  1  0.88932556  0.87209023  0.87460309  1
  N  N63  1  0.76661870  0.77971197  0.62558016  1
  N  N64  1  0.53767112  0.88191473  0.38282374  1
  N  N65  1  0.44661312  0.76272563  0.11988924  1
  N  N66  1  0.21458804  0.86352869  0.88587475  1
  N  N67  1  0.09882678  0.78768313  0.62571042  1
  N  N68  1  0.87742283  0.89405994  0.38699003  1
  N  N69  1  0.77982160  0.76149398  0.11661892  1
  N  N70  1  0.56585982  0.88555807  0.87917340  1
  N  N71  1  0.44428299  0.76053973  0.62032808  1
