# generated using pymatgen
data_Sc5Al13N18
_symmetry_space_group_name_H-M   'P 1'
_cell_length_a   9.84691134
_cell_length_b   9.83773699
_cell_length_c   10.11487223
_cell_angle_alpha   89.97903428
_cell_angle_beta   90.04184603
_cell_angle_gamma   59.98903771
_symmetry_Int_Tables_number   1
_chemical_formula_structural   Sc5Al13N18
_chemical_formula_sum   'Sc10 Al26 N36'
_cell_volume   848.47297347
_cell_formula_units_Z   2
loop_
 _symmetry_equiv_pos_site_id
 _symmetry_equiv_pos_as_xyz
  1  'x, y, z'
loop_
 _atom_site_type_symbol
 _atom_site_label
 _atom_site_symmetry_multiplicity
 _atom_site_fract_x
 _atom_site_fract_y
 _atom_site_fract_z
 _atom_site_occupancy
  Al  Al0  1  0.11882061  0.09278093  0.40993816  1
  Al  Al1  1  0.77281107  0.09804718  0.90835848  1
  Al  Al2  1  0.44451555  0.09289737  0.41078542  1
  Al  Al3  1  0.56382500  0.19584673  0.15496446  1
  Al  Al4  1  0.23601496  0.19404263  0.65562464  1
  Al  Al5  1  0.77172455  0.09221900  0.40678389  1
  Al  Al6  1  0.88516470  0.20236831  0.16411562  1
  Al  Al7  1  0.45812359  0.09140984  0.90500505  1
  Al  Al8  1  0.55613421  0.20205746  0.65984586  1
  Al  Al9  1  0.11235614  0.41698784  0.41059002  1
  Al  Al10  1  0.21865122  0.53990592  0.15706757  1
  Al  Al11  1  0.77048862  0.42537469  0.91353754  1
  Al  Al12  1  0.55704108  0.54463015  0.15665265  1
  Al  Al13  1  0.77575213  0.42898021  0.40050454  1
  Al  Al14  1  0.88884158  0.53508517  0.15786843  1
  Al  Al15  1  0.45040072  0.42298272  0.91352073  1
  Al  Al16  1  0.55588827  0.53379931  0.65794870  1
  Al  Al17  1  0.22554312  0.87155797  0.16046404  1
  Al  Al18  1  0.77479472  0.76546092  0.91440051  1
  Al  Al19  1  0.88148984  0.87817741  0.66341791  1
  Al  Al20  1  0.44566853  0.76701956  0.40973920  1
  Al  Al21  1  0.55297482  0.87356197  0.15728771  1
  Al  Al22  1  0.11053283  0.76116458  0.91343418  1
  Al  Al23  1  0.22152136  0.87190111  0.65506747  1
  Al  Al24  1  0.88587836  0.87884765  0.14983435  1
  Al  Al25  1  0.55791758  0.87986589  0.65718377  1
  Sc  Sc26  1  0.22786908  0.20135716  0.15670769  1
  Sc  Sc27  1  0.88364954  0.20410458  0.64069385  1
  Sc  Sc28  1  0.10550976  0.09238839  0.90075284  1
  Sc  Sc29  1  0.87749640  0.54493241  0.65180123  1
  Sc  Sc30  1  0.45308678  0.42204903  0.39111666  1
  Sc  Sc31  1  0.10920567  0.43035648  0.89971931  1
  Sc  Sc32  1  0.22701188  0.54237706  0.65269700  1
  Sc  Sc33  1  0.10652587  0.76988910  0.39457017  1
  Sc  Sc34  1  0.77341543  0.76461162  0.39063527  1
  Sc  Sc35  1  0.44909921  0.75920802  0.89321953  1
  N  N36  1  0.22578933  0.20274156  0.36464314  1
  N  N37  1  0.09984006  0.08685278  0.11086319  1
  N  N38  1  0.86789884  0.21538237  0.85081387  1
  N  N39  1  0.76394763  0.08460663  0.59597919  1
  N  N40  1  0.56306958  0.18387551  0.34275112  1
  N  N41  1  0.46595077  0.08329320  0.09293634  1
  N  N42  1  0.24606109  0.19082463  0.84794076  1
  N  N43  1  0.13146182  0.08424538  0.60174931  1
  N  N44  1  0.88675759  0.20324290  0.36079081  1
  N  N45  1  0.77746999  0.09719017  0.09747635  1
  N  N46  1  0.55655194  0.20696448  0.85184451  1
  N  N47  1  0.44840069  0.09423207  0.60017934  1
  N  N48  1  0.21187354  0.52853538  0.34964490  1
  N  N49  1  0.10258411  0.44202096  0.10615552  1
  N  N50  1  0.86277667  0.54987970  0.86221074  1
  N  N51  1  0.75587915  0.43916956  0.58572584  1
  N  N52  1  0.56325215  0.55565993  0.34332794  1
  N  N53  1  0.44718096  0.42577681  0.11126606  1
  N  N54  1  0.23424098  0.54640297  0.86341416  1
  N  N55  1  0.11907041  0.40933082  0.60477404  1
  N  N56  1  0.90057462  0.51658166  0.34988163  1
  N  N57  1  0.77772726  0.42402177  0.10547082  1
  N  N58  1  0.56306020  0.51872742  0.84901713  1
  N  N59  1  0.46318398  0.41521173  0.60117632  1
  N  N60  1  0.23442462  0.88125046  0.34905893  1
  N  N61  1  0.11268057  0.76193199  0.10855583  1
  N  N62  1  0.88912829  0.87127679  0.85929551  1
  N  N63  1  0.76935726  0.78084594  0.60004596  1
  N  N64  1  0.53386712  0.88578948  0.34598082  1
  N  N65  1  0.44351462  0.76369830  0.10371190  1
  N  N66  1  0.21251575  0.86152484  0.84204024  1
  N  N67  1  0.09445271  0.78459491  0.60308972  1
  N  N68  1  0.87784113  0.89346376  0.33386871  1
  N  N69  1  0.77635573  0.75996236  0.11038809  1
  N  N70  1  0.56928321  0.88226722  0.84533627  1
  N  N71  1  0.44611684  0.76011219  0.60861170  1
