# generated using pymatgen
data_Sc5Al13N18
_symmetry_space_group_name_H-M   'P 1'
_cell_length_a   9.94620143
_cell_length_b   9.93465159
_cell_length_c   9.83959531
_cell_angle_alpha   89.99476453
_cell_angle_beta   89.98800651
_cell_angle_gamma   59.97925537
_symmetry_Int_Tables_number   1
_chemical_formula_structural   Sc5Al13N18
_chemical_formula_sum   'Sc10 Al26 N36'
_cell_volume   841.83490462
_cell_formula_units_Z   2
loop_
 _symmetry_equiv_pos_site_id
 _symmetry_equiv_pos_as_xyz
  1  'x, y, z'
loop_
 _atom_site_type_symbol
 _atom_site_label
 _atom_site_symmetry_multiplicity
 _atom_site_fract_x
 _atom_site_fract_y
 _atom_site_fract_z
 _atom_site_occupancy
  Al  Al0  1  0.12166172  0.09239410  0.38209399  1
  Al  Al1  1  0.77203047  0.10023059  0.87897519  1
  Al  Al2  1  0.44360406  0.09365380  0.38200466  1
  Al  Al3  1  0.56494425  0.19467721  0.12778724  1
  Al  Al4  1  0.23822858  0.19217332  0.63242656  1
  Al  Al5  1  0.77069812  0.09170740  0.38083078  1
  Al  Al6  1  0.88584287  0.20167370  0.13746906  1
  Al  Al7  1  0.46060605  0.09051363  0.87901321  1
  Al  Al8  1  0.55532576  0.20340098  0.63218501  1
  Al  Al9  1  0.11355095  0.41399814  0.38446942  1
  Al  Al10  1  0.21726853  0.53900112  0.13071143  1
  Al  Al11  1  0.77073375  0.42522503  0.88525741  1
  Al  Al12  1  0.55677693  0.54689179  0.12658812  1
  Al  Al13  1  0.77403217  0.43030024  0.37177850  1
  Al  Al14  1  0.89019400  0.53365628  0.13036492  1
  Al  Al15  1  0.44857667  0.42385745  0.88698217  1
  Al  Al16  1  0.55558098  0.53204824  0.63180430  1
  Al  Al17  1  0.22707793  0.87227872  0.13119420  1
  Al  Al18  1  0.77495081  0.76411137  0.88770029  1
  Al  Al19  1  0.88198823  0.87778092  0.63670404  1
  Al  Al20  1  0.44625799  0.76703662  0.38475198  1
  Al  Al21  1  0.55159847  0.87349837  0.13012541  1
  Al  Al22  1  0.11183370  0.75920667  0.88661905  1
  Al  Al23  1  0.22037867  0.87115863  0.62697286  1
  Al  Al24  1  0.88510291  0.88063998  0.11902366  1
  Al  Al25  1  0.56020884  0.88091644  0.62868899  1
  Sc  Sc26  1  0.22713664  0.20180770  0.11952434  1
  Sc  Sc27  1  0.88310146  0.20475931  0.60729950  1
  Sc  Sc28  1  0.10322458  0.09222041  0.86781790  1
  Sc  Sc29  1  0.87597629  0.54605829  0.61813443  1
  Sc  Sc30  1  0.45398853  0.42231778  0.35777845  1
  Sc  Sc31  1  0.10807170  0.43226557  0.86405965  1
  Sc  Sc32  1  0.22713284  0.54314108  0.61665120  1
  Sc  Sc33  1  0.10558307  0.77198257  0.36091814  1
  Sc  Sc34  1  0.77371358  0.76593145  0.35758094  1
  Sc  Sc35  1  0.44912354  0.76025706  0.85955313  1
  N  N36  1  0.22617059  0.20263274  0.33564900  1
  N  N37  1  0.09869456  0.08635666  0.08455716  1
  N  N38  1  0.86626668  0.21676334  0.82336719  1
  N  N39  1  0.76345201  0.08433790  0.57437049  1
  N  N40  1  0.56345925  0.18370780  0.31969304  1
  N  N41  1  0.46807751  0.08216155  0.07087741  1
  N  N42  1  0.24732250  0.18951548  0.83148773  1
  N  N43  1  0.13284395  0.08430921  0.58097943  1
  N  N44  1  0.88712068  0.20295241  0.33934971  1
  N  N45  1  0.77712555  0.09895719  0.07229935  1
  N  N46  1  0.55547552  0.20830586  0.82841873  1
  N  N47  1  0.44791127  0.09517725  0.57640384  1
  N  N48  1  0.21114196  0.52823413  0.33114107  1
  N  N49  1  0.10157638  0.44380366  0.07864975  1
  N  N50  1  0.86094905  0.55065436  0.83531256  1
  N  N51  1  0.75390518  0.43981209  0.56182508  1
  N  N52  1  0.56272813  0.55775037  0.31799308  1
  N  N53  1  0.44596360  0.42620505  0.09003229  1
  N  N54  1  0.23474718  0.54661416  0.83537820  1
  N  N55  1  0.11991855  0.40675723  0.58670267  1
  N  N56  1  0.90147988  0.51602038  0.32933083  1
  N  N57  1  0.77886292  0.42332210  0.08237418  1
  N  N58  1  0.56230381  0.51851984  0.82788504  1
  N  N59  1  0.46403210  0.41483930  0.57428604  1
  N  N60  1  0.23615022  0.88149956  0.32546258  1
  N  N61  1  0.11398315  0.76080309  0.08734121  1
  N  N62  1  0.88971851  0.87028161  0.83799929  1
  N  N63  1  0.77006251  0.78208584  0.57325430  1
  N  N64  1  0.53359619  0.88563484  0.32369780  1
  N  N65  1  0.44357393  0.76493623  0.07609271  1
  N  N66  1  0.21205099  0.86042553  0.81906893  1
  N  N67  1  0.09301808  0.78644591  0.57589275  1
  N  N68  1  0.87689627  0.89554094  0.30795091  1
  N  N69  1  0.77608691  0.75897575  0.08885818  1
  N  N70  1  0.57082752  0.88283882  0.82139717  1
  N  N71  1  0.44634310  0.75977448  0.58792210  1
