# generated using pymatgen
data_Sc5Al13N18
_symmetry_space_group_name_H-M   'P 1'
_cell_length_a   9.85203656
_cell_length_b   9.84250551
_cell_length_c   10.10220509
_cell_angle_alpha   89.98115084
_cell_angle_beta   90.03524824
_cell_angle_gamma   59.98192710
_symmetry_Int_Tables_number   1
_chemical_formula_structural   Sc5Al13N18
_chemical_formula_sum   'Sc10 Al26 N36'
_cell_volume   848.20177080
_cell_formula_units_Z   2
loop_
 _symmetry_equiv_pos_site_id
 _symmetry_equiv_pos_as_xyz
  1  'x, y, z'
loop_
 _atom_site_type_symbol
 _atom_site_label
 _atom_site_symmetry_multiplicity
 _atom_site_fract_x
 _atom_site_fract_y
 _atom_site_fract_z
 _atom_site_occupancy
  Al  Al0  1  0.11905463  0.09281536  0.39044436  1
  Al  Al1  1  0.77272819  0.09826529  0.88875091  1
  Al  Al2  1  0.44448351  0.09304468  0.39124249  1
  Al  Al3  1  0.56386527  0.19589700  0.13552416  1
  Al  Al4  1  0.23616574  0.19397586  0.63644054  1
  Al  Al5  1  0.77163407  0.09232167  0.38741335  1
  Al  Al6  1  0.88517910  0.20240545  0.14471729  1
  Al  Al7  1  0.45826298  0.09146669  0.88564157  1
  Al  Al8  1  0.55604866  0.20228693  0.64035855  1
  Al  Al9  1  0.11242391  0.41687042  0.39124287  1
  Al  Al10  1  0.21851731  0.53995152  0.13768872  1
  Al  Al11  1  0.77044987  0.42544815  0.89396899  1
  Al  Al12  1  0.55704650  0.54485856  0.13703480  1
  Al  Al13  1  0.77568117  0.42913047  0.38099162  1
  Al  Al14  1  0.88893018  0.53504787  0.13836885  1
  Al  Al15  1  0.45023545  0.42317610  0.89410619  1
  Al  Al16  1  0.55585162  0.53379986  0.63853651  1
  Al  Al17  1  0.22567308  0.87164803  0.14088117  1
  Al  Al18  1  0.77482455  0.76549451  0.89498614  1
  Al  Al19  1  0.88150821  0.87827908  0.64393266  1
  Al  Al20  1  0.44577122  0.76711625  0.39043088  1
  Al  Al21  1  0.55291879  0.87365085  0.13784169  1
  Al  Al22  1  0.11059277  0.76113945  0.89398266  1
  Al  Al23  1  0.22149152  0.87195128  0.63556849  1
  Al  Al24  1  0.88583521  0.87905737  0.13021507  1
  Al  Al25  1  0.55809721  0.88004528  0.63764788  1
  Sc  Sc26  1  0.22778748  0.20147578  0.13670759  1
  Sc  Sc27  1  0.88366289  0.20419931  0.62082843  1
  Sc  Sc28  1  0.10529650  0.09245953  0.88102944  1
  Sc  Sc29  1  0.87735522  0.54512347  0.63202308  1
  Sc  Sc30  1  0.45310590  0.42222351  0.37126731  1
  Sc  Sc31  1  0.10911712  0.43054551  0.87975017  1
  Sc  Sc32  1  0.22697238  0.54255690  0.63272305  1
  Sc  Sc33  1  0.10647781  0.77015432  0.37473865  1
  Sc  Sc34  1  0.77351021  0.76472792  0.37079421  1
  Sc  Sc35  1  0.44911891  0.75941223  0.87335790  1
  N  N36  1  0.22584455  0.20280531  0.34499837  1
  N  N37  1  0.09975065  0.08688250  0.09141344  1
  N  N38  1  0.86774719  0.21554479  0.83119935  1
  N  N39  1  0.76387349  0.08472344  0.57676761  1
  N  N40  1  0.56307869  0.18398722  0.32347206  1
  N  N41  1  0.46607941  0.08333093  0.07372449  1
  N  N42  1  0.24613754  0.19074122  0.82903677  1
  N  N43  1  0.13162316  0.08430662  0.58255185  1
  N  N44  1  0.88679874  0.20329384  0.34164699  1
  N  N45  1  0.77743155  0.09738852  0.07806067  1
  N  N46  1  0.55643082  0.20718105  0.83254005  1
  N  N47  1  0.44837767  0.09440570  0.58085748  1
  N  N48  1  0.21174870  0.52862361  0.33061308  1
  N  N49  1  0.10252713  0.44221625  0.08654534  1
  N  N50  1  0.86260865  0.55002992  0.84270551  1
  N  N51  1  0.75575735  0.43931106  0.56640345  1
  N  N52  1  0.56327578  0.55588230  0.32391235  1
  N  N53  1  0.44707482  0.42593745  0.09212459  1
  N  N54  1  0.23423407  0.54650495  0.84377925  1
  N  N55  1  0.11910581  0.40922860  0.58579349  1
  N  N56  1  0.90067669  0.51654629  0.33068473  1
  N  N57  1  0.77779848  0.42403960  0.08613394  1
  N  N58  1  0.56295779  0.51882272  0.82981385  1
  N  N59  1  0.46319883  0.41533338  0.58161273  1
  N  N60  1  0.23461832  0.88131899  0.32971944  1
  N  N61  1  0.11275136  0.76195427  0.08937534  1
  N  N62  1  0.88916078  0.87131181  0.84005306  1
  N  N63  1  0.76943266  0.78102241  0.58047544  1
  N  N64  1  0.53389781  0.88586747  0.32674178  1
  N  N65  1  0.44356118  0.76386050  0.08413183  1
  N  N66  1  0.21247820  0.86153096  0.82274826  1
  N  N67  1  0.09437210  0.78486553  0.58352483  1
  N  N68  1  0.87778017  0.89372271  0.31443583  1
  N  N69  1  0.77637738  0.75999220  0.09122132  1
  N  N70  1  0.56943511  0.88242296  0.82598961  1
  N  N71  1  0.44618469  0.76020636  0.58949958  1
