# generated using pymatgen
data_Sc5Al13N18
_symmetry_space_group_name_H-M   'P 1'
_cell_length_a   10.13961431
_cell_length_b   10.12632816
_cell_length_c   9.27683960
_cell_angle_alpha   90.04978534
_cell_angle_beta   89.98914557
_cell_angle_gamma   60.02036469
_symmetry_Int_Tables_number   1
_chemical_formula_structural   Sc5Al13N18
_chemical_formula_sum   'Sc10 Al26 N36'
_cell_volume   825.07403437
_cell_formula_units_Z   2
loop_
 _symmetry_equiv_pos_site_id
 _symmetry_equiv_pos_as_xyz
  1  'x, y, z'
loop_
 _atom_site_type_symbol
 _atom_site_label
 _atom_site_symmetry_multiplicity
 _atom_site_fract_x
 _atom_site_fract_y
 _atom_site_fract_z
 _atom_site_occupancy
  Al  Al0  1  0.12005078  0.09266687  0.37128663  1
  Al  Al1  1  0.77098323  0.10274675  0.87249656  1
  Al  Al2  1  0.44489587  0.09370279  0.37564895  1
  Al  Al3  1  0.56535941  0.19491521  0.12158046  1
  Al  Al4  1  0.23724726  0.19317299  0.62238128  1
  Al  Al5  1  0.77125185  0.09101916  0.37586759  1
  Al  Al6  1  0.88595984  0.20097722  0.13059567  1
  Al  Al7  1  0.46037022  0.09000377  0.87462363  1
  Al  Al8  1  0.55535639  0.20312682  0.62747708  1
  Al  Al9  1  0.11315469  0.41594203  0.37108381  1
  Al  Al10  1  0.21924794  0.53932681  0.11748808  1
  Al  Al11  1  0.77177202  0.42491688  0.88333254  1
  Al  Al12  1  0.55487739  0.54712889  0.11770362  1
  Al  Al13  1  0.77228798  0.43127732  0.36073231  1
  Al  Al14  1  0.88899727  0.53541866  0.12045958  1
  Al  Al15  1  0.44903054  0.42313242  0.87981158  1
  Al  Al16  1  0.55567681  0.53259290  0.62804974  1
  Al  Al17  1  0.22718923  0.87203793  0.12513742  1
  Al  Al18  1  0.77374831  0.76318884  0.88046681  1
  Al  Al19  1  0.88258524  0.87726703  0.63600036  1
  Al  Al20  1  0.44634134  0.76579880  0.37879261  1
  Al  Al21  1  0.55183683  0.87328920  0.12558377  1
  Al  Al22  1  0.11243205  0.75954145  0.87917420  1
  Al  Al23  1  0.22023855  0.87118106  0.61882580  1
  Al  Al24  1  0.88436068  0.88165698  0.10661252  1
  Al  Al25  1  0.56014670  0.88077584  0.62143620  1
  Sc  Sc26  1  0.22905673  0.20045890  0.10933127  1
  Sc  Sc27  1  0.88184715  0.20658535  0.60002740  1
  Sc  Sc28  1  0.10445376  0.09228495  0.85825008  1
  Sc  Sc29  1  0.87733633  0.54367262  0.60757901  1
  Sc  Sc30  1  0.45397928  0.42229784  0.35114497  1
  Sc  Sc31  1  0.10877591  0.43055086  0.85621088  1
  Sc  Sc32  1  0.22636725  0.54188210  0.60692784  1
  Sc  Sc33  1  0.10424348  0.77170164  0.35265899  1
  Sc  Sc34  1  0.77457602  0.76731270  0.35111908  1
  Sc  Sc35  1  0.44830708  0.76138687  0.85329710  1
  N  N36  1  0.22701151  0.20230011  0.34212522  1
  N  N37  1  0.09978575  0.08653383  0.09365938  1
  N  N38  1  0.86775397  0.21727613  0.83178766  1
  N  N39  1  0.76489991  0.08387101  0.58386637  1
  N  N40  1  0.56411604  0.18508021  0.32666628  1
  N  N41  1  0.46881831  0.08158657  0.07954150  1
  N  N42  1  0.24724609  0.18979179  0.84192303  1
  N  N43  1  0.13011782  0.08570710  0.58794894  1
  N  N44  1  0.88642513  0.20258700  0.34290950  1
  N  N45  1  0.77622186  0.10044048  0.07667562  1
  N  N46  1  0.55517438  0.20781842  0.83529981  1
  N  N47  1  0.44817082  0.09553162  0.58240679  1
  N  N48  1  0.21311777  0.52936556  0.34012543  1
  N  N49  1  0.10251455  0.44211832  0.08898588  1
  N  N50  1  0.86323062  0.54836342  0.84455920  1
  N  N51  1  0.75363042  0.43910537  0.56678885  1
  N  N52  1  0.56001875  0.55723848  0.32208502  1
  N  N53  1  0.44640240  0.42502779  0.09323822  1
  N  N54  1  0.23376331  0.54580526  0.84558648  1
  N  N55  1  0.11949855  0.40731920  0.59523314  1
  N  N56  1  0.89929941  0.51935272  0.33694373  1
  N  N57  1  0.77884481  0.42309533  0.09277185  1
  N  N58  1  0.56277448  0.52019044  0.83913886  1
  N  N59  1  0.46345778  0.41549815  0.58409165  1
  N  N60  1  0.23541696  0.87992058  0.33450584  1
  N  N61  1  0.11501546  0.76100977  0.09163718  1
  N  N62  1  0.88908958  0.87075017  0.84997833  1
  N  N63  1  0.77203689  0.78041561  0.58332791  1
  N  N64  1  0.53566554  0.88413886  0.33325163  1
  N  N65  1  0.44306304  0.76643493  0.08292811  1
  N  N66  1  0.21345807  0.86115634  0.82671021  1
  N  N67  1  0.09278513  0.78454398  0.58511411  1
  N  N68  1  0.87703019  0.89492624  0.31077090  1
  N  N69  1  0.77443480  0.75909071  0.09246094  1
  N  N70  1  0.56888477  0.88252535  0.82745480  1
  N  N71  1  0.44642569  0.75887328  0.59265728  1
