# generated using pymatgen
data_Sc5Al13N18
_symmetry_space_group_name_H-M   'P 1'
_cell_length_a   10.36912987
_cell_length_b   10.35804554
_cell_length_c   8.61694618
_cell_angle_alpha   90.09774146
_cell_angle_beta   90.00977743
_cell_angle_gamma   60.05721834
_symmetry_Int_Tables_number   1
_chemical_formula_structural   Sc5Al13N18
_chemical_formula_sum   'Sc10 Al26 N36'
_cell_volume   801.96144346
_cell_formula_units_Z   2
loop_
 _symmetry_equiv_pos_site_id
 _symmetry_equiv_pos_as_xyz
  1  'x, y, z'
loop_
 _atom_site_type_symbol
 _atom_site_label
 _atom_site_symmetry_multiplicity
 _atom_site_fract_x
 _atom_site_fract_y
 _atom_site_fract_z
 _atom_site_occupancy
  Al  Al0  1  0.11464987  0.09220247  0.35177609  1
  Al  Al1  1  0.77120735  0.09787673  0.85780282  1
  Al  Al2  1  0.44989765  0.09114973  0.35709876  1
  Al  Al3  1  0.56076564  0.20019550  0.09910838  1
  Al  Al4  1  0.23343260  0.19621724  0.59812612  1
  Al  Al5  1  0.77369783  0.09548476  0.34436058  1
  Al  Al6  1  0.88379253  0.20465427  0.10534223  1
  Al  Al7  1  0.45511933  0.09245589  0.85265970  1
  Al  Al8  1  0.55824557  0.20011586  0.60702933  1
  Al  Al9  1  0.11038470  0.42212859  0.35103272  1
  Al  Al10  1  0.22107678  0.54161617  0.10045255  1
  Al  Al11  1  0.76979246  0.42702260  0.86590569  1
  Al  Al12  1  0.55618324  0.54022734  0.10433562  1
  Al  Al13  1  0.77560911  0.42818294  0.34508835  1
  Al  Al14  1  0.88434981  0.53965137  0.10291491  1
  Al  Al15  1  0.45158500  0.42272222  0.85743514  1
  Al  Al16  1  0.55381396  0.53975826  0.60047479  1
  Al  Al17  1  0.22316712  0.86993786  0.10409438  1
  Al  Al18  1  0.77419804  0.76637046  0.85751154  1
  Al  Al19  1  0.88238854  0.87955631  0.62061732  1
  Al  Al20  1  0.44589641  0.76611843  0.35079972  1
  Al  Al21  1  0.55780612  0.87373013  0.10191034  1
  Al  Al22  1  0.10876878  0.76384386  0.85781858  1
  Al  Al23  1  0.22504028  0.87285839  0.59771567  1
  Al  Al24  1  0.88567611  0.87750049  0.09731470  1
  Al  Al25  1  0.55430428  0.87893479  0.60337918  1
  Sc  Sc26  1  0.23209535  0.19857136  0.10806983  1
  Sc  Sc27  1  0.88237265  0.20486326  0.59766437  1
  Sc  Sc28  1  0.10928045  0.09206824  0.85258662  1
  Sc  Sc29  1  0.88153929  0.53927864  0.60324415  1
  Sc  Sc30  1  0.45144305  0.42166142  0.34760562  1
  Sc  Sc31  1  0.11089776  0.42637700  0.85606403  1
  Sc  Sc32  1  0.22476904  0.53952135  0.60505511  1
  Sc  Sc33  1  0.10575470  0.76920604  0.34929311  1
  Sc  Sc34  1  0.77480133  0.76606988  0.34912135  1
  Sc  Sc35  1  0.44874476  0.75896525  0.85211779  1
  N  N36  1  0.22808593  0.20193163  0.35880626  1
  N  N37  1  0.10287050  0.08701240  0.11149907  1
  N  N38  1  0.87186040  0.21373503  0.85875455  1
  N  N39  1  0.76763202  0.08665526  0.60680310  1
  N  N40  1  0.56445961  0.18888085  0.34912991  1
  N  N41  1  0.46594437  0.08403042  0.10225955  1
  N  N42  1  0.24439366  0.19173821  0.84960218  1
  N  N43  1  0.12554941  0.08712780  0.59258230  1
  N  N44  1  0.88408971  0.20539787  0.34182778  1
  N  N45  1  0.77497970  0.09697444  0.09531864  1
  N  N46  1  0.55544187  0.20532829  0.85264979  1
  N  N47  1  0.44824512  0.09457636  0.59937719  1
  N  N48  1  0.21507741  0.53189038  0.34582180  1
  N  N49  1  0.10394071  0.43917672  0.10774949  1
  N  N50  1  0.86860855  0.54563648  0.86116701  1
  N  N51  1  0.75843372  0.43481009  0.59296886  1
  N  N52  1  0.56071046  0.55011114  0.34347586  1
  N  N53  1  0.44665433  0.42417673  0.09397248  1
  N  N54  1  0.23064599  0.54525653  0.86005716  1
  N  N55  1  0.11800881  0.41010814  0.59856217  1
  N  N56  1  0.89475727  0.52361328  0.34266880  1
  N  N57  1  0.77589100  0.42637536  0.10347534  1
  N  N58  1  0.56125924  0.52494293  0.85734362  1
  N  N59  1  0.46163760  0.41755294  0.60745575  1
  N  N60  1  0.23224217  0.87755530  0.35025519  1
  N  N61  1  0.11064412  0.76225539  0.09356902  1
  N  N62  1  0.88774230  0.87370188  0.85772186  1
  N  N63  1  0.77158038  0.77727426  0.60864756  1
  N  N64  1  0.54143161  0.88122447  0.35373202  1
  N  N65  1  0.44549351  0.76446581  0.10780571  1
  N  N66  1  0.21756223  0.86316131  0.85328502  1
  N  N67  1  0.09802144  0.78134858  0.60873223  1
  N  N68  1  0.87871130  0.89119543  0.33536658  1
  N  N69  1  0.77612431  0.76155276  0.09321085  1
  N  N70  1  0.56315522  0.88189928  0.84888177  1
  N  N71  1  0.44550874  0.75997121  0.59465420  1
