# generated using pymatgen
data_GdAl35N36
_symmetry_space_group_name_H-M   'P 1'
_cell_length_a   9.45084225
_cell_length_b   9.45084225
_cell_length_c   10.07202251
_cell_angle_alpha   89.99999988
_cell_angle_beta   89.99999990
_cell_angle_gamma   60.00000136
_symmetry_Int_Tables_number   1
_chemical_formula_structural   GdAl35N36
_chemical_formula_sum   'Gd1 Al35 N36'
_cell_volume   779.09129864
_cell_formula_units_Z   1
loop_
 _symmetry_equiv_pos_site_id
 _symmetry_equiv_pos_as_xyz
  1  'x, y, z'
loop_
 _atom_site_type_symbol
 _atom_site_label
 _atom_site_symmetry_multiplicity
 _atom_site_fract_x
 _atom_site_fract_y
 _atom_site_fract_z
 _atom_site_occupancy
  Al  Al0  1  0.10733129  0.10200409  0.32245462  1
  Al  Al1  1  0.22010256  0.21136572  0.06719949  1
  Al  Al2  1  0.77782698  0.09441984  0.81730592  1
  Al  Al3  1  0.88619715  0.20718855  0.56630298  1
  Al  Al4  1  0.44460466  0.09460467  0.31681745  1
  Al  Al5  1  0.55555556  0.20555556  0.06695875  1
  Al  Al6  1  0.10962279  0.09742109  0.80784947  1
  Al  Al7  1  0.22328097  0.20718854  0.56630298  1
  Al  Al8  1  0.77745733  0.09460467  0.31681745  1
  Al  Al9  1  0.88519840  0.21136573  0.06719949  1
  Al  Al10  1  0.44441984  0.09441985  0.81730592  1
  Al  Al11  1  0.55555555  0.20555556  0.56679407  1
  Al  Al12  1  0.11140804  0.42762932  0.31618847  1
  Al  Al13  1  0.22010256  0.53519841  0.06719949  1
  Al  Al14  1  0.77806627  0.42806627  0.81709091  1
  Al  Al15  1  0.88888889  0.53888889  0.56677510  1
  Al  Al16  1  0.44460467  0.42745734  0.31681745  1
  Al  Al17  1  0.56136572  0.53519841  0.06719949  1
  Al  Al18  1  0.11053412  0.42806627  0.81709091  1
  Al  Al19  1  0.22328097  0.53619716  0.56630298  1
  Al  Al20  1  0.77762931  0.42762932  0.31618847  1
  Al  Al21  1  0.88888889  0.53888890  0.06796667  1
  Al  Al22  1  0.44441984  0.42782699  0.81730592  1
  Al  Al23  1  0.55718854  0.53619715  0.56630298  1
  Al  Al24  1  0.10733129  0.75733130  0.32245462  1
  Al  Al25  1  0.77806627  0.76053413  0.81709091  1
  Al  Al26  1  0.88619715  0.87328098  0.56630298  1
  Al  Al27  1  0.45200409  0.75733129  0.32245462  1
  Al  Al28  1  0.56136571  0.87010257  0.06719949  1
  Al  Al29  1  0.10962279  0.75962280  0.80784947  1
  Al  Al30  1  0.22222222  0.87222223  0.56577890  1
  Al  Al31  1  0.77762931  0.76140805  0.31618847  1
  Al  Al32  1  0.88519840  0.87010256  0.06719949  1
  Al  Al33  1  0.44742108  0.75962280  0.80784947  1
  Al  Al34  1  0.55718854  0.87328097  0.56630298  1
  Gd  Gd35  1  0.22222223  0.87222223  0.06961303  1
  N  N36  1  0.22418435  0.20723117  0.37769429  1
  N  N37  1  0.09531674  0.12603318  0.13643328  1
  N  N38  1  0.89005517  0.20494523  0.87532744  1
  N  N39  1  0.77727240  0.09469713  0.62686370  1
  N  N40  1  0.55555555  0.20555556  0.37549388  1
  N  N41  1  0.44395726  0.09395727  0.12508599  1
  N  N42  1  0.22166628  0.20494523  0.87532744  1
  N  N43  1  0.10953924  0.09758819  0.61866962  1
  N  N44  1  0.88525114  0.20723118  0.37769429  1
  N  N45  1  0.77875214  0.09395727  0.12508598  1
  N  N46  1  0.55555555  0.20555556  0.87651621  1
  N  N47  1  0.44469713  0.09469713  0.62686370  1
  N  N48  1  0.22418436  0.53525115  0.37769429  1
  N  N49  1  0.11067455  0.42799607  0.12591248  1
  N  N50  1  0.88888889  0.53888889  0.87670993  1
  N  N51  1  0.77802973  0.42802974  0.62693722  1
  N  N52  1  0.55723117  0.53525114  0.37769429  1
  N  N53  1  0.44395726  0.42875215  0.12508598  1
  N  N54  1  0.22166627  0.54005518  0.87532744  1
  N  N55  1  0.11060718  0.42802974  0.62693722  1
  N  N56  1  0.88888889  0.53888890  0.37559866  1
  N  N57  1  0.77799607  0.42799607  0.12591248  1
  N  N58  1  0.55494522  0.54005517  0.87532744  1
  N  N59  1  0.44469713  0.42727241  0.62686370  1
  N  N60  1  0.22222223  0.87222223  0.36963247  1
  N  N61  1  0.09531675  0.74531676  0.13643329  1
  N  N62  1  0.89005517  0.87166628  0.87532743  1
  N  N63  1  0.77802974  0.76060719  0.62693722  1
  N  N64  1  0.55723116  0.87418436  0.37769429  1
  N  N65  1  0.47603318  0.74531675  0.13643328  1
  N  N66  1  0.22222222  0.87222223  0.84720860  1
  N  N67  1  0.10953924  0.75953925  0.61866962  1
  N  N68  1  0.88525114  0.87418436  0.37769429  1
  N  N69  1  0.77799606  0.76067455  0.12591248  1
  N  N70  1  0.55494522  0.87166629  0.87532744  1
  N  N71  1  0.44758818  0.75953924  0.61866962  1
