# generated using pymatgen
data_GdAl35N36
_symmetry_space_group_name_H-M   'P 1'
_cell_length_a   9.45083977
_cell_length_b   9.45083978
_cell_length_c   10.07201718
_cell_angle_alpha   90.00000009
_cell_angle_beta   89.99999988
_cell_angle_gamma   60.00000136
_symmetry_Int_Tables_number   1
_chemical_formula_structural   GdAl35N36
_chemical_formula_sum   'Gd1 Al35 N36'
_cell_volume   779.09047784
_cell_formula_units_Z   1
loop_
 _symmetry_equiv_pos_site_id
 _symmetry_equiv_pos_as_xyz
  1  'x, y, z'
loop_
 _atom_site_type_symbol
 _atom_site_label
 _atom_site_symmetry_multiplicity
 _atom_site_fract_x
 _atom_site_fract_y
 _atom_site_fract_z
 _atom_site_occupancy
  Al  Al0  1  0.10962283  0.09742100  0.40137056  1
  Al  Al1  1  0.22010244  0.21136566  0.14202097  1
  Al  Al2  1  0.77745732  0.09460468  0.89240335  1
  Al  Al3  1  0.88619698  0.20718862  0.64291751  1
  Al  Al4  1  0.44441983  0.09441984  0.39191428  1
  Al  Al5  1  0.55555556  0.20555557  0.14226187  1
  Al  Al6  1  0.10733126  0.10200414  0.88676466  1
  Al  Al7  1  0.22328106  0.20718863  0.64291750  1
  Al  Al8  1  0.77782700  0.09441984  0.39191428  1
  Al  Al9  1  0.88519858  0.21136567  0.14202097  1
  Al  Al10  1  0.44460466  0.09460468  0.89240335  1
  Al  Al11  1  0.55555555  0.20555556  0.64242665  1
  Al  Al12  1  0.11053397  0.42806635  0.39212938  1
  Al  Al13  1  0.22010244  0.53519859  0.14202097  1
  Al  Al14  1  0.77762926  0.42762928  0.89303240  1
  Al  Al15  1  0.88888888  0.53888890  0.64244573  1
  Al  Al16  1  0.44441983  0.42782701  0.39191428  1
  Al  Al17  1  0.56136566  0.53519859  0.14202097  1
  Al  Al18  1  0.11140814  0.42762927  0.89303240  1
  Al  Al19  1  0.22328106  0.53619700  0.64291750  1
  Al  Al20  1  0.77806634  0.42806635  0.39212938  1
  Al  Al21  1  0.88888889  0.53888890  0.14125303  1
  Al  Al22  1  0.44460467  0.42745733  0.89240335  1
  Al  Al23  1  0.55718861  0.53619699  0.64291751  1
  Al  Al24  1  0.10962284  0.75962285  0.40137056  1
  Al  Al25  1  0.77762926  0.76140815  0.89303240  1
  Al  Al26  1  0.88619699  0.87328107  0.64291750  1
  Al  Al27  1  0.44742099  0.75962285  0.40137056  1
  Al  Al28  1  0.56136565  0.87010245  0.14202097  1
  Al  Al29  1  0.10733127  0.75733128  0.88676465  1
  Al  Al30  1  0.22222222  0.87222224  0.64343985  1
  Al  Al31  1  0.77806634  0.76053398  0.39212938  1
  Al  Al32  1  0.88519858  0.87010245  0.14202097  1
  Al  Al33  1  0.45200413  0.75733128  0.88676466  1
  Al  Al34  1  0.55718861  0.87328107  0.64291750  1
  Gd  Gd35  1  0.22222222  0.87222224  0.13960506  1
  N  N36  1  0.22166625  0.20494527  0.33389242  1
  N  N37  1  0.09531653  0.12603362  0.07278577  1
  N  N38  1  0.88525090  0.20723129  0.83152565  1
  N  N39  1  0.77727234  0.09469716  0.58235617  1
  N  N40  1  0.55555555  0.20555557  0.33270377  1
  N  N41  1  0.44395723  0.09395724  0.08413417  1
  N  N42  1  0.22418449  0.20723128  0.83152565  1
  N  N43  1  0.10953916  0.09758835  0.59054993  1
  N  N44  1  0.89005516  0.20494527  0.33389242  1
  N  N45  1  0.77875221  0.09395724  0.08413417  1
  N  N46  1  0.55555555  0.20555556  0.83372644  1
  N  N47  1  0.44469715  0.09469717  0.58235617  1
  N  N48  1  0.22166624  0.54005517  0.33389242  1
  N  N49  1  0.11067468  0.42799601  0.08330762  1
  N  N50  1  0.88888889  0.53888890  0.83362177  1
  N  N51  1  0.77802978  0.42802979  0.58228274  1
  N  N52  1  0.55494526  0.54005517  0.33389242  1
  N  N53  1  0.44395723  0.42875222  0.08413417  1
  N  N54  1  0.22418449  0.53525092  0.83152565  1
  N  N55  1  0.11060708  0.42802980  0.58228274  1
  N  N56  1  0.88888889  0.53888890  0.33250957  1
  N  N57  1  0.77799599  0.42799601  0.08330762  1
  N  N58  1  0.55723127  0.53525091  0.83152565  1
  N  N59  1  0.44469715  0.42727235  0.58235617  1
  N  N60  1  0.22222222  0.87222223  0.36200969  1
  N  N61  1  0.09531654  0.74531655  0.07278577  1
  N  N62  1  0.88525090  0.87418451  0.83152565  1
  N  N63  1  0.77802979  0.76060709  0.58228274  1
  N  N64  1  0.55494526  0.87166626  0.33389242  1
  N  N65  1  0.47603361  0.74531654  0.07278577  1
  N  N66  1  0.22222222  0.87222224  0.83958591  1
  N  N67  1  0.10953917  0.75953918  0.59054993  1
  N  N68  1  0.89005516  0.87166625  0.33389242  1
  N  N69  1  0.77799599  0.76067469  0.08330762  1
  N  N70  1  0.55723126  0.87418450  0.83152565  1
  N  N71  1  0.44758834  0.75953917  0.59054993  1
