# generated using pymatgen
data_Al35BN36
_symmetry_space_group_name_H-M   'P 1'
_cell_length_a   9.34321146
_cell_length_b   9.34321189
_cell_length_c   9.98341339
_cell_angle_alpha   90.00000765
_cell_angle_beta   90.00000270
_cell_angle_gamma   60.00000040
_symmetry_Int_Tables_number   1
_chemical_formula_structural   Al35BN36
_chemical_formula_sum   'Al35 B1 N36'
_cell_volume   754.74816241
_cell_formula_units_Z   1
loop_
 _symmetry_equiv_pos_site_id
 _symmetry_equiv_pos_as_xyz
  1  'x, y, z'
loop_
 _atom_site_type_symbol
 _atom_site_label
 _atom_site_symmetry_multiplicity
 _atom_site_fract_x
 _atom_site_fract_y
 _atom_site_fract_z
 _atom_site_occupancy
  Al  Al0  1  0.10765929  0.09273694  0.30621396  1
  Al  Al1  1  0.22239662  0.20520664  0.05644311  1
  Al  Al2  1  0.77777757  0.09444442  0.80821418  1
  Al  Al3  1  0.88609117  0.20275705  0.55221247  1
  Al  Al4  1  0.44960367  0.09273651  0.30621385  1
  Al  Al5  1  0.55801806  0.20432440  0.06289658  1
  Al  Al6  1  0.10934125  0.09520037  0.80655803  1
  Al  Al7  1  0.22212268  0.20575427  0.55621384  1
  Al  Al8  1  0.88765784  0.20432418  0.06289660  1
  Al  Al9  1  0.44545805  0.09520047  0.80655794  1
  Al  Al10  1  0.56115149  0.20275736  0.55221247  1
  Al  Al11  1  0.11111150  0.42777755  0.30562925  1
  Al  Al12  1  0.22239678  0.53906363  0.05644306  1
  Al  Al13  1  0.77853442  0.42600735  0.80655799  1
  Al  Al14  1  0.88908726  0.53878967  0.55621391  1
  Al  Al15  1  0.44960375  0.42432673  0.30621394  1
  Al  Al16  1  0.55557641  0.53884775  0.05585434  1
  Al  Al17  1  0.11111152  0.42777756  0.80631615  1
  Al  Al18  1  0.22212297  0.53878995  0.55621390  1
  Al  Al19  1  0.77606930  0.42432700  0.30621398  1
  Al  Al20  1  0.88853998  0.53906336  0.05644300  1
  Al  Al21  1  0.44545808  0.42600760  0.80655793  1
  Al  Al22  1  0.55569820  0.53860408  0.55647124  1
  Al  Al23  1  0.10765960  0.76627013  0.30621384  1
  Al  Al24  1  0.22218122  0.87224264  0.05585469  1
  Al  Al25  1  0.77853418  0.76212487  0.80655811  1
  Al  Al26  1  0.88609104  0.87781823  0.55221237  1
  Al  Al27  1  0.44444371  0.76111192  0.30602345  1
  Al  Al28  1  0.55557650  0.87224237  0.05585448  1
  Al  Al29  1  0.10934094  0.76212507  0.80655812  1
  Al  Al30  1  0.22193761  0.87236440  0.55647105  1
  Al  Al31  1  0.77606962  0.76626995  0.30621377  1
  Al  Al32  1  0.88765764  0.87468526  0.06289663  1
  Al  Al33  1  0.44444425  0.76111134  0.80622547  1
  Al  Al34  1  0.55569826  0.87236415  0.55647111  1
  B  B35  1  0.77777755  0.09444459  0.30256508  1
  N  N36  1  0.22251979  0.20496037  0.36494330  1
  N  N37  1  0.11160559  0.09395940  0.11601141  1
  N  N38  1  0.88801967  0.20468592  0.87039226  1
  N  N39  1  0.77777773  0.09444436  0.61942412  1
  N  N40  1  0.58058036  0.19304323  0.35832165  1
  N  N41  1  0.44443516  0.09395931  0.11601116  1
  N  N42  1  0.22243335  0.20513314  0.86495580  1
  N  N43  1  0.10870828  0.09572916  0.61408502  1
  N  N44  1  0.87637602  0.19304342  0.35832177  1
  N  N45  1  0.77777767  0.09444471  0.13724205  1
  N  N46  1  0.55729417  0.20468612  0.87039214  1
  N  N47  1  0.44556240  0.09572920  0.61408489  1
  N  N48  1  0.22251991  0.53918647  0.36494334  1
  N  N49  1  0.11111124  0.42777787  0.11488888  1
  N  N50  1  0.88846682  0.53909994  0.86495569  1
  N  N51  1  0.77906301  0.42537445  0.61408496  1
  N  N52  1  0.55525195  0.53949590  0.36604202  1
  N  N53  1  0.44443513  0.42827232  0.11601122  1
  N  N54  1  0.22243333  0.53910023  0.86495574  1
  N  N55  1  0.11111112  0.42777798  0.61550264  1
  N  N56  1  0.88829388  0.53918630  0.36494335  1
  N  N57  1  0.77729294  0.42827216  0.11601134  1
  N  N58  1  0.55574180  0.53851653  0.86472134  1
  N  N59  1  0.44556257  0.42537475  0.61408488  1
  N  N60  1  0.22282800  0.87191933  0.36604200  1
  N  N61  1  0.11160549  0.76110181  0.11601134  1
  N  N62  1  0.88801951  0.87396112  0.87039231  1
  N  N63  1  0.77906291  0.76222913  0.61408505  1
  N  N64  1  0.55525226  0.87191911  0.36604198  1
  N  N65  1  0.44444451  0.76111112  0.11487751  1
  N  N66  1  0.22184992  0.87240829  0.86472178  1
  N  N67  1  0.10870815  0.76222934  0.61408510  1
  N  N68  1  0.87637614  0.89724711  0.35832160  1
  N  N69  1  0.77729304  0.76110169  0.11601122  1
  N  N70  1  0.55574183  0.87240821  0.86472158  1
  N  N71  1  0.44444449  0.76111108  0.61560739  1
