# generated using pymatgen
data_Al35BN36
_symmetry_space_group_name_H-M   'P 1'
_cell_length_a   9.34354802
_cell_length_b   9.34354947
_cell_length_c   9.98257856
_cell_angle_alpha   90.00003294
_cell_angle_beta   90.00000352
_cell_angle_gamma   60.00007596
_symmetry_Int_Tables_number   1
_chemical_formula_structural   Al35BN36
_chemical_formula_sum   'Al35 B1 N36'
_cell_volume   754.74007753
_cell_formula_units_Z   1
loop_
 _symmetry_equiv_pos_site_id
 _symmetry_equiv_pos_as_xyz
  1  'x, y, z'
loop_
 _atom_site_type_symbol
 _atom_site_label
 _atom_site_symmetry_multiplicity
 _atom_site_fract_x
 _atom_site_fract_y
 _atom_site_fract_z
 _atom_site_occupancy
  Al  Al0  1  0.10765974  0.09273647  0.32212607  1
  Al  Al1  1  0.22239727  0.20520549  0.07235449  1
  Al  Al2  1  0.77777760  0.09444438  0.82412784  1
  Al  Al3  1  0.88608929  0.20275526  0.56812088  1
  Al  Al4  1  0.44960386  0.09273597  0.32212602  1
  Al  Al5  1  0.55801520  0.20432580  0.07880634  1
  Al  Al6  1  0.10934044  0.09520107  0.82246713  1
  Al  Al7  1  0.22212221  0.20575518  0.57212395  1
  Al  Al8  1  0.88765942  0.20432567  0.07880628  1
  Al  Al9  1  0.44545820  0.09520108  0.82246708  1
  Al  Al10  1  0.56115515  0.20275545  0.56812093  1
  Al  Al11  1  0.11111158  0.42777759  0.32153869  1
  Al  Al12  1  0.22239742  0.53906417  0.07235449  1
  Al  Al13  1  0.77853515  0.42600650  0.82246708  1
  Al  Al14  1  0.88908813  0.53878925  0.57212404  1
  Al  Al15  1  0.44960391  0.42432714  0.32212614  1
  Al  Al16  1  0.55557684  0.53884689  0.07176399  1
  Al  Al17  1  0.11111155  0.42777754  0.82222857  1
  Al  Al18  1  0.22212248  0.53878949  0.57212404  1
  Al  Al19  1  0.77606881  0.42432751  0.32212608  1
  Al  Al20  1  0.88853890  0.53906394  0.07235437  1
  Al  Al21  1  0.44545822  0.42600667  0.82246702  1
  Al  Al22  1  0.55569796  0.53860447  0.57238289  1
  Al  Al23  1  0.10766003  0.76627025  0.32212609  1
  Al  Al24  1  0.22218043  0.87224300  0.07176431  1
  Al  Al25  1  0.77853484  0.76212501  0.82246725  1
  Al  Al26  1  0.88608910  0.87782193  0.56812082  1
  Al  Al27  1  0.44444368  0.76111189  0.32193245  1
  Al  Al28  1  0.55557690  0.87224272  0.07176417  1
  Al  Al29  1  0.10934003  0.76212520  0.82246723  1
  Al  Al30  1  0.22193793  0.87236421  0.57238276  1
  Al  Al31  1  0.77606909  0.76627011  0.32212598  1
  Al  Al32  1  0.88765915  0.87468230  0.07880646  1
  Al  Al33  1  0.44444421  0.76111128  0.82213775  1
  Al  Al34  1  0.55569795  0.87236388  0.57238281  1
  B  B35  1  0.77777761  0.09444480  0.31845822  1
  N  N36  1  0.22251966  0.20496098  0.38084131  1
  N  N37  1  0.11160556  0.09395908  0.13191077  1
  N  N38  1  0.88801987  0.20468616  0.88629172  1
  N  N39  1  0.77777764  0.09444431  0.63532662  1
  N  N40  1  0.58058219  0.19304246  0.37421898  1
  N  N41  1  0.44443543  0.09395895  0.13191064  1
  N  N42  1  0.22243391  0.20513225  0.88085412  1
  N  N43  1  0.10870657  0.09573013  0.62998133  1
  N  N44  1  0.87637523  0.19304273  0.37421897  1
  N  N45  1  0.77777772  0.09444467  0.15313641  1
  N  N46  1  0.55729395  0.20468627  0.88629170  1
  N  N47  1  0.44556291  0.09573005  0.62998123  1
  N  N48  1  0.22251977  0.53918639  0.38084140  1
  N  N49  1  0.11111122  0.42777781  0.13078616  1
  N  N50  1  0.88846590  0.53910053  0.88085399  1
  N  N51  1  0.77906391  0.42537282  0.62998125  1
  N  N52  1  0.55525148  0.53949717  0.38194082  1
  N  N53  1  0.44443539  0.42827215  0.13191073  1
  N  N54  1  0.22243390  0.53910083  0.88085410  1
  N  N55  1  0.11111102  0.42777791  0.63140175  1
  N  N56  1  0.88829446  0.53918623  0.38084135  1
  N  N57  1  0.77729268  0.42827209  0.13191073  1
  N  N58  1  0.55574257  0.53851514  0.88061834  1
  N  N59  1  0.44556309  0.42537302  0.62998116  1
  N  N60  1  0.22282919  0.87191895  0.38194073  1
  N  N61  1  0.11160539  0.76110200  0.13191080  1
  N  N62  1  0.88801965  0.87396092  0.88629187  1
  N  N63  1  0.77906371  0.76222971  0.62998139  1
  N  N64  1  0.55525169  0.87191862  0.38194076  1
  N  N65  1  0.44444445  0.76111100  0.13077389  1
  N  N66  1  0.22184850  0.87240910  0.88061870  1
  N  N67  1  0.10870635  0.76222990  0.62998139  1
  N  N68  1  0.87637534  0.89724898  0.37421897  1
  N  N69  1  0.77729274  0.76110192  0.13191065  1
  N  N70  1  0.55574255  0.87240895  0.88061858  1
  N  N71  1  0.44444431  0.76111099  0.63150694  1
