# generated using pymatgen
data_Al35BN36
_symmetry_space_group_name_H-M   'P 1'
_cell_length_a   9.46045158
_cell_length_b   9.46041299
_cell_length_c   9.66751693
_cell_angle_alpha   90.00002586
_cell_angle_beta   89.99999913
_cell_angle_gamma   59.99988569
_symmetry_Int_Tables_number   1
_chemical_formula_structural   Al35BN36
_chemical_formula_sum   'Al35 B1 N36'
_cell_volume   749.31950185
_cell_formula_units_Z   1
loop_
 _symmetry_equiv_pos_site_id
 _symmetry_equiv_pos_as_xyz
  1  'x, y, z'
loop_
 _atom_site_type_symbol
 _atom_site_label
 _atom_site_symmetry_multiplicity
 _atom_site_fract_x
 _atom_site_fract_y
 _atom_site_fract_z
 _atom_site_occupancy
  Al  Al0  1  0.10793852  0.09251009  0.32838913  1
  Al  Al1  1  0.22265075  0.20469855  0.07816496  1
  Al  Al2  1  0.77777774  0.09444454  0.83029695  1
  Al  Al3  1  0.88541801  0.20208469  0.57223250  1
  Al  Al4  1  0.44955143  0.09251008  0.32838913  1
  Al  Al5  1  0.55703200  0.20481727  0.08453327  1
  Al  Al6  1  0.10882344  0.09555871  0.82733119  1
  Al  Al7  1  0.22191345  0.20617317  0.57756946  1
  Al  Al8  1  0.88815079  0.20481727  0.08453328  1
  Al  Al9  1  0.44561785  0.09555871  0.82733120  1
  Al  Al10  1  0.56249735  0.20208467  0.57223251  1
  Al  Al11  1  0.11111112  0.42777777  0.32661110  1
  Al  Al12  1  0.22265079  0.53931717  0.07816497  1
  Al  Al13  1  0.77889184  0.42549029  0.82733121  1
  Al  Al14  1  0.88950673  0.53857988  0.57756946  1
  Al  Al15  1  0.44955153  0.42460535  0.32838909  1
  Al  Al16  1  0.55579614  0.53840776  0.07703093  1
  Al  Al17  1  0.11111110  0.42777779  0.82863192  1
  Al  Al18  1  0.22191344  0.53857987  0.57756945  1
  Al  Al19  1  0.77584312  0.42460538  0.32838908  1
  Al  Al20  1  0.88803208  0.53931718  0.07816495  1
  Al  Al21  1  0.44561785  0.42549029  0.82733121  1
  Al  Al22  1  0.55558007  0.53883990  0.57831219  1
  Al  Al23  1  0.10793862  0.76621820  0.32838907  1
  Al  Al24  1  0.22174116  0.87246273  0.07703093  1
  Al  Al25  1  0.77889188  0.76228459  0.82733120  1
  Al  Al26  1  0.88541807  0.87916388  0.57223254  1
  Al  Al27  1  0.44444432  0.76111132  0.32679162  1
  Al  Al28  1  0.55579614  0.87246273  0.07703093  1
  Al  Al29  1  0.10882352  0.76228457  0.82733119  1
  Al  Al30  1  0.22217323  0.87224668  0.57831218  1
  Al  Al31  1  0.77584317  0.76621821  0.32838906  1
  Al  Al32  1  0.88815084  0.87369837  0.08453315  1
  Al  Al33  1  0.44444435  0.76111128  0.82850270  1
  Al  Al34  1  0.55558011  0.87224667  0.57831217  1
  B  B35  1  0.77777798  0.09444410  0.31751324  1
  N  N36  1  0.22238045  0.20523919  0.38091229  1
  N  N37  1  0.11168186  0.09386340  0.13260395  1
  N  N38  1  0.88808818  0.20475431  0.88706129  1
  N  N39  1  0.77777755  0.09444490  0.63699670  1
  N  N40  1  0.58133327  0.19266652  0.37359742  1
  N  N41  1  0.44445474  0.09386341  0.13260395  1
  N  N42  1  0.22268094  0.20463817  0.88081432  1
  N  N43  1  0.10804691  0.09613703  0.62917197  1
  N  N44  1  0.87600028  0.19266654  0.37359740  1
  N  N45  1  0.77777765  0.09444470  0.15125955  1
  N  N46  1  0.55715758  0.20475430  0.88706129  1
  N  N47  1  0.44581606  0.09613701  0.62917197  1
  N  N48  1  0.22238044  0.53904645  0.38091224  1
  N  N49  1  0.11111091  0.42777816  0.13019700  1
  N  N50  1  0.88797218  0.53934694  0.88081431  1
  N  N51  1  0.77946961  0.42471435  0.62917201  1
  N  N52  1  0.55498740  0.54002526  0.38230220  1
  N  N53  1  0.44445480  0.42834918  0.13260390  1
  N  N54  1  0.22268092  0.53934693  0.88081433  1
  N  N55  1  0.11111092  0.42777815  0.63211818  1
  N  N56  1  0.88857318  0.53904646  0.38091225  1
  N  N57  1  0.77719600  0.42834919  0.13260389  1
  N  N58  1  0.55606395  0.53787214  0.88016493  1
  N  N59  1  0.44581603  0.42471435  0.62917200  1
  N  N60  1  0.22335895  0.87165361  0.38230219  1
  N  N61  1  0.11168192  0.76112200  0.13260387  1
  N  N62  1  0.88808823  0.87382359  0.88706120  1
  N  N63  1  0.77946966  0.76248329  0.62917198  1
  N  N64  1  0.55498748  0.87165360  0.38230218  1
  N  N65  1  0.44444419  0.76111159  0.12986543  1
  N  N66  1  0.22120594  0.87273009  0.88016492  1
  N  N67  1  0.10804701  0.76248329  0.62917196  1
  N  N68  1  0.87600028  0.89799949  0.37359735  1
  N  N69  1  0.77719606  0.76112200  0.13260386  1
  N  N70  1  0.55606400  0.87273009  0.88016493  1
  N  N71  1  0.44444417  0.76111164  0.63240194  1
