# generated using pymatgen
data_Al35BN36
_symmetry_space_group_name_H-M   'P 1'
_cell_length_a   9.54715939
_cell_length_b   9.54709243
_cell_length_c   9.41529870
_cell_angle_alpha   90.00002141
_cell_angle_beta   89.99999593
_cell_angle_gamma   59.99979729
_symmetry_Int_Tables_number   1
_chemical_formula_structural   Al35BN36
_chemical_formula_sum   'Al35 B1 N36'
_cell_volume   743.20589828
_cell_formula_units_Z   1
loop_
 _symmetry_equiv_pos_site_id
 _symmetry_equiv_pos_as_xyz
  1  'x, y, z'
loop_
 _atom_site_type_symbol
 _atom_site_label
 _atom_site_symmetry_multiplicity
 _atom_site_fract_x
 _atom_site_fract_y
 _atom_site_fract_z
 _atom_site_occupancy
  Al  Al0  1  0.10810561  0.09235396  0.33182679  1
  Al  Al1  1  0.22281930  0.20436146  0.08128865  1
  Al  Al2  1  0.77777787  0.09444428  0.83368720  1
  Al  Al3  1  0.88491422  0.20158172  0.57400792  1
  Al  Al4  1  0.44954046  0.09235397  0.33182678  1
  Al  Al5  1  0.55640174  0.20513284  0.08762014  1
  Al  Al6  1  0.10843745  0.09583729  0.82969131  1
  Al  Al7  1  0.22178920  0.20642168  0.58029596  1
  Al  Al8  1  0.88846549  0.20513284  0.08762015  1
  Al  Al9  1  0.44572527  0.09583730  0.82969131  1
  Al  Al10  1  0.56350413  0.20158168  0.57400793  1
  Al  Al11  1  0.11111149  0.42777703  0.32917011  1
  Al  Al12  1  0.22281944  0.53948631  0.08128875  1
  Al  Al13  1  0.77917100  0.42510347  0.82969137  1
  Al  Al14  1  0.88975457  0.53845613  0.58029594  1
  Al  Al15  1  0.44954052  0.42477195  0.33182660  1
  Al  Al16  1  0.55594336  0.53811330  0.07970874  1
  Al  Al17  1  0.11111147  0.42777705  0.83203997  1
  Al  Al18  1  0.22178937  0.53845612  0.58029592  1
  Al  Al19  1  0.77568751  0.42477199  0.33182658  1
  Al  Al20  1  0.88769430  0.53948631  0.08128873  1
  Al  Al21  1  0.44572551  0.42510346  0.82969135  1
  Al  Al22  1  0.55551099  0.53897806  0.58144152  1
  Al  Al23  1  0.10810577  0.76620664  0.33182665  1
  Al  Al24  1  0.22144592  0.87261098  0.07970880  1
  Al  Al25  1  0.77917098  0.76239129  0.82969137  1
  Al  Al26  1  0.88491403  0.88017195  0.57400822  1
  Al  Al27  1  0.44444461  0.76111074  0.32921482  1
  Al  Al28  1  0.55594313  0.87261098  0.07970881  1
  Al  Al29  1  0.10843774  0.76239126  0.82969136  1
  Al  Al30  1  0.22231063  0.87217856  0.58144144  1
  Al  Al31  1  0.77568757  0.76620665  0.33182663  1
  Al  Al32  1  0.88846553  0.87306900  0.08761995  1
  Al  Al33  1  0.44444461  0.76111074  0.83189979  1
  Al  Al34  1  0.55551084  0.87217855  0.58144142  1
  B  B35  1  0.77777789  0.09444428  0.31519934  1
  N  N36  1  0.22230028  0.20539952  0.37823670  1
  N  N37  1  0.11172158  0.09381614  0.13051321  1
  N  N38  1  0.88817688  0.20484370  0.88510263  1
  N  N39  1  0.77777808  0.09444384  0.63613307  1
  N  N40  1  0.58204759  0.19230930  0.37053465  1
  N  N41  1  0.44446228  0.09381614  0.13051320  1
  N  N42  1  0.22284819  0.20430370  0.87803344  1
  N  N43  1  0.10756270  0.09642862  0.62576939  1
  N  N44  1  0.87564318  0.19230934  0.37053463  1
  N  N45  1  0.77777811  0.09444379  0.14674838  1
  N  N46  1  0.55697951  0.20484368  0.88510262  1
  N  N47  1  0.44600868  0.09642858  0.62576940  1
  N  N48  1  0.22230025  0.53896709  0.37823669  1
  N  N49  1  0.11111104  0.42777788  0.12706346  1
  N  N50  1  0.88763690  0.53951518  0.87803347  1
  N  N51  1  0.77976197  0.42422965  0.62576946  1
  N  N52  1  0.55482023  0.54035960  0.37988517  1
  N  N53  1  0.44446209  0.42838819  0.13051311  1
  N  N54  1  0.22284798  0.53951516  0.87803348  1
  N  N55  1  0.11111107  0.42777785  0.62983459  1
  N  N56  1  0.88873273  0.53896710  0.37823670  1
  N  N57  1  0.77714968  0.42838821  0.13051310  1
  N  N58  1  0.55627752  0.53744501  0.87707641  1
  N  N59  1  0.44600837  0.42422963  0.62576945  1
  N  N60  1  0.22369217  0.87148725  0.37988518  1
  N  N61  1  0.11172148  0.76112860  0.13051314  1
  N  N62  1  0.88817707  0.87364592  0.88510241  1
  N  N63  1  0.77976223  0.76267506  0.62576942  1
  N  N64  1  0.55482063  0.87148724  0.37988516  1
  N  N65  1  0.44444440  0.76111115  0.12649900  1
  N  N66  1  0.22077780  0.87294435  0.87707639  1
  N  N67  1  0.10756265  0.76267506  0.62576940  1
  N  N68  1  0.87564324  0.89871356  0.37053456  1
  N  N69  1  0.77714988  0.76112860  0.13051312  1
  N  N70  1  0.55627790  0.87294434  0.87707640  1
  N  N71  1  0.44444438  0.76111119  0.63030798  1
