# generated using pymatgen
data_Al35BN36
_symmetry_space_group_name_H-M   'P 1'
_cell_length_a   9.34320397
_cell_length_b   9.34320445
_cell_length_c   9.98342257
_cell_angle_alpha   89.99999151
_cell_angle_beta   89.99999579
_cell_angle_gamma   60.00000323
_symmetry_Int_Tables_number   1
_chemical_formula_structural   Al35BN36
_chemical_formula_sum   'Al35 B1 N36'
_cell_volume   754.74767164
_cell_formula_units_Z   1
loop_
 _symmetry_equiv_pos_site_id
 _symmetry_equiv_pos_as_xyz
  1  'x, y, z'
loop_
 _atom_site_type_symbol
 _atom_site_label
 _atom_site_symmetry_multiplicity
 _atom_site_fract_x
 _atom_site_fract_y
 _atom_site_fract_z
 _atom_site_occupancy
  Al  Al0  1  0.10765946  0.09273711  0.39974161  1
  Al  Al1  1  0.22212281  0.20575406  0.14974192  1
  Al  Al2  1  0.77777756  0.09444432  0.89773753  1
  Al  Al3  1  0.88765786  0.20432422  0.64305398  1
  Al  Al4  1  0.44960349  0.09273663  0.39974168  1
  Al  Al5  1  0.56115137  0.20275740  0.15373944  1
  Al  Al6  1  0.10934098  0.09520019  0.89939669  1
  Al  Al7  1  0.22239642  0.20520706  0.64951340  1
  Al  Al8  1  0.88609121  0.20275713  0.15373944  1
  Al  Al9  1  0.44545846  0.09520024  0.89939675  1
  Al  Al10  1  0.55801800  0.20432441  0.64305393  1
  Al  Al11  1  0.11111156  0.42777765  0.40032583  1
  Al  Al12  1  0.22212308  0.53879011  0.14974180  1
  Al  Al13  1  0.77853428  0.42600703  0.89939673  1
  Al  Al14  1  0.88854034  0.53906324  0.64951349  1
  Al  Al15  1  0.44960360  0.42432688  0.39974158  1
  Al  Al16  1  0.55569824  0.53860401  0.14948546  1
  Al  Al17  1  0.11111153  0.42777759  0.89964067  1
  Al  Al18  1  0.22239660  0.53906352  0.64951338  1
  Al  Al19  1  0.77606947  0.42432716  0.39974160  1
  Al  Al20  1  0.88908703  0.53878983  0.14974181  1
  Al  Al21  1  0.44545851  0.42600727  0.89939676  1
  Al  Al22  1  0.55557626  0.53884801  0.65010078  1
  Al  Al23  1  0.10765978  0.76626996  0.39974166  1
  Al  Al24  1  0.22193751  0.87236446  0.14948563  1
  Al  Al25  1  0.77853401  0.76212530  0.89939660  1
  Al  Al26  1  0.88765763  0.87468523  0.64305385  1
  Al  Al27  1  0.44444375  0.76111191  0.39993257  1
  Al  Al28  1  0.55569827  0.87236416  0.14948560  1
  Al  Al29  1  0.10934063  0.76212550  0.89939657  1
  Al  Al30  1  0.22218143  0.87224255  0.65010043  1
  Al  Al31  1  0.77606974  0.76626976  0.39974175  1
  Al  Al32  1  0.88609106  0.87781815  0.15373956  1
  Al  Al33  1  0.44444424  0.76111130  0.89973089  1
  Al  Al34  1  0.55557633  0.87224228  0.65010061  1
  B  B35  1  0.77777757  0.09444468  0.40338675  1
  N  N36  1  0.22251993  0.20496031  0.34101131  1
  N  N37  1  0.10870864  0.09572883  0.09186928  1
  N  N38  1  0.88801975  0.20468597  0.83555902  1
  N  N39  1  0.77777769  0.09444474  0.56870931  1
  N  N40  1  0.58058024  0.19304336  0.34763130  1
  N  N41  1  0.44556243  0.09572877  0.09186938  1
  N  N42  1  0.22243320  0.20513343  0.84099923  1
  N  N43  1  0.11160626  0.09395928  0.58994262  1
  N  N44  1  0.87637617  0.19304355  0.34763122  1
  N  N45  1  0.77777770  0.09444436  0.08652853  1
  N  N46  1  0.55729390  0.20468616  0.83555904  1
  N  N47  1  0.44443460  0.09395916  0.58994275  1
  N  N48  1  0.22252007  0.53918664  0.34101121  1
  N  N49  1  0.11111114  0.42777799  0.09045329  1
  N  N50  1  0.88846709  0.53909980  0.84099935  1
  N  N51  1  0.77729277  0.42827288  0.58994266  1
  N  N52  1  0.55525202  0.53949598  0.33991343  1
  N  N53  1  0.44556261  0.42537505  0.09186937  1
  N  N54  1  0.22243323  0.53910012  0.84099921  1
  N  N55  1  0.11111126  0.42777795  0.59106512  1
  N  N56  1  0.88829380  0.53918645  0.34101127  1
  N  N57  1  0.77906268  0.42537480  0.09186933  1
  N  N58  1  0.55574159  0.53851687  0.84123269  1
  N  N59  1  0.44443460  0.42827300  0.58994267  1
  N  N60  1  0.22282812  0.87191940  0.33991354  1
  N  N61  1  0.10870841  0.76222941  0.09186918  1
  N  N62  1  0.88801960  0.87396082  0.83555890  1
  N  N63  1  0.77729283  0.76110122  0.58994274  1
  N  N64  1  0.55525224  0.87191911  0.33991351  1
  N  N65  1  0.44444446  0.76111107  0.09034857  1
  N  N66  1  0.22185030  0.87240806  0.84123232  1
  N  N67  1  0.11160613  0.76110136  0.58994261  1
  N  N68  1  0.87637629  0.89724700  0.34763132  1
  N  N69  1  0.77906248  0.76222919  0.09186924  1
  N  N70  1  0.55574163  0.87240797  0.84123247  1
  N  N71  1  0.44444450  0.76111112  0.59107654  1
