# generated using pymatgen
data_Al35BN36
_symmetry_space_group_name_H-M   'P 1'
_cell_length_a   9.34320709
_cell_length_b   9.34320765
_cell_length_c   9.98340668
_cell_angle_alpha   89.99999130
_cell_angle_beta   89.99999649
_cell_angle_gamma   60.00000408
_symmetry_Int_Tables_number   1
_chemical_formula_structural   Al35BN36
_chemical_formula_sum   'Al35 B1 N36'
_cell_volume   754.74698720
_cell_formula_units_Z   1
loop_
 _symmetry_equiv_pos_site_id
 _symmetry_equiv_pos_as_xyz
  1  'x, y, z'
loop_
 _atom_site_type_symbol
 _atom_site_label
 _atom_site_symmetry_multiplicity
 _atom_site_fract_x
 _atom_site_fract_y
 _atom_site_fract_z
 _atom_site_occupancy
  Al  Al0  1  0.10765856  0.09273707  0.41265530  1
  Al  Al1  1  0.22212250  0.20575462  0.16265772  1
  Al  Al2  1  0.77777752  0.09444437  0.91064614  1
  Al  Al3  1  0.88765807  0.20432435  0.65597122  1
  Al  Al4  1  0.44960444  0.09273659  0.41265534  1
  Al  Al5  1  0.56115222  0.20275698  0.16665006  1
  Al  Al6  1  0.10934171  0.09520028  0.91231191  1
  Al  Al7  1  0.22239676  0.20520643  0.66242745  1
  Al  Al8  1  0.88609073  0.20275668  0.16665011  1
  Al  Al9  1  0.44545763  0.09520033  0.91231195  1
  Al  Al10  1  0.55801773  0.20432454  0.65597115  1
  Al  Al11  1  0.11111159  0.42777766  0.41324321  1
  Al  Al12  1  0.22212282  0.53878983  0.16265762  1
  Al  Al13  1  0.77853436  0.42600778  0.91231193  1
  Al  Al14  1  0.88853973  0.53906356  0.66242758  1
  Al  Al15  1  0.44960455  0.42432602  0.41265527  1
  Al  Al16  1  0.55569808  0.53860435  0.16239919  1
  Al  Al17  1  0.11111154  0.42777760  0.91255480  1
  Al  Al18  1  0.22239696  0.53906384  0.66242749  1
  Al  Al19  1  0.77606940  0.42432631  0.41265529  1
  Al  Al20  1  0.88908756  0.53878954  0.16265763  1
  Al  Al21  1  0.44545769  0.42600801  0.91231196  1
  Al  Al22  1  0.55557658  0.53884748  0.66301677  1
  Al  Al23  1  0.10765889  0.76627089  0.41265531  1
  Al  Al24  1  0.22193784  0.87236429  0.16239939  1
  Al  Al25  1  0.77853405  0.76212452  0.91231185  1
  Al  Al26  1  0.88765783  0.87468488  0.65597107  1
  Al  Al27  1  0.44444373  0.76111194  0.41284866  1
  Al  Al28  1  0.55569807  0.87236400  0.16239931  1
  Al  Al29  1  0.10934132  0.76212472  0.91231184  1
  Al  Al30  1  0.22218094  0.87224278  0.66301646  1
  Al  Al31  1  0.77606966  0.76627071  0.41265537  1
  Al  Al32  1  0.88609060  0.87781902  0.16665024  1
  Al  Al33  1  0.44444423  0.76111131  0.91264552  1
  Al  Al34  1  0.55557663  0.87224252  0.66301660  1
  B  B35  1  0.77777758  0.09444469  0.41629876  1
  N  N36  1  0.22251975  0.20496069  0.35392716  1
  N  N37  1  0.10870916  0.09572888  0.10478401  1
  N  N38  1  0.88802037  0.20468660  0.84847456  1
  N  N39  1  0.77777773  0.09444472  0.58162435  1
  N  N40  1  0.58058093  0.19304304  0.36054266  1
  N  N41  1  0.44556177  0.09572884  0.10478408  1
  N  N42  1  0.22243327  0.20513331  0.85391375  1
  N  N43  1  0.11160581  0.09395922  0.60285726  1
  N  N44  1  0.87637582  0.19304322  0.36054262  1
  N  N45  1  0.77777766  0.09444434  0.09943740  1
  N  N46  1  0.55729265  0.20468680  0.84847454  1
  N  N47  1  0.44443515  0.09395910  0.60285734  1
  N  N48  1  0.22251992  0.53918646  0.35392707  1
  N  N49  1  0.11111114  0.42777802  0.10336795  1
  N  N50  1  0.88846696  0.53909991  0.85391389  1
  N  N51  1  0.77729279  0.42827237  0.60285731  1
  N  N52  1  0.55525180  0.53949644  0.35282761  1
  N  N53  1  0.44556199  0.42537563  0.10478407  1
  N  N54  1  0.22243329  0.53910024  0.85391376  1
  N  N55  1  0.11111129  0.42777798  0.60398179  1
  N  N56  1  0.88829418  0.53918628  0.35392713  1
  N  N57  1  0.77906272  0.42537535  0.10478405  1
  N  N58  1  0.55574175  0.53851658  0.85414861  1
  N  N59  1  0.44443517  0.42827251  0.60285729  1
  N  N60  1  0.22282852  0.87191920  0.35282775  1
  N  N61  1  0.10870896  0.76222880  0.10478394  1
  N  N62  1  0.88802018  0.87395962  0.84847443  1
  N  N63  1  0.77729281  0.76110174  0.60285731  1
  N  N64  1  0.55525199  0.87191893  0.35282766  1
  N  N65  1  0.44444445  0.76111106  0.10326273  1
  N  N66  1  0.22184999  0.87240821  0.85414826  1
  N  N67  1  0.11160567  0.76110187  0.60285722  1
  N  N68  1  0.87637594  0.89724770  0.36054269  1
  N  N69  1  0.77906251  0.76222857  0.10478399  1
  N  N70  1  0.55574176  0.87240813  0.85414839  1
  N  N71  1  0.44444453  0.76111112  0.60399322  1
