# generated using pymatgen
data_Al35BN36
_symmetry_space_group_name_H-M   'P 1'
_cell_length_a   9.69306726
_cell_length_b   9.69303437
_cell_length_c   8.96490710
_cell_angle_alpha   90.00001338
_cell_angle_beta   89.99999181
_cell_angle_gamma   59.99993671
_symmetry_Int_Tables_number   1
_chemical_formula_structural   Al35BN36
_chemical_formula_sum   'Al35 B1 N36'
_cell_volume   729.45268530
_cell_formula_units_Z   1
loop_
 _symmetry_equiv_pos_site_id
 _symmetry_equiv_pos_as_xyz
  1  'x, y, z'
loop_
 _atom_site_type_symbol
 _atom_site_label
 _atom_site_symmetry_multiplicity
 _atom_site_fract_x
 _atom_site_fract_y
 _atom_site_fract_z
 _atom_site_occupancy
  Al  Al0  1  0.10805270  0.09228467  0.33961700  1
  Al  Al1  1  0.22295959  0.20408118  0.08934495  1
  Al  Al2  1  0.77777725  0.09444522  0.84095630  1
  Al  Al3  1  0.88413182  0.20079847  0.57917553  1
  Al  Al4  1  0.44966267  0.09228479  0.33961699  1
  Al  Al5  1  0.55570765  0.20547947  0.09403239  1
  Al  Al6  1  0.10805867  0.09616822  0.83615811  1
  Al  Al7  1  0.22175313  0.20649413  0.58705047  1
  Al  Al8  1  0.88881287  0.20547941  0.09403241  1
  Al  Al9  1  0.44577326  0.09616828  0.83615808  1
  Al  Al10  1  0.56506953  0.20079856  0.57917547  1
  Al  Al11  1  0.11111144  0.42777737  0.33651622  1
  Al  Al12  1  0.22295987  0.53962525  0.08934502  1
  Al  Al13  1  0.77950092  0.42472531  0.83615809  1
  Al  Al14  1  0.88982809  0.53841884  0.58705052  1
  Al  Al15  1  0.44966308  0.42471925  0.33961695  1
  Al  Al16  1  0.55605514  0.53788952  0.08700101  1
  Al  Al17  1  0.11111144  0.42777737  0.83971006  1
  Al  Al18  1  0.22175336  0.53841875  0.58705050  1
  Al  Al19  1  0.77561741  0.42471941  0.33961692  1
  Al  Al20  1  0.88741504  0.53962535  0.08934502  1
  Al  Al21  1  0.44577372  0.42472515  0.83615806  1
  Al  Al22  1  0.55553898  0.53892186  0.58871091  1
  Al  Al23  1  0.10805299  0.76632966  0.33961695  1
  Al  Al24  1  0.22122336  0.87272189  0.08700103  1
  Al  Al25  1  0.77950079  0.76244025  0.83615816  1
  Al  Al26  1  0.88413144  0.88173712  0.57917569  1
  Al  Al27  1  0.44444442  0.76111114  0.33632739  1
  Al  Al28  1  0.55605472  0.87272205  0.08700104  1
  Al  Al29  1  0.10805902  0.76244004  0.83615815  1
  Al  Al30  1  0.22225573  0.87220571  0.58871083  1
  Al  Al31  1  0.77561722  0.76632979  0.33961692  1
  Al  Al32  1  0.88881270  0.87237466  0.09403241  1
  Al  Al33  1  0.44444443  0.76111114  0.83945783  1
  Al  Al34  1  0.55553855  0.87220587  0.58871084  1
  B  B35  1  0.77777747  0.09444486  0.31156611  1
  N  N36  1  0.22228957  0.20542092  0.37134995  1
  N  N37  1  0.11154263  0.09391938  0.12476351  1
  N  N38  1  0.88840125  0.20506736  0.87972525  1
  N  N39  1  0.77777774  0.09444457  0.63421344  1
  N  N40  1  0.58347492  0.19159574  0.36404792  1
  N  N41  1  0.44453791  0.09391934  0.12476349  1
  N  N42  1  0.22304060  0.20391886  0.87097046  1
  N  N43  1  0.10689519  0.09679310  0.61777760  1
  N  N44  1  0.87492941  0.19159573  0.36404787  1
  N  N45  1  0.77777751  0.09444486  0.13662615  1
  N  N46  1  0.55653160  0.20506733  0.87972527  1
  N  N47  1  0.44631163  0.09679304  0.61777759  1
  N  N48  1  0.22228947  0.53895594  0.37134993  1
  N  N49  1  0.11111086  0.42777815  0.11982081  1
  N  N50  1  0.88725271  0.53970695  0.87097049  1
  N  N51  1  0.78012608  0.42356257  0.61777761  1
  N  N52  1  0.55470567  0.54058883  0.37326214  1
  N  N53  1  0.44453776  0.42820988  0.12476342  1
  N  N54  1  0.22304043  0.53970698  0.87097048  1
  N  N55  1  0.11111082  0.42777821  0.62306122  1
  N  N56  1  0.88875470  0.53895591  0.37134994  1
  N  N57  1  0.77725233  0.42820990  0.12476341  1
  N  N58  1  0.55649858  0.53700303  0.86975091  1
  N  N59  1  0.44631135  0.42356256  0.61777759  1
  N  N60  1  0.22392230  0.87137189  0.37326215  1
  N  N61  1  0.11154255  0.76120492  0.12476348  1
  N  N62  1  0.88840126  0.87319762  0.87972517  1
  N  N63  1  0.78012619  0.76297845  0.61777760  1
  N  N64  1  0.55470592  0.87137182  0.37326213  1
  N  N65  1  0.44444427  0.76111137  0.11893676  1
  N  N66  1  0.22033655  0.87316478  0.86975089  1
  N  N67  1  0.10689521  0.76297853  0.61777759  1
  N  N68  1  0.87492928  0.90014151  0.36404779  1
  N  N69  1  0.77725246  0.76120485  0.12476344  1
  N  N70  1  0.55649877  0.87316470  0.86975091  1
  N  N71  1  0.44444427  0.76111139  0.62398687  1
