# generated using pymatgen
data_Al35BN36
_symmetry_space_group_name_H-M   'P 1'
_cell_length_a   9.34320093
_cell_length_b   9.34320142
_cell_length_c   9.98342825
_cell_angle_alpha   89.99999328
_cell_angle_beta   90.00000003
_cell_angle_gamma   60.00000443
_symmetry_Int_Tables_number   1
_chemical_formula_structural   Al35BN36
_chemical_formula_sum   'Al35 B1 N36'
_cell_volume   754.74762003
_cell_formula_units_Z   1
loop_
 _symmetry_equiv_pos_site_id
 _symmetry_equiv_pos_as_xyz
  1  'x, y, z'
loop_
 _atom_site_type_symbol
 _atom_site_label
 _atom_site_symmetry_multiplicity
 _atom_site_fract_x
 _atom_site_fract_y
 _atom_site_fract_z
 _atom_site_occupancy
  Al  Al0  1  0.10765926  0.09273717  0.39100121  1
  Al  Al1  1  0.22212280  0.20575408  0.14100199  1
  Al  Al2  1  0.77777756  0.09444433  0.88899553  1
  Al  Al3  1  0.88765781  0.20432418  0.63431290  1
  Al  Al4  1  0.44960361  0.09273668  0.39100128  1
  Al  Al5  1  0.56115140  0.20275741  0.14499743  1
  Al  Al6  1  0.10934103  0.09520015  0.89065650  1
  Al  Al7  1  0.22239641  0.20520705  0.64077344  1
  Al  Al8  1  0.88609120  0.20275714  0.14499745  1
  Al  Al9  1  0.44545843  0.09520020  0.89065655  1
  Al  Al10  1  0.55801808  0.20432436  0.63431287  1
  Al  Al11  1  0.11111155  0.42777762  0.39158598  1
  Al  Al12  1  0.22212307  0.53879010  0.14100188  1
  Al  Al13  1  0.77853422  0.42600710  0.89065654  1
  Al  Al14  1  0.88854034  0.53906322  0.64077353  1
  Al  Al15  1  0.44960371  0.42432669  0.39100118  1
  Al  Al16  1  0.55569825  0.53860401  0.14074559  1
  Al  Al17  1  0.11111151  0.42777757  0.89090084  1
  Al  Al18  1  0.22239657  0.53906350  0.64077343  1
  Al  Al19  1  0.77606951  0.42432698  0.39100120  1
  Al  Al20  1  0.88908705  0.53878982  0.14100189  1
  Al  Al21  1  0.44545846  0.42600734  0.89065657  1
  Al  Al22  1  0.55557626  0.53884798  0.64136082  1
  Al  Al23  1  0.10765960  0.76627006  0.39100126  1
  Al  Al24  1  0.22193750  0.87236448  0.14074577  1
  Al  Al25  1  0.77853397  0.76212525  0.89065641  1
  Al  Al26  1  0.88765759  0.87468530  0.63431279  1
  Al  Al27  1  0.44444374  0.76111191  0.39119287  1
  Al  Al28  1  0.55569829  0.87236419  0.14074573  1
  Al  Al29  1  0.10934070  0.76212546  0.89065640  1
  Al  Al30  1  0.22218139  0.87224256  0.64136049  1
  Al  Al31  1  0.77606981  0.76626986  0.39100135  1
  Al  Al32  1  0.88609106  0.87781818  0.14499757  1
  Al  Al33  1  0.44444423  0.76111132  0.89099125  1
  Al  Al34  1  0.55557635  0.87224230  0.64136066  1
  B  B35  1  0.77777757  0.09444467  0.39464419  1
  N  N36  1  0.22251990  0.20496032  0.33227080  1
  N  N37  1  0.10870888  0.09572872  0.08312848  1
  N  N38  1  0.88801986  0.20468610  0.82681775  1
  N  N39  1  0.77777768  0.09444473  0.55996688  1
  N  N40  1  0.58058016  0.19304338  0.33888899  1
  N  N41  1  0.44556230  0.09572867  0.08312857  1
  N  N42  1  0.22243317  0.20513344  0.83225880  1
  N  N43  1  0.11160629  0.09395924  0.58120191  1
  N  N44  1  0.87637619  0.19304359  0.33888895  1
  N  N45  1  0.77777771  0.09444438  0.07778621  1
  N  N46  1  0.55729365  0.20468629  0.82681777  1
  N  N47  1  0.44443456  0.09395914  0.58120204  1
  N  N48  1  0.22252002  0.53918659  0.33227070  1
  N  N49  1  0.11111113  0.42777799  0.08171296  1
  N  N50  1  0.88846711  0.53909977  0.83225891  1
  N  N51  1  0.77729272  0.42827293  0.58120194  1
  N  N52  1  0.55525197  0.53949604  0.33117307  1
  N  N53  1  0.44556248  0.42537531  0.08312858  1
  N  N54  1  0.22243318  0.53910008  0.83225878  1
  N  N55  1  0.11111124  0.42777793  0.58232479  1
  N  N56  1  0.88829382  0.53918642  0.33227077  1
  N  N57  1  0.77906254  0.42537507  0.08312852  1
  N  N58  1  0.55574153  0.53851696  0.83249228  1
  N  N59  1  0.44443456  0.42827304  0.58120196  1
  N  N60  1  0.22282815  0.87191938  0.33117320  1
  N  N61  1  0.10870867  0.76222929  0.08312841  1
  N  N62  1  0.88801972  0.87396057  0.82681765  1
  N  N63  1  0.77729281  0.76110118  0.58120203  1
  N  N64  1  0.55525221  0.87191908  0.33117315  1
  N  N65  1  0.44444446  0.76111111  0.08160854  1
  N  N66  1  0.22185035  0.87240804  0.83249193  1
  N  N67  1  0.11160617  0.76110132  0.58120192  1
  N  N68  1  0.87637633  0.89724690  0.33888903  1
  N  N69  1  0.77906237  0.76222907  0.08312844  1
  N  N70  1  0.55574160  0.87240794  0.83249205  1
  N  N71  1  0.44444448  0.76111113  0.58233632  1
