# generated using pymatgen
data_Al35BN36
_symmetry_space_group_name_H-M   'P 1'
_cell_length_a   9.34903029
_cell_length_b   9.34905156
_cell_length_c   9.96854226
_cell_angle_alpha   90.00002903
_cell_angle_beta   90.00000760
_cell_angle_gamma   60.00026894
_symmetry_Int_Tables_number   1
_chemical_formula_structural   Al35BN36
_chemical_formula_sum   'Al35 B1 N36'
_cell_volume   754.56661267
_cell_formula_units_Z   1
loop_
 _symmetry_equiv_pos_site_id
 _symmetry_equiv_pos_as_xyz
  1  'x, y, z'
loop_
 _atom_site_type_symbol
 _atom_site_label
 _atom_site_symmetry_multiplicity
 _atom_site_fract_x
 _atom_site_fract_y
 _atom_site_fract_z
 _atom_site_occupancy
  Al  Al0  1  0.10767223  0.09272737  0.38504013  1
  Al  Al1  1  0.22211250  0.20577477  0.13507328  1
  Al  Al2  1  0.77777760  0.09444436  0.88305527  1
  Al  Al3  1  0.88768289  0.20434926  0.62839214  1
  Al  Al4  1  0.44960033  0.09272691  0.38504021  1
  Al  Al5  1  0.56121461  0.20272580  0.13914562  1
  Al  Al6  1  0.10931916  0.09521536  0.88475918  1
  Al  Al7  1  0.22240864  0.20518283  0.63482768  1
  Al  Al8  1  0.88605970  0.20272558  0.13914565  1
  Al  Al9  1  0.44546509  0.09521540  0.88475924  1
  Al  Al10  1  0.55796825  0.20434941  0.62839213  1
  Al  Al11  1  0.11111148  0.42777757  0.38567337  1
  Al  Al12  1  0.22211279  0.53877990  0.13507320  1
  Al  Al13  1  0.77854941  0.42598520  0.88475924  1
  Al  Al14  1  0.88851616  0.53907544  0.63482776  1
  Al  Al15  1  0.44960033  0.42433940  0.38504010  1
  Al  Al16  1  0.55569261  0.53861534  0.13479681  1
  Al  Al17  1  0.11111146  0.42777759  0.88492442  1
  Al  Al18  1  0.22240874  0.53907567  0.63482764  1
  Al  Al19  1  0.77605992  0.42433978  0.38504012  1
  Al  Al20  1  0.88910759  0.53877965  0.13507319  1
  Al  Al21  1  0.44546515  0.42598542  0.88475929  1
  Al  Al22  1  0.55558665  0.53882740  0.63544155  1
  Al  Al23  1  0.10767237  0.76626672  0.38504012  1
  Al  Al24  1  0.22194888  0.87235886  0.13479692  1
  Al  Al25  1  0.77854910  0.76213198  0.88475907  1
  Al  Al26  1  0.88768256  0.87463559  0.62839193  1
  Al  Al27  1  0.44444373  0.76111167  0.38529269  1
  Al  Al28  1  0.55569256  0.87235859  0.13479688  1
  Al  Al29  1  0.10931879  0.76213214  0.88475906  1
  Al  Al30  1  0.22216083  0.87225292  0.63544121  1
  Al  Al31  1  0.77606009  0.76626662  0.38504022  1
  Al  Al32  1  0.88605944  0.87788148  0.13914573  1
  Al  Al33  1  0.44444418  0.76111125  0.88501866  1
  Al  Al34  1  0.55558669  0.87225264  0.63544140  1
  B  B35  1  0.77777754  0.09444501  0.38904756  1
  N  N36  1  0.22251314  0.20497412  0.32656891  1
  N  N37  1  0.10867662  0.09574795  0.07746797  1
  N  N38  1  0.88802057  0.20468720  0.82109800  1
  N  N39  1  0.77777767  0.09444455  0.55434846  1
  N  N40  1  0.58060955  0.19302890  0.33323005  1
  N  N41  1  0.44557486  0.09574796  0.07746807  1
  N  N42  1  0.22244528  0.20510967  0.82655994  1
  N  N43  1  0.11160706  0.09395501  0.57547763  1
  N  N44  1  0.87636153  0.19302914  0.33323002  1
  N  N45  1  0.77777772  0.09444403  0.07203650  1
  N  N46  1  0.55729248  0.20468734  0.82109806  1
  N  N47  1  0.44443775  0.09395491  0.57547783  1
  N  N48  1  0.22251327  0.53918020  0.32656885  1
  N  N49  1  0.11111110  0.42777759  0.07597755  1
  N  N50  1  0.88844287  0.53911229  0.82656007  1
  N  N51  1  0.77728902  0.42827318  0.57547766  1
  N  N52  1  0.55523960  0.53952100  0.32546086  1
  N  N53  1  0.44557510  0.42534256  0.07746812  1
  N  N54  1  0.22244534  0.53911258  0.82655996  1
  N  N55  1  0.11111129  0.42777742  0.57665089  1
  N  N56  1  0.88830724  0.53918005  0.32656889  1
  N  N57  1  0.77908219  0.42534232  0.07746805  1
  N  N58  1  0.55575723  0.53848607  0.82681378  1
  N  N59  1  0.44443770  0.42827326  0.57547770  1
  N  N60  1  0.22285300  0.87190724  0.32546092  1
  N  N61  1  0.10867641  0.76224149  0.07746791  1
  N  N62  1  0.88802034  0.87395984  0.82109786  1
  N  N63  1  0.77728904  0.76110391  0.57547776  1
  N  N64  1  0.55523969  0.87190697  0.32546088  1
  N  N65  1  0.44444447  0.76111057  0.07586735  1
  N  N66  1  0.22181910  0.87242415  0.82681340  1
  N  N67  1  0.11160686  0.76110399  0.57547762  1
  N  N68  1  0.87636150  0.89727674  0.33323001  1
  N  N69  1  0.77908200  0.76224131  0.07746793  1
  N  N70  1  0.55575713  0.87242400  0.82681357  1
  N  N71  1  0.44444451  0.76111065  0.57667926  1
