# generated using pymatgen
data_Al35BN36
_symmetry_space_group_name_H-M   'P 1'
_cell_length_a   9.46654451
_cell_length_b   9.46656657
_cell_length_c   9.65008389
_cell_angle_alpha   89.99998744
_cell_angle_beta   90.00000022
_cell_angle_gamma   60.00009553
_symmetry_Int_Tables_number   1
_chemical_formula_structural   Al35BN36
_chemical_formula_sum   'Al35 B1 N36'
_cell_volume   748.93842462
_cell_formula_units_Z   1
loop_
 _symmetry_equiv_pos_site_id
 _symmetry_equiv_pos_as_xyz
  1  'x, y, z'
loop_
 _atom_site_type_symbol
 _atom_site_label
 _atom_site_symmetry_multiplicity
 _atom_site_fract_x
 _atom_site_fract_y
 _atom_site_fract_z
 _atom_site_occupancy
  Al  Al0  1  0.10793683  0.09250215  0.38066437  1
  Al  Al1  1  0.22189466  0.20621074  0.13156529  1
  Al  Al2  1  0.77777781  0.09444437  0.87876063  1
  Al  Al3  1  0.88817433  0.20484130  0.62457511  1
  Al  Al4  1  0.44956103  0.09250215  0.38066437  1
  Al  Al5  1  0.56257175  0.20204764  0.13692595  1
  Al  Al6  1  0.10880733  0.09557492  0.88182736  1
  Al  Al7  1  0.22267197  0.20465611  0.63091281  1
  Al  Al8  1  0.88538068  0.20204766  0.13692596  1
  Al  Al9  1  0.44561773  0.09557492  0.88182735  1
  Al  Al10  1  0.55698443  0.20484130  0.62457512  1
  Al  Al11  1  0.11111123  0.42777752  0.38256535  1
  Al  Al12  1  0.22189472  0.53856152  0.13156524  1
  Al  Al13  1  0.77890849  0.42547368  0.88182736  1
  Al  Al14  1  0.88798914  0.53933888  0.63091274  1
  Al  Al15  1  0.44956102  0.42460325  0.38066441  1
  Al  Al16  1  0.55556505  0.53886998  0.13078775  1
  Al  Al17  1  0.11111123  0.42777750  0.88039469  1
  Al  Al18  1  0.22267204  0.53933888  0.63091272  1
  Al  Al19  1  0.77583572  0.42460327  0.38066441  1
  Al  Al20  1  0.88954380  0.53856153  0.13156523  1
  Al  Al21  1  0.44561780  0.42547368  0.88182736  1
  Al  Al22  1  0.55581731  0.53836545  0.63208679  1
  Al  Al23  1  0.10793684  0.76622743  0.38066431  1
  Al  Al24  1  0.22220305  0.87223206  0.13078778  1
  Al  Al25  1  0.77890847  0.76228411  0.88182727  1
  Al  Al26  1  0.88817431  0.87365144  0.62457501  1
  Al  Al27  1  0.44444455  0.76111087  0.38239274  1
  Al  Al28  1  0.55556494  0.87223206  0.13078779  1
  Al  Al29  1  0.10880740  0.76228410  0.88182727  1
  Al  Al30  1  0.22169850  0.87248434  0.63208673  1
  Al  Al31  1  0.77583572  0.76622743  0.38066432  1
  Al  Al32  1  0.88538055  0.87923894  0.13692583  1
  Al  Al33  1  0.44444456  0.76111085  0.88053231  1
  Al  Al34  1  0.55581721  0.87248434  0.63208673  1
  B  B35  1  0.77777767  0.09444467  0.39192174  1
  N  N36  1  0.22236743  0.20526520  0.32856094  1
  N  N37  1  0.10802569  0.09615323  0.08034802  1
  N  N38  1  0.88809954  0.20476645  0.82236662  1
  N  N39  1  0.77777799  0.09444401  0.55831604  1
  N  N40  1  0.58139304  0.19263689  0.33586066  1
  N  N41  1  0.44582110  0.09615322  0.08034802  1
  N  N42  1  0.22269920  0.20460163  0.82863346  1
  N  N43  1  0.11167377  0.09386225  0.57679877  1
  N  N44  1  0.87597011  0.19263691  0.33586067  1
  N  N45  1  0.77777804  0.09444393  0.07232646  1
  N  N46  1  0.55713404  0.20476645  0.82236663  1
  N  N47  1  0.44446400  0.09386226  0.57679877  1
  N  N48  1  0.22236737  0.53903457  0.32856088  1
  N  N49  1  0.11111115  0.42777773  0.07727862  1
  N  N50  1  0.88793457  0.53936640  0.82863340  1
  N  N51  1  0.77719602  0.42834013  0.57679879  1
  N  N52  1  0.55496842  0.54006319  0.32714631  1
  N  N53  1  0.44582091  0.42469210  0.08034804  1
  N  N54  1  0.22269906  0.53936638  0.82863340  1
  N  N55  1  0.11111115  0.42777772  0.57932554  1
  N  N56  1  0.88859810  0.53903458  0.32856087  1
  N  N57  1  0.77948700  0.42469211  0.08034804  1
  N  N58  1  0.55608518  0.53782965  0.82931457  1
  N  N59  1  0.44446386  0.42834012  0.57679878  1
  N  N60  1  0.22339605  0.87163538  0.32714628  1
  N  N61  1  0.10802557  0.76248738  0.08034794  1
  N  N62  1  0.88809956  0.87380090  0.82236658  1
  N  N63  1  0.77719607  0.76113029  0.57679870  1
  N  N64  1  0.55496860  0.87163538  0.32714629  1
  N  N65  1  0.44444453  0.76111095  0.07698567  1
  N  N66  1  0.22116251  0.87275214  0.82931455  1
  N  N67  1  0.11167365  0.76113029  0.57679870  1
  N  N68  1  0.87597016  0.89805971  0.33586057  1
  N  N69  1  0.77948705  0.76248738  0.08034794  1
  N  N70  1  0.55608536  0.87275215  0.82931454  1
  N  N71  1  0.44444454  0.76111094  0.57967573  1
