# generated using pymatgen
data_Al35BN36
_symmetry_space_group_name_H-M   'P 1'
_cell_length_a   9.61112305
_cell_length_b   9.61104248
_cell_length_c   9.22030337
_cell_angle_alpha   90.00015329
_cell_angle_beta   90.00000687
_cell_angle_gamma   59.99974680
_symmetry_Int_Tables_number   1
_chemical_formula_structural   Al35BN36
_chemical_formula_sum   'Al35 B1 N36'
_cell_volume   737.59738470
_cell_formula_units_Z   1
loop_
 _symmetry_equiv_pos_site_id
 _symmetry_equiv_pos_as_xyz
  1  'x, y, z'
loop_
 _atom_site_type_symbol
 _atom_site_label
 _atom_site_symmetry_multiplicity
 _atom_site_fract_x
 _atom_site_fract_y
 _atom_site_fract_z
 _atom_site_occupancy
  Al  Al0  1  0.10815382  0.09228492  0.37438600  1
  Al  Al1  1  0.22173937  0.20652128  0.12643796  1
  Al  Al2  1  0.77777725  0.09444557  0.87266012  1
  Al  Al3  1  0.88865287  0.20531902  0.61898724  1
  Al  Al4  1  0.44956126  0.09228491  0.37438599  1
  Al  Al5  1  0.56423436  0.20121596  0.13344886  1
  Al  Al6  1  0.10820128  0.09601972  0.87724929  1
  Al  Al7  1  0.22291133  0.20417735  0.62500771  1
  Al  Al8  1  0.88454976  0.20121603  0.13344887  1
  Al  Al9  1  0.44577899  0.09601971  0.87724927  1
  Al  Al10  1  0.55602819  0.20531901  0.61898724  1
  Al  Al11  1  0.11111128  0.42777738  0.37749484  1
  Al  Al12  1  0.22173958  0.53840494  0.12643768  1
  Al  Al13  1  0.77935204  0.42486825  0.87724929  1
  Al  Al14  1  0.88751145  0.53957693  0.62500754  1
  Al  Al15  1  0.44956188  0.42482082  0.37438610  1
  Al  Al16  1  0.55549362  0.53901288  0.12502048  1
  Al  Al17  1  0.11111123  0.42777748  0.87425132  1
  Al  Al18  1  0.22291164  0.53957695  0.62500752  1
  Al  Al19  1  0.77561732  0.42482083  0.37438611  1
  Al  Al20  1  0.88985551  0.53840493  0.12643769  1
  Al  Al21  1  0.44577970  0.42486827  0.87724928  1
  Al  Al22  1  0.55602381  0.53795247  0.62693239  1
  Al  Al23  1  0.10815429  0.76622885  0.37438583  1
  Al  Al24  1  0.22234685  0.87216022  0.12502058  1
  Al  Al25  1  0.77935184  0.76244640  0.87724909  1
  Al  Al26  1  0.88865250  0.87269506  0.61898708  1
  Al  Al27  1  0.44444422  0.76111151  0.37755555  1
  Al  Al28  1  0.55549299  0.87216017  0.12502059  1
  Al  Al29  1  0.10820176  0.76244642  0.87724910  1
  Al  Al30  1  0.22128647  0.87269051  0.62693232  1
  Al  Al31  1  0.77561687  0.76622882  0.37438583  1
  Al  Al32  1  0.88454911  0.88090179  0.13344862  1
  Al  Al33  1  0.44444432  0.76111133  0.87440920  1
  Al  Al34  1  0.55602308  0.87269048  0.62693231  1
  B  B35  1  0.77777787  0.09444433  0.39573903  1
  N  N36  1  0.22227229  0.20545552  0.33361069  1
  N  N37  1  0.10722807  0.09661961  0.08662900  1
  N  N38  1  0.88826123  0.20492687  0.82613586  1
  N  N39  1  0.77777785  0.09444424  0.56659254  1
  N  N40  1  0.58264547  0.19201017  0.34142298  1
  N  N41  1  0.44615234  0.09661960  0.08662899  1
  N  N42  1  0.22295269  0.20409475  0.83390091  1
  N  N43  1  0.11169547  0.09382308  0.58085958  1
  N  N44  1  0.87534440  0.19201019  0.34142299  1
  N  N45  1  0.77777795  0.09444400  0.07392234  1
  N  N46  1  0.55681195  0.20492687  0.82613587  1
  N  N47  1  0.44448145  0.09382310  0.58085958  1
  N  N48  1  0.22227214  0.53893847  0.33361061  1
  N  N49  1  0.11111053  0.42777898  0.08184436  1
  N  N50  1  0.88742885  0.53961909  0.83390082  1
  N  N51  1  0.77715585  0.42836341  0.58085961  1
  N  N52  1  0.55473630  0.54052739  0.33179804  1
  N  N53  1  0.44615161  0.42389609  0.08662893  1
  N  N54  1  0.22295215  0.53961905  0.83390082  1
  N  N55  1  0.11111049  0.42777903  0.58502747  1
  N  N56  1  0.88878947  0.53893848  0.33361062  1
  N  N57  1  0.77995227  0.42389611  0.08662893  1
  N  N58  1  0.55640299  0.53719403  0.83504067  1
  N  N59  1  0.44448072  0.42836338  0.58085960  1
  N  N60  1  0.22386125  0.87140170  0.33179803  1
  N  N61  1  0.10722793  0.76281941  0.08662884  1
  N  N62  1  0.88826153  0.87347697  0.82613580  1
  N  N63  1  0.77715623  0.76114866  0.58085956  1
  N  N64  1  0.55473707  0.87140173  0.33179804  1
  N  N65  1  0.44444414  0.76111169  0.08119549  1
  N  N66  1  0.22052784  0.87306845  0.83504076  1
  N  N67  1  0.11169510  0.76114863  0.58085956  1
  N  N68  1  0.87534442  0.89931118  0.34142311  1
  N  N69  1  0.77995261  0.76281945  0.08662884  1
  N  N70  1  0.55640374  0.87306848  0.83504075  1
  N  N71  1  0.44444416  0.76111166  0.58575708  1
