# generated using pymatgen
data_Al35BN36
_symmetry_space_group_name_H-M   'P 1'
_cell_length_a   9.34321113
_cell_length_b   9.34321166
_cell_length_c   9.98341450
_cell_angle_alpha   90.00000744
_cell_angle_beta   90.00000228
_cell_angle_gamma   60.00000113
_symmetry_Int_Tables_number   1
_chemical_formula_structural   Al35BN36
_chemical_formula_sum   'Al35 B1 N36'
_cell_volume   754.74820711
_cell_formula_units_Z   1
loop_
 _symmetry_equiv_pos_site_id
 _symmetry_equiv_pos_as_xyz
  1  'x, y, z'
loop_
 _atom_site_type_symbol
 _atom_site_label
 _atom_site_symmetry_multiplicity
 _atom_site_fract_x
 _atom_site_fract_y
 _atom_site_fract_z
 _atom_site_occupancy
  Al  Al0  1  0.10765939  0.09273686  0.29814952  1
  Al  Al1  1  0.22239664  0.20520658  0.04837878  1
  Al  Al2  1  0.77777760  0.09444440  0.80014916  1
  Al  Al3  1  0.88609116  0.20275705  0.54414753  1
  Al  Al4  1  0.44960363  0.09273644  0.29814940  1
  Al  Al5  1  0.55801789  0.20432447  0.05483215  1
  Al  Al6  1  0.10934124  0.09520035  0.79849378  1
  Al  Al7  1  0.22212269  0.20575426  0.54814957  1
  Al  Al8  1  0.88765792  0.20432425  0.05483218  1
  Al  Al9  1  0.44545810  0.09520044  0.79849369  1
  Al  Al10  1  0.56115151  0.20275735  0.54414753  1
  Al  Al11  1  0.11111151  0.42777753  0.29756496  1
  Al  Al12  1  0.22239680  0.53906364  0.04837874  1
  Al  Al13  1  0.77853441  0.42600733  0.79849372  1
  Al  Al14  1  0.88908724  0.53878968  0.54814964  1
  Al  Al15  1  0.44960371  0.42432683  0.29814948  1
  Al  Al16  1  0.55557635  0.53884784  0.04779022  1
  Al  Al17  1  0.11111153  0.42777756  0.79825193  1
  Al  Al18  1  0.22212297  0.53878995  0.54814964  1
  Al  Al19  1  0.77606922  0.42432711  0.29814951  1
  Al  Al20  1  0.88853994  0.53906338  0.04837865  1
  Al  Al21  1  0.44545812  0.42600758  0.79849365  1
  Al  Al22  1  0.55569817  0.53860413  0.54840706  1
  Al  Al23  1  0.10765972  0.76627006  0.29814941  1
  Al  Al24  1  0.22218129  0.87224259  0.04779058  1
  Al  Al25  1  0.77853417  0.76212494  0.79849384  1
  Al  Al26  1  0.88609104  0.87781826  0.54414743  1
  Al  Al27  1  0.44444372  0.76111189  0.29795938  1
  Al  Al28  1  0.55557644  0.87224233  0.04779037  1
  Al  Al29  1  0.10934091  0.76212512  0.79849387  1
  Al  Al30  1  0.22193766  0.87236436  0.54840693  1
  Al  Al31  1  0.77606956  0.76626989  0.29814933  1
  Al  Al32  1  0.88765771  0.87468508  0.05483226  1
  Al  Al33  1  0.44444426  0.76111135  0.79816159  1
  Al  Al34  1  0.55569824  0.87236413  0.54840696  1
  B  B35  1  0.77777752  0.09444462  0.29449967  1
  N  N36  1  0.22251984  0.20496028  0.35687896  1
  N  N37  1  0.11160562  0.09395935  0.10794729  1
  N  N38  1  0.88801959  0.20468586  0.86232783  1
  N  N39  1  0.77777772  0.09444436  0.61135821  1
  N  N40  1  0.58058046  0.19304316  0.35025653  1
  N  N41  1  0.44443514  0.09395927  0.10794706  1
  N  N42  1  0.22243334  0.20513316  0.85689166  1
  N  N43  1  0.10870815  0.09572921  0.60602038  1
  N  N44  1  0.87637598  0.19304337  0.35025664  1
  N  N45  1  0.77777766  0.09444468  0.12917716  1
  N  N46  1  0.55729434  0.20468605  0.86232775  1
  N  N47  1  0.44556250  0.09572925  0.60602024  1
  N  N48  1  0.22251994  0.53918649  0.35687898  1
  N  N49  1  0.11111124  0.42777787  0.10682502  1
  N  N50  1  0.88846684  0.53909993  0.85689151  1
  N  N51  1  0.77906304  0.42537432  0.60602030  1
  N  N52  1  0.55525193  0.53949591  0.35797779  1
  N  N53  1  0.44443511  0.42827235  0.10794714  1
  N  N54  1  0.22243333  0.53910022  0.85689160  1
  N  N55  1  0.11111113  0.42777797  0.60743806  1
  N  N56  1  0.88829382  0.53918634  0.35687896  1
  N  N57  1  0.77729288  0.42827222  0.10794722  1
  N  N58  1  0.55574181  0.53851652  0.85665728  1
  N  N59  1  0.44556265  0.42537461  0.60602023  1
  N  N60  1  0.22282803  0.87191931  0.35797770  1
  N  N61  1  0.11160552  0.76110178  0.10794719  1
  N  N62  1  0.88801943  0.87396129  0.86232789  1
  N  N63  1  0.77906295  0.76222924  0.60602037  1
  N  N64  1  0.55525225  0.87191911  0.35797772  1
  N  N65  1  0.44444451  0.76111111  0.10681386  1
  N  N66  1  0.22184991  0.87240831  0.85665767  1
  N  N67  1  0.10870801  0.76222942  0.60602044  1
  N  N68  1  0.87637609  0.89724721  0.35025652  1
  N  N69  1  0.77729299  0.76110168  0.10794707  1
  N  N70  1  0.55574184  0.87240822  0.85665749  1
  N  N71  1  0.44444450  0.76111107  0.60754308  1
