# generated using pymatgen
data_Al35BN36
_symmetry_space_group_name_H-M   'P 1'
_cell_length_a   9.43133235
_cell_length_b   9.43131531
_cell_length_c   9.74893690
_cell_angle_alpha   90.00001865
_cell_angle_beta   90.00000003
_cell_angle_gamma   59.99995684
_symmetry_Int_Tables_number   1
_chemical_formula_structural   Al35BN36
_chemical_formula_sum   'Al35 B1 N36'
_cell_volume   750.98803273
_cell_formula_units_Z   1
loop_
 _symmetry_equiv_pos_site_id
 _symmetry_equiv_pos_as_xyz
  1  'x, y, z'
loop_
 _atom_site_type_symbol
 _atom_site_label
 _atom_site_symmetry_multiplicity
 _atom_site_fract_x
 _atom_site_fract_y
 _atom_site_fract_z
 _atom_site_occupancy
  Al  Al0  1  0.10786838  0.09256997  0.32739437  1
  Al  Al1  1  0.22258889  0.20482228  0.07729079  1
  Al  Al2  1  0.77777785  0.09444432  0.82930553  1
  Al  Al3  1  0.88558766  0.20225443  0.57178524  1
  Al  Al4  1  0.44956170  0.09256995  0.32739436  1
  Al  Al5  1  0.55726813  0.20469927  0.08364971  1
  Al  Al6  1  0.10895932  0.09546337  0.82669532  1
  Al  Al7  1  0.22196240  0.20607526  0.57679551  1
  Al  Al8  1  0.88803265  0.20469928  0.08364972  1
  Al  Al9  1  0.44557732  0.09546337  0.82669533  1
  Al  Al10  1  0.56215797  0.20225440  0.57178525  1
  Al  Al11  1  0.11111110  0.42777782  0.32592339  1
  Al  Al12  1  0.22258885  0.53925555  0.07729075  1
  Al  Al13  1  0.77879671  0.42562610  0.82669536  1
  Al  Al14  1  0.88940862  0.53862910  0.57679548  1
  Al  Al15  1  0.44956167  0.42453512  0.32739435  1
  Al  Al16  1  0.55574296  0.53851410  0.07629850  1
  Al  Al17  1  0.11111107  0.42777784  0.82762556  1
  Al  Al18  1  0.22196232  0.53862909  0.57679547  1
  Al  Al19  1  0.77590322  0.42453516  0.32739434  1
  Al  Al20  1  0.88815564  0.53925556  0.07729074  1
  Al  Al21  1  0.44557718  0.42562609  0.82669536  1
  Al  Al22  1  0.55560755  0.53878492  0.57740575  1
  Al  Al23  1  0.10786837  0.76622831  0.32739431  1
  Al  Al24  1  0.22184733  0.87240960  0.07629850  1
  Al  Al25  1  0.77879679  0.76224391  0.82669531  1
  Al  Al26  1  0.88558777  0.87882446  0.57178523  1
  Al  Al27  1  0.44444437  0.76111125  0.32615055  1
  Al  Al28  1  0.55574310  0.87240960  0.07629851  1
  Al  Al29  1  0.10895929  0.76224389  0.82669530  1
  Al  Al30  1  0.22211808  0.87227421  0.57740576  1
  Al  Al31  1  0.77590332  0.76622831  0.32739430  1
  Al  Al32  1  0.88803275  0.87393454  0.08364960  1
  Al  Al33  1  0.44444438  0.76111122  0.82750106  1
  Al  Al34  1  0.55560772  0.87227420  0.57740576  1
  B  B35  1  0.77777795  0.09444416  0.31833918  1
  N  N36  1  0.22241283  0.20517443  0.38164845  1
  N  N37  1  0.11165857  0.09388750  0.13316614  1
  N  N38  1  0.88806498  0.20473139  0.88758891  1
  N  N39  1  0.77777758  0.09444486  0.63725223  1
  N  N40  1  0.58112089  0.19277282  0.37449731  1
  N  N41  1  0.44445394  0.09388750  0.13316614  1
  N  N42  1  0.22262119  0.20475767  0.88158480  1
  N  N43  1  0.10821470  0.09603390  0.63013871  1
  N  N44  1  0.87610636  0.19277284  0.37449729  1
  N  N45  1  0.77777769  0.09444465  0.15254763  1
  N  N46  1  0.55720370  0.20473137  0.88758890  1
  N  N47  1  0.44575140  0.09603388  0.63013872  1
  N  N48  1  0.22241285  0.53907901  0.38164841  1
  N  N49  1  0.11111105  0.42777789  0.13109964  1
  N  N50  1  0.88809146  0.53928735  0.88158477  1
  N  N51  1  0.77936671  0.42488181  0.63013874  1
  N  N52  1  0.55505079  0.53989847  0.38295371  1
  N  N53  1  0.44445407  0.42832558  0.13316612  1
  N  N54  1  0.22262124  0.53928734  0.88158479  1
  N  N55  1  0.11111106  0.42777788  0.63270485  1
  N  N56  1  0.88850820  0.53907903  0.38164842  1
  N  N57  1  0.77722034  0.42832559  0.13316611  1
  N  N58  1  0.55598538  0.53802927  0.88104130  1
  N  N59  1  0.44575148  0.42488180  0.63013874  1
  N  N60  1  0.22323203  0.87171726  0.38295370  1
  N  N61  1  0.11165867  0.76112097  0.13316610  1
  N  N62  1  0.88806498  0.87387009  0.88758884  1
  N  N63  1  0.77936671  0.76241844  0.63013870  1
  N  N64  1  0.55505075  0.87171725  0.38295369  1
  N  N65  1  0.44444428  0.76111141  0.13084546  1
  N  N66  1  0.22136290  0.87265180  0.88104130  1
  N  N67  1  0.10821483  0.76241843  0.63013869  1
  N  N68  1  0.87610637  0.89778730  0.37449727  1
  N  N69  1  0.77722034  0.76112098  0.13316609  1
  N  N70  1  0.55598531  0.87265179  0.88104131  1
  N  N71  1  0.44444426  0.76111144  0.63293436  1
