# generated using pymatgen
data_Al35BN36
_symmetry_space_group_name_H-M   'P 1'
_cell_length_a   9.51840448
_cell_length_b   9.51831316
_cell_length_c   9.50054274
_cell_angle_alpha   90.00002668
_cell_angle_beta   89.99999728
_cell_angle_gamma   59.99970861
_symmetry_Int_Tables_number   1
_chemical_formula_structural   Al35BN36
_chemical_formula_sum   'Al35 B1 N36'
_cell_volume   745.42150577
_cell_formula_units_Z   1
loop_
 _symmetry_equiv_pos_site_id
 _symmetry_equiv_pos_as_xyz
  1  'x, y, z'
loop_
 _atom_site_type_symbol
 _atom_site_label
 _atom_site_symmetry_multiplicity
 _atom_site_fract_x
 _atom_site_fract_y
 _atom_site_fract_z
 _atom_site_occupancy
  Al  Al0  1  0.10805127  0.09240380  0.33060649  1
  Al  Al1  1  0.22277086  0.20445834  0.08016018  1
  Al  Al2  1  0.77777764  0.09444473  0.83249394  1
  Al  Al3  1  0.88507959  0.20174595  0.57335188  1
  Al  Al4  1  0.44954496  0.09240380  0.33060649  1
  Al  Al5  1  0.55659963  0.20503324  0.08651281  1
  Al  Al6  1  0.10856397  0.09574684  0.82881402  1
  Al  Al7  1  0.22182213  0.20635581  0.57930251  1
  Al  Al8  1  0.88836720  0.20503325  0.08651282  1
  Al  Al9  1  0.44568919  0.09574684  0.82881402  1
  Al  Al10  1  0.56317454  0.20174591  0.57335189  1
  Al  Al11  1  0.11111096  0.42777807  0.32820072  1
  Al  Al12  1  0.22277088  0.53943687  0.08016014  1
  Al  Al13  1  0.77907952  0.42523135  0.82881407  1
  Al  Al14  1  0.88968984  0.53848813  0.57930252  1
  Al  Al15  1  0.44954512  0.42471854  0.33060642  1
  Al  Al16  1  0.55590279  0.53819445  0.07872765  1
  Al  Al17  1  0.11111092  0.42777814  0.83085128  1
  Al  Al18  1  0.22182209  0.53848812  0.57930250  1
  Al  Al19  1  0.77573633  0.42471858  0.33060641  1
  Al  Al20  1  0.88779230  0.53943688  0.08016012  1
  Al  Al21  1  0.44568911  0.42523133  0.82881406  1
  Al  Al22  1  0.55552748  0.53894509  0.58031828  1
  Al  Al23  1  0.10805142  0.76621214  0.33060636  1
  Al  Al24  1  0.22152824  0.87256891  0.07872766  1
  Al  Al25  1  0.77907963  0.76235632  0.82881405  1
  Al  Al26  1  0.88507975  0.87984050  0.57335193  1
  Al  Al27  1  0.44444413  0.76111169  0.32829252  1
  Al  Al28  1  0.55590289  0.87256891  0.07872767  1
  Al  Al29  1  0.10856404  0.76235629  0.82881403  1
  Al  Al30  1  0.22227876  0.87219364  0.58031830  1
  Al  Al31  1  0.77573643  0.76621214  0.33060635  1
  Al  Al32  1  0.88836733  0.87326541  0.08651259  1
  Al  Al33  1  0.44444416  0.76111165  0.83071219  1
  Al  Al34  1  0.55552765  0.87219362  0.58031829  1
  B  B35  1  0.77777818  0.09444369  0.31596226  1
  N  N36  1  0.22232132  0.20535746  0.37920397  1
  N  N37  1  0.11171070  0.09382838  0.13129089  1
  N  N38  1  0.88814822  0.20481360  0.88581636  1
  N  N39  1  0.77777725  0.09444549  0.63644620  1
  N  N40  1  0.58180253  0.19243163  0.37163271  1
  N  N41  1  0.44446091  0.09382839  0.13129089  1
  N  N42  1  0.22279799  0.20440409  0.87905191  1
  N  N43  1  0.10772762  0.09633313  0.62698595  1
  N  N44  1  0.87576591  0.19243166  0.37163269  1
  N  N45  1  0.77777744  0.09444513  0.14836377  1
  N  N46  1  0.55703826  0.20481358  0.88581635  1
  N  N47  1  0.44593924  0.09633310  0.62698596  1
  N  N48  1  0.22232128  0.53898648  0.37920389  1
  N  N49  1  0.11111067  0.42777863  0.12816688  1
  N  N50  1  0.88773897  0.53946311  0.87905191  1
  N  N51  1  0.77966484  0.42439593  0.62698606  1
  N  N52  1  0.55486840  0.54026326  0.38077076  1
  N  N53  1  0.44446102  0.42837883  0.13129079  1
  N  N54  1  0.22279798  0.53946310  0.87905193  1
  N  N55  1  0.11111070  0.42777860  0.63070461  1
  N  N56  1  0.88869232  0.53898649  0.37920390  1
  N  N57  1  0.77716011  0.42837885  0.13129078  1
  N  N58  1  0.55621247  0.53757510  0.87818927  1
  N  N59  1  0.44593921  0.42439591  0.62698605  1
  N  N60  1  0.22359763  0.87153390  0.38077075  1
  N  N61  1  0.11171081  0.76112897  0.13129077  1
  N  N62  1  0.88814828  0.87370349  0.88581623  1
  N  N63  1  0.77966491  0.76260719  0.62698599  1
  N  N64  1  0.55486852  0.87153389  0.38077073  1
  N  N65  1  0.44444390  0.76111216  0.12767991  1
  N  N66  1  0.22090964  0.87287788  0.87818927  1
  N  N67  1  0.10772784  0.76260719  0.62698598  1
  N  N68  1  0.87576586  0.89846833  0.37163258  1
  N  N69  1  0.77716018  0.76112898  0.13129075  1
  N  N70  1  0.55621251  0.87287788  0.87818928  1
  N  N71  1  0.44444386  0.76111223  0.63110847  1
