# generated using pymatgen
data_Al35BN36
_symmetry_space_group_name_H-M   'P 1'
_cell_length_a   9.34320006
_cell_length_b   9.34320063
_cell_length_c   9.98342338
_cell_angle_alpha   90.00000755
_cell_angle_beta   90.00000225
_cell_angle_gamma   60.00000251
_symmetry_Int_Tables_number   1
_chemical_formula_structural   Al35BN36
_chemical_formula_sum   'Al35 B1 N36'
_cell_volume   754.74710349
_cell_formula_units_Z   1
loop_
 _symmetry_equiv_pos_site_id
 _symmetry_equiv_pos_as_xyz
  1  'x, y, z'
loop_
 _atom_site_type_symbol
 _atom_site_label
 _atom_site_symmetry_multiplicity
 _atom_site_fract_x
 _atom_site_fract_y
 _atom_site_fract_z
 _atom_site_occupancy
  Al  Al0  1  0.10765849  0.09273711  0.30284932  1
  Al  Al1  1  0.22239665  0.20520657  0.05307619  1
  Al  Al2  1  0.77777756  0.09444439  0.80486080  1
  Al  Al3  1  0.88609082  0.20275684  0.54885729  1
  Al  Al4  1  0.44960436  0.09273659  0.30284931  1
  Al  Al5  1  0.55801805  0.20432432  0.05953667  1
  Al  Al6  1  0.10934152  0.09520023  0.80319251  1
  Al  Al7  1  0.22212258  0.20575446  0.55284611  1
  Al  Al8  1  0.88765789  0.20432413  0.05953657  1
  Al  Al9  1  0.44545793  0.09520034  0.80319246  1
  Al  Al10  1  0.56115198  0.20275715  0.54885724  1
  Al  Al11  1  0.11111154  0.42777754  0.30226147  1
  Al  Al12  1  0.22239679  0.53906365  0.05307609  1
  Al  Al13  1  0.77853430  0.42600760  0.80319248  1
  Al  Al14  1  0.88908743  0.53878959  0.55284616  1
  Al  Al15  1  0.44960444  0.42432594  0.30284933  1
  Al  Al16  1  0.55557645  0.53884759  0.05248745  1
  Al  Al17  1  0.11111153  0.42777759  0.80294803  1
  Al  Al18  1  0.22212289  0.53878990  0.55284617  1
  Al  Al19  1  0.77606941  0.42432621  0.30284935  1
  Al  Al20  1  0.88853995  0.53906337  0.05307606  1
  Al  Al21  1  0.44545794  0.42600783  0.80319240  1
  Al  Al22  1  0.55569815  0.53860419  0.55310396  1
  Al  Al23  1  0.10765883  0.76627075  0.30284922  1
  Al  Al24  1  0.22218104  0.87224268  0.05248777  1
  Al  Al25  1  0.77853412  0.76212474  0.80319256  1
  Al  Al26  1  0.88609076  0.87781879  0.54885712  1
  Al  Al27  1  0.44444374  0.76111190  0.30265506  1
  Al  Al28  1  0.55557657  0.87224243  0.05248760  1
  Al  Al29  1  0.10934116  0.76212495  0.80319256  1
  Al  Al30  1  0.22193770  0.87236436  0.55310368  1
  Al  Al31  1  0.77606974  0.76627062  0.30284920  1
  Al  Al32  1  0.88765767  0.87468517  0.05953668  1
  Al  Al33  1  0.44444424  0.76111134  0.80285738  1
  Al  Al34  1  0.55569821  0.87236411  0.55310386  1
  B  B35  1  0.77777752  0.09444466  0.29921098  1
  N  N36  1  0.22251977  0.20496050  0.36157782  1
  N  N37  1  0.11160610  0.09395912  0.11264770  1
  N  N38  1  0.88802052  0.20468675  0.86703299  1
  N  N39  1  0.77777766  0.09444435  0.61607077  1
  N  N40  1  0.58058035  0.19304326  0.35496506  1
  N  N41  1  0.44443488  0.09395900  0.11264768  1
  N  N42  1  0.22243326  0.20513335  0.86159101  1
  N  N43  1  0.10870969  0.09572852  0.61072181  1
  N  N44  1  0.87637605  0.19304349  0.35496519  1
  N  N45  1  0.77777769  0.09444467  0.13388466  1
  N  N46  1  0.55729247  0.20468695  0.86703304  1
  N  N47  1  0.44556160  0.09572856  0.61072176  1
  N  N48  1  0.22251990  0.53918641  0.36157782  1
  N  N49  1  0.11111127  0.42777787  0.11152312  1
  N  N50  1  0.88846703  0.53909985  0.86159088  1
  N  N51  1  0.77906234  0.42537593  0.61072180  1
  N  N52  1  0.55525165  0.53949645  0.36267658  1
  N  N53  1  0.44443485  0.42827281  0.11264769  1
  N  N54  1  0.22243324  0.53910015  0.86159093  1
  N  N55  1  0.11111112  0.42777801  0.61213650  1
  N  N56  1  0.88829402  0.53918626  0.36157779  1
  N  N57  1  0.77729264  0.42827267  0.11264770  1
  N  N58  1  0.55574155  0.53851698  0.86135637  1
  N  N59  1  0.44556178  0.42537621  0.61072173  1
  N  N60  1  0.22282858  0.87191905  0.36267633  1
  N  N61  1  0.11160599  0.76110150  0.11264766  1
  N  N62  1  0.88802035  0.87395943  0.86703310  1
  N  N63  1  0.77906227  0.76222835  0.61072185  1
  N  N64  1  0.55525198  0.87191884  0.36267654  1
  N  N65  1  0.44444453  0.76111106  0.11151096  1
  N  N66  1  0.22185037  0.87240806  0.86135671  1
  N  N67  1  0.10870955  0.76222860  0.61072185  1
  N  N68  1  0.87637618  0.89724710  0.35496508  1
  N  N69  1  0.77729277  0.76110142  0.11264759  1
  N  N70  1  0.55574163  0.87240798  0.86135657  1
  N  N71  1  0.44444447  0.76111112  0.61224139  1
