# generated using pymatgen
data_Al35BN36
_symmetry_space_group_name_H-M   'P 1'
_cell_length_a   9.66963240
_cell_length_b   9.66962763
_cell_length_c   9.03876578
_cell_angle_alpha   90.00002147
_cell_angle_beta   90.00000082
_cell_angle_gamma   59.99999350
_symmetry_Int_Tables_number   1
_chemical_formula_structural   Al35BN36
_chemical_formula_sum   'Al35 B1 N36'
_cell_volume   731.91298204
_cell_formula_units_Z   1
loop_
 _symmetry_equiv_pos_site_id
 _symmetry_equiv_pos_as_xyz
  1  'x, y, z'
loop_
 _atom_site_type_symbol
 _atom_site_label
 _atom_site_symmetry_multiplicity
 _atom_site_fract_x
 _atom_site_fract_y
 _atom_site_fract_z
 _atom_site_occupancy
  Al  Al0  1  0.10810619  0.09227124  0.37114648  1
  Al  Al1  1  0.22173900  0.20652206  0.12359197  1
  Al  Al2  1  0.77777777  0.09444449  0.86965762  1
  Al  Al3  1  0.88877435  0.20544091  0.61636447  1
  Al  Al4  1  0.44962257  0.09227125  0.37114648  1
  Al  Al5  1  0.56484398  0.20091131  0.13122594  1
  Al  Al6  1  0.10807402  0.09613735  0.87448843  1
  Al  Al7  1  0.22295507  0.20408991  0.62159333  1
  Al  Al8  1  0.88424475  0.20091134  0.13122594  1
  Al  Al9  1  0.44578866  0.09613736  0.87448843  1
  Al  Al10  1  0.55578477  0.20544091  0.61636447  1
  Al  Al11  1  0.11111104  0.42777794  0.37434179  1
  Al  Al12  1  0.22173898  0.53840558  0.12359191  1
  Al  Al13  1  0.77947054  0.42474090  0.87448841  1
  Al  Al14  1  0.88742333  0.53962169  0.62159329  1
  Al  Al15  1  0.44962258  0.42477301  0.37114650  1
  Al  Al16  1  0.55551636  0.53896732  0.12198760  1
  Al  Al17  1  0.11111103  0.42777795  0.87106334  1
  Al  Al18  1  0.22295503  0.53962168  0.62159329  1
  Al  Al19  1  0.77560439  0.42477305  0.37114652  1
  Al  Al20  1  0.88985549  0.53840558  0.12359191  1
  Al  Al21  1  0.44578857  0.42474088  0.87448842  1
  Al  Al22  1  0.55605633  0.53788737  0.62381957  1
  Al  Al23  1  0.10810618  0.76628937  0.37114644  1
  Al  Al24  1  0.22230072  0.87218289  0.12198758  1
  Al  Al25  1  0.77947058  0.76245546  0.87448838  1
  Al  Al26  1  0.88877441  0.87245122  0.61636448  1
  Al  Al27  1  0.44444438  0.76111122  0.37449636  1
  Al  Al28  1  0.55551643  0.87218288  0.12198759  1
  Al  Al29  1  0.10807398  0.76245544  0.87448838  1
  Al  Al30  1  0.22122079  0.87272285  0.62381957  1
  Al  Al31  1  0.77560445  0.76628936  0.37114645  1
  Al  Al32  1  0.88424477  0.88151046  0.13122588  1
  Al  Al33  1  0.44444438  0.76111124  0.87127468  1
  Al  Al34  1  0.55605638  0.87272285  0.62381956  1
  B  B35  1  0.77777788  0.09444425  0.39716613  1
  N  N36  1  0.22227784  0.20544435  0.33652829  1
  N  N37  1  0.10697673  0.09675306  0.08997046  1
  N  N38  1  0.88835625  0.20502266  0.82843705  1
  N  N39  1  0.77777765  0.09444470  0.57078336  1
  N  N40  1  0.58322700  0.19171975  0.34408595  1
  N  N41  1  0.44627023  0.09675304  0.08997046  1
  N  N42  1  0.22302110  0.20395785  0.83688385  1
  N  N43  1  0.11160329  0.09388025  0.58331476  1
  N  N44  1  0.87505329  0.19171977  0.34408595  1
  N  N45  1  0.77777761  0.09444483  0.07472359  1
  N  N46  1  0.55662116  0.20502265  0.82843705  1
  N  N47  1  0.44451646  0.09388026  0.58331476  1
  N  N48  1  0.22227789  0.53894408  0.33652828  1
  N  N49  1  0.11111108  0.42777783  0.08476162  1
  N  N50  1  0.88729155  0.53968733  0.83688381  1
  N  N51  1  0.77721321  0.42827019  0.58331477  1
  N  N52  1  0.55470530  0.54058943  0.33462685  1
  N  N53  1  0.44627034  0.42364368  0.08997040  1
  N  N54  1  0.22302116  0.53968732  0.83688382  1
  N  N55  1  0.11111107  0.42777785  0.58804702  1
  N  N56  1  0.88877808  0.53894407  0.33652828  1
  N  N57  1  0.78008601  0.42364368  0.08997040  1
  N  N58  1  0.55647837  0.53704331  0.83810497  1
  N  N59  1  0.44451661  0.42827018  0.58331477  1
  N  N60  1  0.22392310  0.87137175  0.33462684  1
  N  N61  1  0.10697681  0.76293725  0.08997044  1
  N  N62  1  0.88835621  0.87328762  0.82843706  1
  N  N63  1  0.77721314  0.76118350  0.58331475  1
  N  N64  1  0.55470518  0.87137174  0.33462685  1
  N  N65  1  0.44444433  0.76111134  0.08392358  1
  N  N66  1  0.22037699  0.87314481  0.83810499  1
  N  N67  1  0.11160335  0.76118351  0.58331476  1
  N  N68  1  0.87505328  0.89989346  0.34408595  1
  N  N69  1  0.78008594  0.76293724  0.08997044  1
  N  N70  1  0.55647824  0.87314479  0.83810499  1
  N  N71  1  0.44444433  0.76111133  0.58889610  1
