# generated using pymatgen
data_Al35BN36
_symmetry_space_group_name_H-M   'P 1'
_cell_length_a   9.34320956
_cell_length_b   9.34321013
_cell_length_c   9.98341834
_cell_angle_alpha   89.99999252
_cell_angle_beta   89.99999759
_cell_angle_gamma   60.00000226
_symmetry_Int_Tables_number   1
_chemical_formula_structural   Al35BN36
_chemical_formula_sum   'Al35 B1 N36'
_cell_volume   754.74825501
_cell_formula_units_Z   1
loop_
 _symmetry_equiv_pos_site_id
 _symmetry_equiv_pos_as_xyz
  1  'x, y, z'
loop_
 _atom_site_type_symbol
 _atom_site_label
 _atom_site_symmetry_multiplicity
 _atom_site_fract_x
 _atom_site_fract_y
 _atom_site_fract_z
 _atom_site_occupancy
  Al  Al0  1  0.10765950  0.09273691  0.40145488  1
  Al  Al1  1  0.22212272  0.20575423  0.15145466  1
  Al  Al2  1  0.77777761  0.09444440  0.89945532  1
  Al  Al3  1  0.88765790  0.20432428  0.64477138  1
  Al  Al4  1  0.44960353  0.09273646  0.40145495  1
  Al  Al5  1  0.56115144  0.20275740  0.15545692  1
  Al  Al6  1  0.10934114  0.09520035  0.90111038  1
  Al  Al7  1  0.22239659  0.20520670  0.65122561  1
  Al  Al8  1  0.88609119  0.20275710  0.15545690  1
  Al  Al9  1  0.44545824  0.09520044  0.90111046  1
  Al  Al10  1  0.55801789  0.20432447  0.64477136  1
  Al  Al11  1  0.11111152  0.42777757  0.40203906  1
  Al  Al12  1  0.22212301  0.53879000  0.15145459  1
  Al  Al13  1  0.77853439  0.42600724  0.90111044  1
  Al  Al14  1  0.88854002  0.53906336  0.65122574  1
  Al  Al15  1  0.44960360  0.42432696  0.40145489  1
  Al  Al16  1  0.55569818  0.53860414  0.15119741  1
  Al  Al17  1  0.11111153  0.42777758  0.90135247  1
  Al  Al18  1  0.22239675  0.53906362  0.65122566  1
  Al  Al19  1  0.77606924  0.42432725  0.40145489  1
  Al  Al20  1  0.88908720  0.53878973  0.15145457  1
  Al  Al21  1  0.44545825  0.42600747  0.90111051  1
  Al  Al22  1  0.55557630  0.53884790  0.65181391  1
  Al  Al23  1  0.10765984  0.76626996  0.40145496  1
  Al  Al24  1  0.22193765  0.87236439  0.15119754  1
  Al  Al25  1  0.77853417  0.76212509  0.90111029  1
  Al  Al26  1  0.88765770  0.87468511  0.64477125  1
  Al  Al27  1  0.44444374  0.76111190  0.40164483  1
  Al  Al28  1  0.55569825  0.87236415  0.15119748  1
  Al  Al29  1  0.10934080  0.76212526  0.90111029  1
  Al  Al30  1  0.22218134  0.87224257  0.65181354  1
  Al  Al31  1  0.77606959  0.76626980  0.40145503  1
  Al  Al32  1  0.88609108  0.87781819  0.15545701  1
  Al  Al33  1  0.44444426  0.76111137  0.90144273  1
  Al  Al34  1  0.55557640  0.87224232  0.65181372  1
  B  B35  1  0.77777753  0.09444465  0.40510470  1
  N  N36  1  0.22251986  0.20496030  0.34272523  1
  N  N37  1  0.10870813  0.09572920  0.09358387  1
  N  N38  1  0.88801953  0.20468582  0.83727596  1
  N  N39  1  0.77777766  0.09444471  0.57042685  1
  N  N40  1  0.58058040  0.19304323  0.34934798  1
  N  N41  1  0.44556255  0.09572923  0.09358398  1
  N  N42  1  0.22243334  0.20513322  0.84271265  1
  N  N43  1  0.11160573  0.09395935  0.59165689  1
  N  N44  1  0.87637603  0.19304345  0.34934787  1
  N  N45  1  0.77777771  0.09444436  0.08824637  1
  N  N46  1  0.55729447  0.20468600  0.83727599  1
  N  N47  1  0.44443503  0.09395925  0.59165703  1
  N  N48  1  0.22251997  0.53918654  0.34272520  1
  N  N49  1  0.11111115  0.42777800  0.09216630  1
  N  N50  1  0.88846689  0.53909994  0.84271280  1
  N  N51  1  0.77729283  0.42827237  0.59165694  1
  N  N52  1  0.55525194  0.53949594  0.34162653  1
  N  N53  1  0.44556271  0.42537460  0.09358401  1
  N  N54  1  0.22243333  0.53910022  0.84271272  1
  N  N55  1  0.11111124  0.42777790  0.59277900  1
  N  N56  1  0.88829382  0.53918638  0.34272521  1
  N  N57  1  0.77906302  0.42537432  0.09358394  1
  N  N58  1  0.55574177  0.53851658  0.84294683  1
  N  N59  1  0.44443500  0.42827248  0.59165698  1
  N  N60  1  0.22282804  0.87191933  0.34162663  1
  N  N61  1  0.10870799  0.76222948  0.09358380  1
  N  N62  1  0.88801939  0.87396143  0.83727584  1
  N  N63  1  0.77729295  0.76110161  0.59165703  1
  N  N64  1  0.55525227  0.87191912  0.34162656  1
  N  N65  1  0.44444451  0.76111109  0.09206126  1
  N  N66  1  0.22184996  0.87240829  0.84294643  1
  N  N67  1  0.11160563  0.76110171  0.59165691  1
  N  N68  1  0.87637615  0.89724717  0.34934797  1
  N  N69  1  0.77906293  0.76222930  0.09358384  1
  N  N70  1  0.55574183  0.87240822  0.84294659  1
  N  N71  1  0.44444450  0.76111111  0.59279015  1
