# generated using pymatgen
data_Al35BN36
_symmetry_space_group_name_H-M   'P 1'
_cell_length_a   9.34319999
_cell_length_b   9.34320040
_cell_length_c   9.98342236
_cell_angle_alpha   89.99999518
_cell_angle_beta   89.99999569
_cell_angle_gamma   59.99999944
_symmetry_Int_Tables_number   1
_chemical_formula_structural   Al35BN36
_chemical_formula_sum   'Al35 B1 N36'
_cell_volume   754.74697781
_cell_formula_units_Z   1
loop_
 _symmetry_equiv_pos_site_id
 _symmetry_equiv_pos_as_xyz
  1  'x, y, z'
loop_
 _atom_site_type_symbol
 _atom_site_label
 _atom_site_symmetry_multiplicity
 _atom_site_fract_x
 _atom_site_fract_y
 _atom_site_fract_z
 _atom_site_occupancy
  Al  Al0  1  0.10765876  0.09273715  0.39801309  1
  Al  Al1  1  0.22212272  0.20575421  0.14801511  1
  Al  Al2  1  0.77777759  0.09444440  0.89600216  1
  Al  Al3  1  0.88765791  0.20432421  0.64132448  1
  Al  Al4  1  0.44960403  0.09273671  0.39801323  1
  Al  Al5  1  0.56115182  0.20275724  0.15200549  1
  Al  Al6  1  0.10934135  0.09520016  0.89766869  1
  Al  Al7  1  0.22239648  0.20520689  0.64778593  1
  Al  Al8  1  0.88609096  0.20275694  0.15200550  1
  Al  Al9  1  0.44545817  0.09520025  0.89766873  1
  Al  Al10  1  0.55801798  0.20432443  0.64132451  1
  Al  Al11  1  0.11111152  0.42777757  0.39859962  1
  Al  Al12  1  0.22212300  0.53879004  0.14801503  1
  Al  Al13  1  0.77853424  0.42600741  0.89766871  1
  Al  Al14  1  0.88854023  0.53906326  0.64778603  1
  Al  Al15  1  0.44960412  0.42432619  0.39801315  1
  Al  Al16  1  0.55569819  0.53860412  0.14775797  1
  Al  Al17  1  0.11111153  0.42777758  0.89791364  1
  Al  Al18  1  0.22239665  0.53906354  0.64778597  1
  Al  Al19  1  0.77606950  0.42432648  0.39801309  1
  Al  Al20  1  0.88908715  0.53878977  0.14801500  1
  Al  Al21  1  0.44545820  0.42600769  0.89766877  1
  Al  Al22  1  0.55557639  0.53884781  0.64837391  1
  Al  Al23  1  0.10765910  0.76627046  0.39801320  1
  Al  Al24  1  0.22193758  0.87236443  0.14775815  1
  Al  Al25  1  0.77853400  0.76212502  0.89766862  1
  Al  Al26  1  0.88765771  0.87468513  0.64132444  1
  Al  Al27  1  0.44444372  0.76111192  0.39820633  1
  Al  Al28  1  0.55569827  0.87236419  0.14775809  1
  Al  Al29  1  0.10934102  0.76212521  0.89766862  1
  Al  Al30  1  0.22218122  0.87224264  0.64837359  1
  Al  Al31  1  0.77606982  0.76627028  0.39801328  1
  Al  Al32  1  0.88609086  0.87781863  0.15200565  1
  Al  Al33  1  0.44444425  0.76111136  0.89800418  1
  Al  Al34  1  0.55557648  0.87224238  0.64837378  1
  B  B35  1  0.77777754  0.09444462  0.40165310  1
  N  N36  1  0.22251984  0.20496033  0.33928354  1
  N  N37  1  0.10870939  0.09572856  0.09014000  1
  N  N38  1  0.88802037  0.20468660  0.83382857  1
  N  N39  1  0.77777768  0.09444468  0.56697782  1
  N  N40  1  0.58058036  0.19304322  0.34589824  1
  N  N41  1  0.44556191  0.09572860  0.09014011  1
  N  N42  1  0.22243313  0.20513354  0.83927096  1
  N  N43  1  0.11160633  0.09395913  0.58821380  1
  N  N44  1  0.87637604  0.19304342  0.34589815  1
  N  N45  1  0.77777772  0.09444440  0.08479320  1
  N  N46  1  0.55729280  0.20468681  0.83382865  1
  N  N47  1  0.44443469  0.09395904  0.58821404  1
  N  N48  1  0.22251996  0.53918650  0.33928349  1
  N  N49  1  0.11111113  0.42777800  0.08872560  1
  N  N50  1  0.88846722  0.53909973  0.83927111  1
  N  N51  1  0.77729267  0.42827292  0.58821386  1
  N  N52  1  0.55525179  0.53949623  0.33818526  1
  N  N53  1  0.44556207  0.42537592  0.09014012  1
  N  N54  1  0.22243315  0.53910005  0.83927103  1
  N  N55  1  0.11111126  0.42777789  0.58933774  1
  N  N56  1  0.88829386  0.53918633  0.33928351  1
  N  N57  1  0.77906236  0.42537562  0.09014004  1
  N  N58  1  0.55574157  0.53851702  0.83950485  1
  N  N59  1  0.44443466  0.42827307  0.58821397  1
  N  N60  1  0.22282834  0.87191918  0.33818535  1
  N  N61  1  0.10870926  0.76222888  0.09013996  1
  N  N62  1  0.88802022  0.87395973  0.83382852  1
  N  N63  1  0.77729276  0.76110126  0.58821402  1
  N  N64  1  0.55525209  0.87191897  0.33818532  1
  N  N65  1  0.44444448  0.76111113  0.08862090  1
  N  N66  1  0.22185041  0.87240805  0.83950449  1
  N  N67  1  0.11160623  0.76110135  0.58821391  1
  N  N68  1  0.87637615  0.89724712  0.34589827  1
  N  N69  1  0.77906228  0.76222870  0.09013998  1
  N  N70  1  0.55574159  0.87240796  0.83950465  1
  N  N71  1  0.44444451  0.76111115  0.58934955  1
