# generated using pymatgen
data_Al35BN36
_symmetry_space_group_name_H-M   'P 1'
_cell_length_a   9.40739504
_cell_length_b   9.40738375
_cell_length_c   9.81446465
_cell_angle_alpha   90.00002177
_cell_angle_beta   89.99999923
_cell_angle_gamma   59.99989912
_symmetry_Int_Tables_number   1
_chemical_formula_structural   Al35BN36
_chemical_formula_sum   'Al35 B1 N36'
_cell_volume   752.20297632
_cell_formula_units_Z   1
loop_
 _symmetry_equiv_pos_site_id
 _symmetry_equiv_pos_as_xyz
  1  'x, y, z'
loop_
 _atom_site_type_symbol
 _atom_site_label
 _atom_site_symmetry_multiplicity
 _atom_site_fract_x
 _atom_site_fract_y
 _atom_site_fract_z
 _atom_site_occupancy
  Al  Al0  1  0.10780033  0.09262115  0.38265620  1
  Al  Al1  1  0.22199969  0.20600060  0.13310150  1
  Al  Al2  1  0.77777750  0.09444504  0.88073583  1
  Al  Al3  1  0.88793340  0.20459985  0.62632022  1
  Al  Al4  1  0.44957851  0.09262116  0.38265621  1
  Al  Al5  1  0.56188180  0.20239234  0.13781512  1
  Al  Al6  1  0.10907793  0.09538456  0.88308170  1
  Al  Al7  1  0.22254209  0.20491579  0.63266135  1
  Al  Al8  1  0.88572591  0.20239234  0.13781513  1
  Al  Al9  1  0.44553750  0.09538457  0.88308170  1
  Al  Al10  1  0.55746673  0.20459987  0.62632025  1
  Al  Al11  1  0.11111112  0.42777776  0.38390960  1
  Al  Al12  1  0.22199986  0.53866590  0.13310141  1
  Al  Al13  1  0.77871746  0.42574471  0.88308175  1
  Al  Al14  1  0.88824942  0.53920835  0.63266122  1
  Al  Al15  1  0.44957876  0.42446715  0.38265621  1
  Al  Al16  1  0.55562549  0.53874907  0.13259186  1
  Al  Al17  1  0.11111113  0.42777772  0.88243140  1
  Al  Al18  1  0.22254222  0.53920837  0.63266122  1
  Al  Al19  1  0.77595416  0.42446712  0.38265620  1
  Al  Al20  1  0.88933424  0.53866589  0.13310141  1
  Al  Al21  1  0.44553783  0.42574474  0.88308176  1
  Al  Al22  1  0.55570391  0.53859224  0.63354574  1
  Al  Al23  1  0.10780045  0.76624564  0.38265611  1
  Al  Al24  1  0.22208294  0.87229200  0.13259192  1
  Al  Al25  1  0.77871733  0.76220457  0.88308164  1
  Al  Al26  1  0.88793322  0.87413357  0.62632011  1
  Al  Al27  1  0.44444447  0.76111112  0.38364232  1
  Al  Al28  1  0.55562511  0.87229200  0.13259193  1
  Al  Al29  1  0.10907812  0.76220457  0.88308164  1
  Al  Al30  1  0.22192603  0.87237043  0.63354573  1
  Al  Al31  1  0.77595397  0.76624560  0.38265610  1
  Al  Al32  1  0.88572568  0.87854869  0.13781504  1
  Al  Al33  1  0.44444446  0.76111111  0.88255436  1
  Al  Al34  1  0.55570358  0.87237042  0.63354573  1
  B  B35  1  0.77777760  0.09444468  0.39022963  1
  N  N36  1  0.22243692  0.20512605  0.32709275  1
  N  N37  1  0.10835953  0.09594634  0.07841720  1
  N  N38  1  0.88805263  0.20471914  0.82130939  1
  N  N39  1  0.77777792  0.09444422  0.55576024  1
  N  N40  1  0.58096633  0.19285007  0.33407658  1
  N  N41  1  0.44569430  0.09594635  0.07841722  1
  N  N42  1  0.22257424  0.20485139  0.82711114  1
  N  N43  1  0.11163186  0.09391067  0.57568999  1
  N  N44  1  0.87618351  0.19285007  0.33407656  1
  N  N45  1  0.77777804  0.09444407  0.07181815  1
  N  N46  1  0.55722807  0.20471916  0.82130942  1
  N  N47  1  0.44445762  0.09391069  0.57569001  1
  N  N48  1  0.22243677  0.53910393  0.32709272  1
  N  N49  1  0.11111100  0.42777818  0.07613969  1
  N  N50  1  0.88818454  0.53924132  0.82711110  1
  N  N51  1  0.77724428  0.42829860  0.57569000  1
  N  N52  1  0.55510165  0.53979657  0.32584909  1
  N  N53  1  0.44569395  0.42502625  0.07841722  1
  N  N54  1  0.22257400  0.53924130  0.82711110  1
  N  N55  1  0.11111101  0.42777816  0.57751044  1
  N  N56  1  0.88845918  0.53910394  0.32709270  1
  N  N57  1  0.77927997  0.42502623  0.07841721  1
  N  N58  1  0.55592288  0.53815409  0.82757392  1
  N  N59  1  0.44445728  0.42829861  0.57569002  1
  N  N60  1  0.22312983  0.87176813  0.32584908  1
  N  N61  1  0.10835931  0.76236084  0.07841714  1
  N  N62  1  0.88805271  0.87389445  0.82130935  1
  N  N63  1  0.77724438  0.76112421  0.57568996  1
  N  N64  1  0.55510194  0.87176816  0.32584909  1
  N  N65  1  0.44444455  0.76111112  0.07595169  1
  N  N66  1  0.22148728  0.87258940  0.82757394  1
  N  N67  1  0.11163159  0.76112421  0.57568997  1
  N  N68  1  0.87618345  0.89763301  0.33407657  1
  N  N69  1  0.77928004  0.76236086  0.07841715  1
  N  N70  1  0.55592319  0.87258943  0.82757394  1
  N  N71  1  0.44444454  0.76111112  0.57770302  1
