# generated using pymatgen
data_Al35BN36
_symmetry_space_group_name_H-M   'P 1'
_cell_length_a   9.43695679
_cell_length_b   9.43696916
_cell_length_c   9.73323363
_cell_angle_alpha   89.99999741
_cell_angle_beta   90.00000055
_cell_angle_gamma   60.00005369
_symmetry_Int_Tables_number   1
_chemical_formula_structural   Al35BN36
_chemical_formula_sum   'Al35 B1 N36'
_cell_volume   750.67597551
_cell_formula_units_Z   1
loop_
 _symmetry_equiv_pos_site_id
 _symmetry_equiv_pos_as_xyz
  1  'x, y, z'
loop_
 _atom_site_type_symbol
 _atom_site_label
 _atom_site_symmetry_multiplicity
 _atom_site_fract_x
 _atom_site_fract_y
 _atom_site_fract_z
 _atom_site_occupancy
  Al  Al0  1  0.10787043  0.09256116  0.38169756  1
  Al  Al1  1  0.22194552  0.20610904  0.13236549  1
  Al  Al2  1  0.77777788  0.09444421  0.87978711  1
  Al  Al3  1  0.88805650  0.20472319  0.62548939  1
  Al  Al4  1  0.44956842  0.09256116  0.38169757  1
  Al  Al5  1  0.56222553  0.20222060  0.13740457  1
  Al  Al6  1  0.10894403  0.09547829  0.88248972  1
  Al  Al7  1  0.22260784  0.20478438  0.63182440  1
  Al  Al8  1  0.88555393  0.20222060  0.13740457  1
  Al  Al9  1  0.44557766  0.09547829  0.88248972  1
  Al  Al10  1  0.55722034  0.20472320  0.62548941  1
  Al  Al11  1  0.11111104  0.42777792  0.38327473  1
  Al  Al12  1  0.22194544  0.53861244  0.13236552  1
  Al  Al13  1  0.77881180  0.42561069  0.88248969  1
  Al  Al14  1  0.88811751  0.53927481  0.63182443  1
  Al  Al15  1  0.44956826  0.42453709  0.38169757  1
  Al  Al16  1  0.55559411  0.53881184  0.13172430  1
  Al  Al17  1  0.11111103  0.42777791  0.88144316  1
  Al  Al18  1  0.22260774  0.53927481  0.63182442  1
  Al  Al19  1  0.77589465  0.42453711  0.38169756  1
  Al  Al20  1  0.88944217  0.53861245  0.13236551  1
  Al  Al21  1  0.44557748  0.42561069  0.88248969  1
  Al  Al22  1  0.55576119  0.53847768  0.63285153  1
  Al  Al23  1  0.10787026  0.76623501  0.38169757  1
  Al  Al24  1  0.22214505  0.87226076  0.13172429  1
  Al  Al25  1  0.77881184  0.76224427  0.88248971  1
  Al  Al26  1  0.88805657  0.87388691  0.62548943  1
  Al  Al27  1  0.44444446  0.76111108  0.38305573  1
  Al  Al28  1  0.55559425  0.87226077  0.13172429  1
  Al  Al29  1  0.10894388  0.76224425  0.88248971  1
  Al  Al30  1  0.22181087  0.87242785  0.63285151  1
  Al  Al31  1  0.77589472  0.76623501  0.38169757  1
  Al  Al32  1  0.88555401  0.87889204  0.13740456  1
  Al  Al33  1  0.44444444  0.76111109  0.88157460  1
  Al  Al34  1  0.55576134  0.87242786  0.63285151  1
  B  B35  1  0.77777782  0.09444433  0.39109419  1
  N  N36  1  0.22240094  0.20519815  0.32778961  1
  N  N37  1  0.10819241  0.09605022  0.07934156  1
  N  N38  1  0.88807428  0.20474108  0.82181082  1
  N  N39  1  0.77777791  0.09444416  0.55698079  1
  N  N40  1  0.58117214  0.19274729  0.33493613  1
  N  N41  1  0.44575741  0.09605021  0.07934156  1
  N  N42  1  0.22263768  0.20472464  0.82783336  1
  N  N43  1  0.11165284  0.09388563  0.57621262  1
  N  N44  1  0.87608058  0.19274730  0.33493614  1
  N  N45  1  0.77777789  0.09444427  0.07206336  1
  N  N46  1  0.55718464  0.20474109  0.82181084  1
  N  N47  1  0.44446155  0.09388564  0.57621263  1
  N  N48  1  0.22240091  0.53906786  0.32778958  1
  N  N49  1  0.11111114  0.42777775  0.07666724  1
  N  N50  1  0.88805774  0.53930459  0.82783332  1
  N  N51  1  0.77721917  0.42831933  0.57621262  1
  N  N52  1  0.55503378  0.53993245  0.32646270  1
  N  N53  1  0.44575739  0.42485890  0.07934156  1
  N  N54  1  0.22263766  0.53930459  0.82783332  1
  N  N55  1  0.11111112  0.42777779  0.57838232  1
  N  N56  1  0.88853124  0.53906787  0.32778957  1
  N  N57  1  0.77938375  0.42485889  0.07934155  1
  N  N58  1  0.55600559  0.53798881  0.82840495  1
  N  N59  1  0.44446154  0.42831933  0.57621263  1
  N  N60  1  0.22326565  0.87170056  0.32646268  1
  N  N61  1  0.10819234  0.76242397  0.07934151  1
  N  N62  1  0.88807427  0.87385146  0.82181076  1
  N  N63  1  0.77721913  0.76112814  0.57621256  1
  N  N64  1  0.55503381  0.87170056  0.32646269  1
  N  N65  1  0.44444450  0.76111104  0.07642922  1
  N  N66  1  0.22132200  0.87267238  0.82840492  1
  N  N67  1  0.11165276  0.76112815  0.57621256  1
  N  N68  1  0.87608063  0.89783875  0.33493603  1
  N  N69  1  0.77938372  0.76242397  0.07934151  1
  N  N70  1  0.55600561  0.87267239  0.82840492  1
  N  N71  1  0.44444450  0.76111105  0.57865400  1
