# generated using pymatgen
data_Al35BN36
_symmetry_space_group_name_H-M   'P 1'
_cell_length_a   9.34320973
_cell_length_b   9.34321019
_cell_length_c   9.98341248
_cell_angle_alpha   89.99999147
_cell_angle_beta   89.99999704
_cell_angle_gamma   60.00000113
_symmetry_Int_Tables_number   1
_chemical_formula_structural   Al35BN36
_chemical_formula_sum   'Al35 B1 N36'
_cell_volume   754.74782220
_cell_formula_units_Z   1
loop_
 _symmetry_equiv_pos_site_id
 _symmetry_equiv_pos_as_xyz
  1  'x, y, z'
loop_
 _atom_site_type_symbol
 _atom_site_label
 _atom_site_symmetry_multiplicity
 _atom_site_fract_x
 _atom_site_fract_y
 _atom_site_fract_z
 _atom_site_occupancy
  Al  Al0  1  0.10765902  0.09273694  0.39453548  1
  Al  Al1  1  0.22212259  0.20575444  0.14453610  1
  Al  Al2  1  0.77777755  0.09444438  0.89253285  1
  Al  Al3  1  0.88765804  0.20432433  0.63785363  1
  Al  Al4  1  0.44960400  0.09273650  0.39453554  1
  Al  Al5  1  0.56115185  0.20275718  0.14853541  1
  Al  Al6  1  0.10934152  0.09520034  0.89419151  1
  Al  Al7  1  0.22239670  0.20520651  0.64430626  1
  Al  Al8  1  0.88609098  0.20275692  0.14853544  1
  Al  Al9  1  0.44545774  0.09520041  0.89419159  1
  Al  Al10  1  0.55801775  0.20432455  0.63785362  1
  Al  Al11  1  0.11111154  0.42777758  0.39512106  1
  Al  Al12  1  0.22212289  0.53878987  0.14453600  1
  Al  Al13  1  0.77853436  0.42600764  0.89419156  1
  Al  Al14  1  0.88853982  0.53906346  0.64430638  1
  Al  Al15  1  0.44960410  0.42432648  0.39453543  1
  Al  Al16  1  0.55569812  0.53860428  0.14427808  1
  Al  Al17  1  0.11111150  0.42777757  0.89443318  1
  Al  Al18  1  0.22239689  0.53906373  0.64430629  1
  Al  Al19  1  0.77606930  0.42432677  0.39453546  1
  Al  Al20  1  0.88908740  0.53878962  0.14453601  1
  Al  Al21  1  0.44545780  0.42600789  0.89419164  1
  Al  Al22  1  0.55557646  0.53884768  0.64489552  1
  Al  Al23  1  0.10765940  0.76627044  0.39453549  1
  Al  Al24  1  0.22193776  0.87236435  0.14427822  1
  Al  Al25  1  0.77853411  0.76212463  0.89419143  1
  Al  Al26  1  0.88765784  0.87468491  0.63785350  1
  Al  Al27  1  0.44444374  0.76111193  0.39472660  1
  Al  Al28  1  0.55569817  0.87236408  0.14427817  1
  Al  Al29  1  0.10934119  0.76212483  0.89419144  1
  Al  Al30  1  0.22218118  0.87224266  0.64489520  1
  Al  Al31  1  0.77606961  0.76627027  0.39453559  1
  Al  Al32  1  0.88609085  0.87781862  0.14853553  1
  Al  Al33  1  0.44444423  0.76111134  0.89452384  1
  Al  Al34  1  0.55557653  0.87224243  0.64489536  1
  B  B35  1  0.77777755  0.09444466  0.39818403  1
  N  N36  1  0.22251981  0.20496040  0.33580640  1
  N  N37  1  0.10870845  0.09572917  0.08666444  1
  N  N38  1  0.88801983  0.20468612  0.83035718  1
  N  N39  1  0.77777770  0.09444471  0.56350804  1
  N  N40  1  0.58058075  0.19304307  0.34242706  1
  N  N41  1  0.44556223  0.09572917  0.08666456  1
  N  N42  1  0.22243328  0.20513319  0.83579318  1
  N  N43  1  0.11160554  0.09395936  0.58473781  1
  N  N44  1  0.87637587  0.19304329  0.34242702  1
  N  N45  1  0.77777773  0.09444439  0.08132389  1
  N  N46  1  0.55729369  0.20468632  0.83035725  1
  N  N47  1  0.44443525  0.09395928  0.58473795  1
  N  N48  1  0.22251994  0.53918648  0.33580630  1
  N  N49  1  0.11111111  0.42777797  0.08524696  1
  N  N50  1  0.88846683  0.53909991  0.83579332  1
  N  N51  1  0.77729293  0.42827209  0.58473784  1
  N  N52  1  0.55525194  0.53949608  0.33470727  1
  N  N53  1  0.44556243  0.42537494  0.08666461  1
  N  N54  1  0.22243331  0.53910022  0.83579323  1
  N  N55  1  0.11111125  0.42777792  0.58586036  1
  N  N56  1  0.88829394  0.53918632  0.33580637  1
  N  N57  1  0.77906298  0.42537467  0.08666450  1
  N  N58  1  0.55574178  0.53851650  0.83602803  1
  N  N59  1  0.44443526  0.42827225  0.58473786  1
  N  N60  1  0.22282819  0.87191933  0.33470737  1
  N  N61  1  0.10870831  0.76222921  0.08666440  1
  N  N62  1  0.88801969  0.87396067  0.83035707  1
  N  N63  1  0.77729300  0.76110182  0.58473794  1
  N  N64  1  0.55525219  0.87191908  0.33470733  1
  N  N65  1  0.44444448  0.76111111  0.08514195  1
  N  N66  1  0.22184987  0.87240831  0.83602769  1
  N  N67  1  0.11160545  0.76110193  0.58473780  1
  N  N68  1  0.87637601  0.89724750  0.34242708  1
  N  N69  1  0.77906285  0.76222901  0.08666440  1
  N  N70  1  0.55574181  0.87240823  0.83602782  1
  N  N71  1  0.44444455  0.76111112  0.58587184  1
