# generated using pymatgen
data_Al35BN36
_symmetry_space_group_name_H-M   'P 1'
_cell_length_a   9.75243914
_cell_length_b   9.75243413
_cell_length_c   8.77588189
_cell_angle_alpha   90.00000195
_cell_angle_beta   89.99999803
_cell_angle_gamma   60.00000971
_symmetry_Int_Tables_number   1
_chemical_formula_structural   Al35BN36
_chemical_formula_sum   'Al35 B1 N36'
_cell_volume   722.84922243
_cell_formula_units_Z   1
loop_
 _symmetry_equiv_pos_site_id
 _symmetry_equiv_pos_as_xyz
  1  'x, y, z'
loop_
 _atom_site_type_symbol
 _atom_site_label
 _atom_site_symmetry_multiplicity
 _atom_site_fract_x
 _atom_site_fract_y
 _atom_site_fract_z
 _atom_site_occupancy
  Al  Al0  1  0.10780453  0.09237949  0.34379709  1
  Al  Al1  1  0.22291124  0.20417757  0.09441887  1
  Al  Al2  1  0.77777779  0.09444446  0.84455730  1
  Al  Al3  1  0.88388135  0.20054809  0.58268125  1
  Al  Al4  1  0.44981597  0.09237950  0.34379708  1
  Al  Al5  1  0.55557033  0.20554818  0.09685406  1
  Al  Al6  1  0.10813566  0.09617852  0.84044147  1
  Al  Al7  1  0.22185107  0.20629794  0.59121117  1
  Al  Al8  1  0.88888154  0.20554821  0.09685406  1
  Al  Al9  1  0.44568588  0.09617850  0.84044147  1
  Al  Al10  1  0.56557067  0.20054803  0.58268123  1
  Al  Al11  1  0.11111113  0.42777777  0.34164715  1
  Al  Al12  1  0.22291125  0.53957787  0.09441888  1
  Al  Al13  1  0.77951179  0.42480239  0.84044150  1
  Al  Al14  1  0.88963130  0.53851771  0.59121117  1
  Al  Al15  1  0.44981600  0.42447120  0.34379706  1
  Al  Al16  1  0.55598462  0.53803077  0.09185744  1
  Al  Al17  1  0.11111111  0.42777777  0.84407990  1
  Al  Al18  1  0.22185107  0.53851770  0.59121118  1
  Al  Al19  1  0.77571276  0.42447125  0.34379706  1
  Al  Al20  1  0.88751094  0.53957788  0.09441887  1
  Al  Al21  1  0.44568585  0.42480234  0.84044149  1
  Al  Al22  1  0.55566195  0.53867614  0.59289180  1
  Al  Al23  1  0.10780450  0.76648266  0.34379708  1
  Al  Al24  1  0.22136405  0.87265133  0.09185745  1
  Al  Al25  1  0.77951179  0.76235252  0.84044149  1
  Al  Al26  1  0.88388134  0.88223731  0.58268127  1
  Al  Al27  1  0.44444440  0.76111116  0.34136993  1
  Al  Al28  1  0.55598463  0.87265132  0.09185747  1
  Al  Al29  1  0.10813567  0.76235250  0.84044148  1
  Al  Al30  1  0.22200941  0.87232864  0.59289180  1
  Al  Al31  1  0.77571281  0.76648264  0.34379706  1
  Al  Al32  1  0.88888155  0.87223692  0.09685401  1
  Al  Al33  1  0.44444441  0.76111115  0.84367112  1
  Al  Al34  1  0.55566197  0.87232863  0.59289178  1
  B  B35  1  0.77777783  0.09444440  0.31016033  1
  N  N36  1  0.22235510  0.20528987  0.36705587  1
  N  N37  1  0.11134420  0.09406738  0.12095347  1
  N  N38  1  0.88854145  0.20520806  0.87625748  1
  N  N39  1  0.77777775  0.09444452  0.63323228  1
  N  N40  1  0.58413564  0.19126552  0.36092126  1
  N  N41  1  0.44458841  0.09406737  0.12095346  1
  N  N42  1  0.22305192  0.20389627  0.86654356  1
  N  N43  1  0.10675394  0.09684485  0.61332520  1
  N  N44  1  0.87459890  0.19126555  0.36092126  1
  N  N45  1  0.77777777  0.09444446  0.13134635  1
  N  N46  1  0.55625062  0.20520802  0.87625747  1
  N  N47  1  0.44640123  0.09684481  0.61332520  1
  N  N48  1  0.22235511  0.53902167  0.36705585  1
  N  N49  1  0.11111109  0.42777780  0.11560289  1
  N  N50  1  0.88722973  0.53971847  0.86654357  1
  N  N51  1  0.78017804  0.42342074  0.61332522  1
  N  N52  1  0.55475720  0.54048564  0.36883952  1
  N  N53  1  0.44458843  0.42801095  0.12095343  1
  N  N54  1  0.22305190  0.53971845  0.86654357  1
  N  N55  1  0.11111109  0.42777782  0.61831224  1
  N  N56  1  0.88862331  0.53902167  0.36705586  1
  N  N57  1  0.77740057  0.42801098  0.12095343  1
  N  N58  1  0.55650459  0.53699087  0.86550225  1
  N  N59  1  0.44640122  0.42342071  0.61332520  1
  N  N60  1  0.22381897  0.87142383  0.36883953  1
  N  N61  1  0.11134420  0.76125515  0.12095344  1
  N  N62  1  0.88854143  0.87291718  0.87625744  1
  N  N63  1  0.78017803  0.76306795  0.61332522  1
  N  N64  1  0.55475723  0.87142383  0.36883951  1
  N  N65  1  0.44444436  0.76111118  0.11468429  1
  N  N66  1  0.22032421  0.87317124  0.86550224  1
  N  N67  1  0.10675396  0.76306794  0.61332522  1
  N  N68  1  0.87459891  0.90080222  0.36092128  1
  N  N69  1  0.77740059  0.76125515  0.12095343  1
  N  N70  1  0.55650459  0.87317122  0.86550227  1
  N  N71  1  0.44444437  0.76111119  0.61947949  1
