# generated using pymatgen
data_Al35BN36
_symmetry_space_group_name_H-M   'P 1'
_cell_length_a   9.40217879
_cell_length_b   9.40216743
_cell_length_c   9.82855437
_cell_angle_alpha   90.00001238
_cell_angle_beta   90.00000018
_cell_angle_gamma   59.99997583
_symmetry_Int_Tables_number   1
_chemical_formula_structural   Al35BN36
_chemical_formula_sum   'Al35 B1 N36'
_cell_volume   752.44828436
_cell_formula_units_Z   1
loop_
 _symmetry_equiv_pos_site_id
 _symmetry_equiv_pos_as_xyz
  1  'x, y, z'
loop_
 _atom_site_type_symbol
 _atom_site_label
 _atom_site_symmetry_multiplicity
 _atom_site_fract_x
 _atom_site_fract_y
 _atom_site_fract_z
 _atom_site_occupancy
  Al  Al0  1  0.10779134  0.09263039  0.32645995  1
  Al  Al1  1  0.22252775  0.20494455  0.07647784  1
  Al  Al2  1  0.77777778  0.09444446  0.82838228  1
  Al  Al3  1  0.88575797  0.20242474  0.57139823  1
  Al  Al4  1  0.44957832  0.09263038  0.32645995  1
  Al  Al5  1  0.55751279  0.20457695  0.08282787  1
  Al  Al6  1  0.10910023  0.09536790  0.82610818  1
  Al  Al7  1  0.22201167  0.20597671  0.57606254  1
  Al  Al8  1  0.88791031  0.20457696  0.08282787  1
  Al  Al9  1  0.44553189  0.09536789  0.82610819  1
  Al  Al10  1  0.56181735  0.20242472  0.57139824  1
  Al  Al11  1  0.11111115  0.42777774  0.32527968  1
  Al  Al12  1  0.22252775  0.53919432  0.07647784  1
  Al  Al13  1  0.77870117  0.42576696  0.82610819  1
  Al  Al14  1  0.88931012  0.53867828  0.57606254  1
  Al  Al15  1  0.44957834  0.42445804  0.32645993  1
  Al  Al16  1  0.55569045  0.53861911  0.07562132  1
  Al  Al17  1  0.11111113  0.42777773  0.82667425  1
  Al  Al18  1  0.22201164  0.53867827  0.57606254  1
  Al  Al19  1  0.77596363  0.42445807  0.32645992  1
  Al  Al20  1  0.88827795  0.53919433  0.07647783  1
  Al  Al21  1  0.44553187  0.42576694  0.82610819  1
  Al  Al22  1  0.55563326  0.53873351  0.57654740  1
  Al  Al23  1  0.10779138  0.76624496  0.32645993  1
  Al  Al24  1  0.22195240  0.87235714  0.07562132  1
  Al  Al25  1  0.77870121  0.76219852  0.82610819  1
  Al  Al26  1  0.88575798  0.87848405  0.57139824  1
  Al  Al27  1  0.44444439  0.76111120  0.32555668  1
  Al  Al28  1  0.55569047  0.87235714  0.07562133  1
  Al  Al29  1  0.10910027  0.76219850  0.82610818  1
  Al  Al30  1  0.22206674  0.87229998  0.57654739  1
  Al  Al31  1  0.77596366  0.76624496  0.32645992  1
  Al  Al32  1  0.88791034  0.87417935  0.08282783  1
  Al  Al33  1  0.44444440  0.76111117  0.82655399  1
  Al  Al34  1  0.55563330  0.87229997  0.57654739  1
  B  B35  1  0.77777787  0.09444432  0.31921745  1
  N  N36  1  0.22244540  0.20510929  0.38231974  1
  N  N37  1  0.11163023  0.09391481  0.13368415  1
  N  N38  1  0.88804729  0.20471377  0.88806876  1
  N  N39  1  0.77777770  0.09444461  0.63750565  1
  N  N40  1  0.58092728  0.19286965  0.37535620  1
  N  N41  1  0.44445497  0.09391481  0.13368415  1
  N  N42  1  0.22256137  0.20487732  0.88229973  1
  N  N43  1  0.10838665  0.09592877  0.63103616  1
  N  N44  1  0.87620314  0.19286967  0.37535618  1
  N  N45  1  0.77777776  0.09444450  0.15374066  1
  N  N46  1  0.55723900  0.20471376  0.88806876  1
  N  N47  1  0.44568459  0.09592875  0.63103617  1
  N  N48  1  0.22244538  0.53911180  0.38231972  1
  N  N49  1  0.11111103  0.42777791  0.13193821  1
  N  N50  1  0.88821094  0.53922778  0.88229972  1
  N  N51  1  0.77926179  0.42505367  0.63103617  1
  N  N52  1  0.55511613  0.53976780  0.38354744  1
  N  N53  1  0.44445496  0.42829715  0.13368412  1
  N  N54  1  0.22256133  0.53922776  0.88229972  1
  N  N55  1  0.11111104  0.42777792  0.63323199  1
  N  N56  1  0.88844289  0.53911181  0.38231973  1
  N  N57  1  0.77724787  0.42829717  0.13368411  1
  N  N58  1  0.55590656  0.53818690  0.88185847  1
  N  N59  1  0.44568454  0.42505365  0.63103617  1
  N  N60  1  0.22310120  0.87178265  0.38354744  1
  N  N61  1  0.11163025  0.76112182  0.13368412  1
  N  N62  1  0.88804731  0.87390540  0.88806873  1
  N  N63  1  0.77926184  0.76235146  0.63103617  1
  N  N64  1  0.55511619  0.87178264  0.38354743  1
  N  N65  1  0.44444433  0.76111132  0.13176170  1
  N  N66  1  0.22152035  0.87257305  0.88185847  1
  N  N67  1  0.10838667  0.76235146  0.63103616  1
  N  N68  1  0.87620315  0.89759374  0.37535616  1
  N  N69  1  0.77724792  0.76112183  0.13368412  1
  N  N70  1  0.55590662  0.87257304  0.88185847  1
  N  N71  1  0.44444431  0.76111135  0.63341132  1
