# generated using pymatgen
data_Al35BN36
_symmetry_space_group_name_H-M   'P 1'
_cell_length_a   9.72296218
_cell_length_b   9.72295949
_cell_length_c   8.86998762
_cell_angle_alpha   90.00000182
_cell_angle_beta   89.99999751
_cell_angle_gamma   60.00002035
_symmetry_Int_Tables_number   1
_chemical_formula_structural   Al35BN36
_chemical_formula_sum   'Al35 B1 N36'
_cell_volume   726.19090713
_cell_formula_units_Z   1
loop_
 _symmetry_equiv_pos_site_id
 _symmetry_equiv_pos_as_xyz
  1  'x, y, z'
loop_
 _atom_site_type_symbol
 _atom_site_label
 _atom_site_symmetry_multiplicity
 _atom_site_fract_x
 _atom_site_fract_y
 _atom_site_fract_z
 _atom_site_occupancy
  Al  Al0  1  0.10794922  0.09232104  0.34163048  1
  Al  Al1  1  0.22294697  0.20410613  0.09171774  1
  Al  Al2  1  0.77777779  0.09444446  0.84271784  1
  Al  Al3  1  0.88399633  0.20066308  0.58079309  1
  Al  Al4  1  0.44972973  0.09232105  0.34163047  1
  Al  Al5  1  0.55563001  0.20551835  0.09545075  1
  Al  Al6  1  0.10807123  0.09618646  0.83813943  1
  Al  Al7  1  0.22179123  0.20641763  0.58899637  1
  Al  Al8  1  0.88885169  0.20551838  0.09545075  1
  Al  Al9  1  0.44574237  0.09618644  0.83813943  1
  Al  Al10  1  0.56534069  0.20066303  0.58079307  1
  Al  Al11  1  0.11111115  0.42777773  0.33886605  1
  Al  Al12  1  0.22294697  0.53961360  0.09171775  1
  Al  Al13  1  0.77951975  0.42473792  0.83813946  1
  Al  Al14  1  0.88975097  0.53845788  0.58899636  1
  Al  Al15  1  0.44972977  0.42461587  0.34163045  1
  Al  Al16  1  0.55603311  0.53793378  0.08924596  1
  Al  Al17  1  0.11111114  0.42777774  0.84177997  1
  Al  Al18  1  0.22179123  0.53845787  0.58899636  1
  Al  Al19  1  0.77565432  0.42461592  0.34163043  1
  Al  Al20  1  0.88743948  0.53961360  0.09171773  1
  Al  Al21  1  0.44574236  0.42473788  0.83813945  1
  Al  Al22  1  0.55558874  0.53882256  0.59068739  1
  Al  Al23  1  0.10794919  0.76639640  0.34163047  1
  Al  Al24  1  0.22126702  0.87269987  0.08924598  1
  Al  Al25  1  0.77951975  0.76240898  0.83813944  1
  Al  Al26  1  0.88399631  0.88200738  0.58079312  1
  Al  Al27  1  0.44444440  0.76111115  0.33862903  1
  Al  Al28  1  0.55603312  0.87269987  0.08924599  1
  Al  Al29  1  0.10807126  0.76240895  0.83813943  1
  Al  Al30  1  0.22215579  0.87225548  0.59068738  1
  Al  Al31  1  0.77565437  0.76639639  0.34163044  1
  Al  Al32  1  0.88885170  0.87229663  0.09545067  1
  Al  Al33  1  0.44444442  0.76111113  0.84145871  1
  Al  Al34  1  0.55558875  0.87225547  0.59068736  1
  B  B35  1  0.77777783  0.09444439  0.31085550  1
  N  N36  1  0.22231658  0.20536692  0.36933813  1
  N  N37  1  0.11144993  0.09398530  0.12300019  1
  N  N38  1  0.88846548  0.20513213  0.87810712  1
  N  N39  1  0.77777776  0.09444449  0.63373763  1
  N  N40  1  0.58380107  0.19143282  0.36251363  1
  N  N41  1  0.44456475  0.09398529  0.12300018  1
  N  N42  1  0.22305374  0.20389263  0.86890661  1
  N  N43  1  0.10680968  0.09682958  0.61564805  1
  N  N44  1  0.87476618  0.19143285  0.36251363  1
  N  N45  1  0.77777779  0.09444441  0.13407311  1
  N  N46  1  0.55640253  0.20513209  0.87810712  1
  N  N47  1  0.44636074  0.09682954  0.61564804  1
  N  N48  1  0.22231659  0.53898319  0.36933810  1
  N  N49  1  0.11111108  0.42777779  0.11783242  1
  N  N50  1  0.88722605  0.53972033  0.86890664  1
  N  N51  1  0.78016279  0.42347648  0.61564807  1
  N  N52  1  0.55472266  0.54055473  0.37121888  1
  N  N53  1  0.44456476  0.42811666  0.12300016  1
  N  N54  1  0.22305372  0.53972031  0.86890664  1
  N  N55  1  0.11111109  0.42777781  0.62088256  1
  N  N56  1  0.88870032  0.53898318  0.36933811  1
  N  N57  1  0.77731853  0.42811669  0.12300015  1
  N  N58  1  0.55650999  0.53698008  0.86774272  1
  N  N59  1  0.44636073  0.42347644  0.61564805  1
  N  N60  1  0.22388804  0.87138931  0.37121888  1
  N  N61  1  0.11144992  0.76123145  0.12300016  1
  N  N62  1  0.88846548  0.87306910  0.87810706  1
  N  N63  1  0.78016281  0.76302742  0.61564807  1
  N  N64  1  0.55472270  0.87138930  0.37121886  1
  N  N65  1  0.44444438  0.76111117  0.11692075  1
  N  N66  1  0.22031339  0.87317666  0.86774272  1
  N  N67  1  0.10680970  0.76302742  0.61564806  1
  N  N68  1  0.87476618  0.90046767  0.36251365  1
  N  N69  1  0.77731856  0.76123144  0.12300014  1
  N  N70  1  0.55651001  0.87317664  0.86774274  1
  N  N71  1  0.44444438  0.76111118  0.62192794  1
