# generated using pymatgen
data_Al35BN36
_symmetry_space_group_name_H-M   'P 1'
_cell_length_a   9.60445038
_cell_length_b   9.60470685
_cell_length_c   9.24094832
_cell_angle_alpha   89.99998579
_cell_angle_beta   89.99999625
_cell_angle_gamma   60.00090114
_symmetry_Int_Tables_number   1
_chemical_formula_structural   Al35BN36
_chemical_formula_sum   'Al35 B1 N36'
_cell_volume   738.25729576
_cell_formula_units_Z   1
loop_
 _symmetry_equiv_pos_site_id
 _symmetry_equiv_pos_as_xyz
  1  'x, y, z'
loop_
 _atom_site_type_symbol
 _atom_site_label
 _atom_site_symmetry_multiplicity
 _atom_site_fract_x
 _atom_site_fract_y
 _atom_site_fract_z
 _atom_site_occupancy
  Al  Al0  1  0.10815188  0.09228633  0.33455112  1
  Al  Al1  1  0.22290467  0.20419071  0.08392797  1
  Al  Al2  1  0.77777858  0.09444288  0.83630897  1
  Al  Al3  1  0.88458669  0.20125514  0.57562791  1
  Al  Al4  1  0.44956182  0.09228633  0.33455111  1
  Al  Al5  1  0.55606549  0.20530184  0.08999806  1
  Al  Al6  1  0.10822445  0.09600112  0.83175580  1
  Al  Al7  1  0.22173894  0.20652219  0.58254166  1
  Al  Al8  1  0.88863273  0.20530185  0.08999806  1
  Al  Al9  1  0.44577446  0.09600112  0.83175581  1
  Al  Al10  1  0.56415825  0.20125510  0.57562791  1
  Al  Al11  1  0.11111164  0.42777673  0.33145898  1
  Al  Al12  1  0.22290461  0.53957373  0.08392814  1
  Al  Al13  1  0.77933683  0.42488881  0.83175580  1
  Al  Al14  1  0.88985295  0.53840803  0.58254143  1
  Al  Al15  1  0.44956120  0.42481669  0.33455121  1
  Al  Al16  1  0.55601895  0.53796212  0.08203767  1
  Al  Al17  1  0.11111176  0.42777648  0.83470153  1
  Al  Al18  1  0.22173907  0.53840802  0.58254142  1
  Al  Al19  1  0.77562210  0.42481673  0.33455119  1
  Al  Al20  1  0.88752170  0.53957374  0.08392811  1
  Al  Al21  1  0.44577437  0.42488879  0.83175580  1
  Al  Al22  1  0.55549070  0.53901864  0.58393745  1
  Al  Al23  1  0.10815145  0.76622622  0.33455121  1
  Al  Al24  1  0.22129318  0.87268781  0.08203762  1
  Al  Al25  1  0.77933674  0.76243898  0.83175576  1
  Al  Al26  1  0.88458631  0.88082738  0.57562804  1
  Al  Al27  1  0.44444539  0.76110918  0.33141406  1
  Al  Al28  1  0.55601903  0.87268781  0.08203763  1
  Al  Al29  1  0.10822429  0.76243896  0.83175575  1
  Al  Al30  1  0.22234992  0.87215946  0.58393745  1
  Al  Al31  1  0.77562233  0.76622621  0.33455118  1
  Al  Al32  1  0.88863277  0.87273450  0.08999825  1
  Al  Al33  1  0.44444518  0.76110962  0.83454561  1
  Al  Al34  1  0.55549064  0.87215945  0.58393743  1
  B  B35  1  0.77777697  0.09444610  0.31372681  1
  N  N36  1  0.22227039  0.20545929  0.37597243  1
  N  N37  1  0.11170295  0.09381705  0.12868174  1
  N  N38  1  0.88825357  0.20492364  0.88337988  1
  N  N39  1  0.77777909  0.09444184  0.63545570  1
  N  N40  1  0.58258020  0.19204432  0.36817668  1
  N  N41  1  0.44447999  0.09381706  0.12868173  1
  N  N42  1  0.22294208  0.20411592  0.87570423  1
  N  N43  1  0.10726886  0.09659664  0.62301605  1
  N  N44  1  0.87537553  0.19204436  0.36817667  1
  N  N45  1  0.77777874  0.09444253  0.14316787  1
  N  N46  1  0.55682287  0.20492363  0.88337987  1
  N  N47  1  0.44613450  0.09659662  0.62301605  1
  N  N48  1  0.22227054  0.53894045  0.37597251  1
  N  N49  1  0.11111233  0.42777533  0.12457440  1
  N  N50  1  0.88744566  0.53961218  0.87570418  1
  N  N51  1  0.77993358  0.42393181  0.62301585  1
  N  N52  1  0.55474033  0.54051936  0.37777399  1
  N  N53  1  0.44448006  0.42836575  0.12868188  1
  N  N54  1  0.22294222  0.53961216  0.87570420  1
  N  N55  1  0.11111226  0.42777547  0.62774048  1
  N  N56  1  0.88878906  0.53894046  0.37597252  1
  N  N57  1  0.77715416  0.42836578  0.12868187  1
  N  N58  1  0.55638977  0.53722049  0.87457610  1
  N  N59  1  0.44613461  0.42393179  0.62301584  1
  N  N60  1  0.22384946  0.87141046  0.37777400  1
  N  N61  1  0.11170279  0.76114314  0.12868198  1
  N  N62  1  0.88825344  0.87349317  0.88337979  1
  N  N63  1  0.77993338  0.76279800  0.62301590  1
  N  N64  1  0.55474011  0.87141045  0.37777398  1
  N  N65  1  0.44444557  0.76110881  0.12386232  1
  N  N66  1  0.22055057  0.87305986  0.87457622  1
  N  N67  1  0.10726858  0.76279799  0.62301588  1
  N  N68  1  0.87537563  0.89924876  0.36817700  1
  N  N69  1  0.77715404  0.76114315  0.12868196  1
  N  N70  1  0.55638960  0.87305985  0.87457623  1
  N  N71  1  0.44444566  0.76110864  0.62836884  1
