# generated using pymatgen
data_Al35BN36
_symmetry_space_group_name_H-M   'P 1'
_cell_length_a   9.85518676
_cell_length_b   9.85518530
_cell_length_c   8.45124499
_cell_angle_alpha   90.00000028
_cell_angle_beta   90.00000002
_cell_angle_gamma   60.00000885
_symmetry_Int_Tables_number   1
_chemical_formula_structural   Al35BN36
_chemical_formula_sum   'Al35 B1 N36'
_cell_volume   710.85498797
_cell_formula_units_Z   1
loop_
 _symmetry_equiv_pos_site_id
 _symmetry_equiv_pos_as_xyz
  1  'x, y, z'
loop_
 _atom_site_type_symbol
 _atom_site_label
 _atom_site_symmetry_multiplicity
 _atom_site_fract_x
 _atom_site_fract_y
 _atom_site_fract_z
 _atom_site_occupancy
  Al  Al0  1  0.10576964  0.09260401  0.35451365  1
  Al  Al1  1  0.22240338  0.20519331  0.10802888  1
  Al  Al2  1  0.77777777  0.09444446  0.85516509  1
  Al  Al3  1  0.88517828  0.20184495  0.60501857  1
  Al  Al4  1  0.45162637  0.09260399  0.35451364  1
  Al  Al5  1  0.55954991  0.20355838  0.10167270  1
  Al  Al6  1  0.11035944  0.09571737  0.85420009  1
  Al  Al7  1  0.22233766  0.20532475  0.60115090  1
  Al  Al8  1  0.88689173  0.20355840  0.10167273  1
  Al  Al9  1  0.44392319  0.09571733  0.85420009  1
  Al  Al10  1  0.56297678  0.20184494  0.60501861  1
  Al  Al11  1  0.11111112  0.42777781  0.35472402  1
  Al  Al12  1  0.22240340  0.53907006  0.10802890  1
  Al  Al13  1  0.77905068  0.42702613  0.85420009  1
  Al  Al14  1  0.88865809  0.53900432  0.60115090  1
  Al  Al15  1  0.45162642  0.42243625  0.35451365  1
  Al  Al16  1  0.55577799  0.53844411  0.10588594  1
  Al  Al17  1  0.11111111  0.42777780  0.85456320  1
  Al  Al18  1  0.22233768  0.53900435  0.60115088  1
  Al  Al19  1  0.77593732  0.42243633  0.35451365  1
  Al  Al20  1  0.88852665  0.53907005  0.10802888  1
  Al  Al21  1  0.44392319  0.42702613  0.85420009  1
  Al  Al22  1  0.55591455  0.53817097  0.60325270  1
  Al  Al23  1  0.10576957  0.76829311  0.35451365  1
  Al  Al24  1  0.22177744  0.87244465  0.10588594  1
  Al  Al25  1  0.77905063  0.76058988  0.85420009  1
  Al  Al26  1  0.88517827  0.87964344  0.60501861  1
  Al  Al27  1  0.44444441  0.76111111  0.35476824  1
  Al  Al28  1  0.55577795  0.87244461  0.10588594  1
  Al  Al29  1  0.11035944  0.76058988  0.85420010  1
  Al  Al30  1  0.22150431  0.87258122  0.60325270  1
  Al  Al31  1  0.77593730  0.76829306  0.35451365  1
  Al  Al32  1  0.88689172  0.87621658  0.10167270  1
  Al  Al33  1  0.44444441  0.76111110  0.85449932  1
  Al  Al34  1  0.55591451  0.87258118  0.60325269  1
  B  B35  1  0.77777778  0.09444446  0.33808291  1
  N  N36  1  0.22248627  0.20502756  0.35488556  1
  N  N37  1  0.10934560  0.09530182  0.10935711  1
  N  N38  1  0.89098325  0.20764991  0.85734204  1
  N  N39  1  0.77777777  0.09444446  0.62848128  1
  N  N40  1  0.58957370  0.18854650  0.35458865  1
  N  N41  1  0.44535262  0.09530176  0.10935710  1
  N  N42  1  0.22288849  0.20422304  0.85475133  1
  N  N43  1  0.10849906  0.09581868  0.60064550  1
  N  N44  1  0.87187985  0.18854652  0.35458864  1
  N  N45  1  0.77777778  0.09444446  0.09397097  1
  N  N46  1  0.55136686  0.20764989  0.85734203  1
  N  N47  1  0.44568229  0.09581860  0.60064552  1
  N  N48  1  0.22248626  0.53915292  0.35488555  1
  N  N49  1  0.11111113  0.42777782  0.10426269  1
  N  N50  1  0.88755639  0.53955515  0.85475132  1
  N  N51  1  0.77915198  0.42516576  0.60064550  1
  N  N52  1  0.55490199  0.54019607  0.35496785  1
  N  N53  1  0.44535266  0.42601229  0.10935710  1
  N  N54  1  0.22288849  0.53955515  0.85475133  1
  N  N55  1  0.11111113  0.42777783  0.60527682  1
  N  N56  1  0.88836091  0.53915293  0.35488555  1
  N  N57  1  0.77863512  0.42601230  0.10935709  1
  N  N58  1  0.55631758  0.53736489  0.85470047  1
  N  N59  1  0.44568232  0.42516576  0.60064551  1
  N  N60  1  0.22352941  0.87156864  0.35496785  1
  N  N61  1  0.10934560  0.76201935  0.10935708  1
  N  N62  1  0.89098324  0.86803352  0.85734202  1
  N  N63  1  0.77915190  0.76234898  0.60064552  1
  N  N64  1  0.55490195  0.87156860  0.35496783  1
  N  N65  1  0.44444442  0.76111112  0.10326805  1
  N  N66  1  0.22069822  0.87298424  0.85470047  1
  N  N67  1  0.10849907  0.76234901  0.60064551  1
  N  N68  1  0.87187984  0.90624034  0.35458865  1
  N  N69  1  0.77863506  0.76201932  0.10935708  1
  N  N70  1  0.55631753  0.87298419  0.85470049  1
  N  N71  1  0.44444443  0.76111112  0.60627350  1
