# generated using pymatgen
data_Al35BN36
_symmetry_space_group_name_H-M   'P 1'
_cell_length_a   9.34320205
_cell_length_b   9.34320256
_cell_length_c   9.98343364
_cell_angle_alpha   90.00000851
_cell_angle_beta   90.00000351
_cell_angle_gamma   60.00000383
_symmetry_Int_Tables_number   1
_chemical_formula_structural   Al35BN36
_chemical_formula_sum   'Al35 B1 N36'
_cell_volume   754.74820613
_cell_formula_units_Z   1
loop_
 _symmetry_equiv_pos_site_id
 _symmetry_equiv_pos_as_xyz
  1  'x, y, z'
loop_
 _atom_site_type_symbol
 _atom_site_label
 _atom_site_symmetry_multiplicity
 _atom_site_fract_x
 _atom_site_fract_y
 _atom_site_fract_z
 _atom_site_occupancy
  Al  Al0  1  0.10765954  0.09273704  0.30795973  1
  Al  Al1  1  0.22239648  0.20520697  0.05818850  1
  Al  Al2  1  0.77777756  0.09444431  0.80996149  1
  Al  Al3  1  0.88609120  0.20275711  0.55395975  1
  Al  Al4  1  0.44960344  0.09273655  0.30795972  1
  Al  Al5  1  0.55801801  0.20432440  0.06464625  1
  Al  Al6  1  0.10934094  0.09520024  0.80830459  1
  Al  Al7  1  0.22212276  0.20575407  0.55795967  1
  Al  Al8  1  0.88765785  0.20432419  0.06464617  1
  Al  Al9  1  0.44545845  0.09520030  0.80830453  1
  Al  Al10  1  0.56115128  0.20275741  0.55395977  1
  Al  Al11  1  0.11111156  0.42777763  0.30737572  1
  Al  Al12  1  0.22239665  0.53906356  0.05818850  1
  Al  Al13  1  0.77853433  0.42600699  0.80830455  1
  Al  Al14  1  0.88908706  0.53878977  0.55795976  1
  Al  Al15  1  0.44960355  0.42432696  0.30795979  1
  Al  Al16  1  0.55557630  0.53884796  0.05760088  1
  Al  Al17  1  0.11111153  0.42777759  0.80806135  1
  Al  Al18  1  0.22212307  0.53879007  0.55795979  1
  Al  Al19  1  0.77606941  0.42432725  0.30795975  1
  Al  Al20  1  0.88854026  0.53906327  0.05818841  1
  Al  Al21  1  0.44545851  0.42600721  0.80830452  1
  Al  Al22  1  0.55569823  0.53860399  0.55821633  1
  Al  Al23  1  0.10765987  0.76626989  0.30795971  1
  Al  Al24  1  0.22218140  0.87224255  0.05760123  1
  Al  Al25  1  0.77853405  0.76212528  0.80830468  1
  Al  Al26  1  0.88609110  0.87781804  0.55395965  1
  Al  Al27  1  0.44444375  0.76111189  0.30776928  1
  Al  Al28  1  0.55557635  0.87224230  0.05760106  1
  Al  Al29  1  0.10934058  0.76212548  0.80830471  1
  Al  Al30  1  0.22193752  0.87236442  0.55821617  1
  Al  Al31  1  0.77606967  0.76626971  0.30795965  1
  Al  Al32  1  0.88765762  0.87468523  0.06464635  1
  Al  Al33  1  0.44444424  0.76111129  0.80797110  1
  Al  Al34  1  0.55569825  0.87236413  0.55821623  1
  B  B35  1  0.77777757  0.09444467  0.30431283  1
  N  N36  1  0.22251994  0.20496026  0.36669002  1
  N  N37  1  0.11160608  0.09395927  0.11775900  1
  N  N38  1  0.88801956  0.20468578  0.87214178  1
  N  N39  1  0.77777764  0.09444430  0.62117074  1
  N  N40  1  0.58058022  0.19304336  0.36006888  1
  N  N41  1  0.44443481  0.09395914  0.11775894  1
  N  N42  1  0.22243328  0.20513328  0.86670280  1
  N  N43  1  0.10870831  0.09572893  0.61583179  1
  N  N44  1  0.87637616  0.19304354  0.36006893  1
  N  N45  1  0.77777768  0.09444474  0.13899201  1
  N  N46  1  0.55729429  0.20468597  0.87214181  1
  N  N47  1  0.44556253  0.09572891  0.61583170  1
  N  N48  1  0.22252009  0.53918665  0.36669012  1
  N  N49  1  0.11111128  0.42777796  0.11663676  1
  N  N50  1  0.88846694  0.53909989  0.86670268  1
  N  N51  1  0.77906279  0.42537448  0.61583174  1
  N  N52  1  0.55525204  0.53949587  0.36778815  1
  N  N53  1  0.44443480  0.42827282  0.11775902  1
  N  N54  1  0.22243332  0.53910019  0.86670279  1
  N  N55  1  0.11111114  0.42777798  0.61724851  1
  N  N56  1  0.88829375  0.53918646  0.36669005  1
  N  N57  1  0.77729278  0.42827266  0.11775898  1
  N  N58  1  0.55574167  0.53851673  0.86646914  1
  N  N59  1  0.44556274  0.42537475  0.61583173  1
  N  N60  1  0.22282802  0.87191942  0.36778802  1
  N  N61  1  0.11160594  0.76110154  0.11775907  1
  N  N62  1  0.88801940  0.87396120  0.87214195  1
  N  N63  1  0.77906262  0.76222929  0.61583183  1
  N  N64  1  0.55525225  0.87191914  0.36778811  1
  N  N65  1  0.44444451  0.76111111  0.11662545  1
  N  N66  1  0.22185018  0.87240811  0.86646950  1
  N  N67  1  0.10870815  0.76222952  0.61583190  1
  N  N68  1  0.87637630  0.89724696  0.36006887  1
  N  N69  1  0.77729280  0.76110142  0.11775897  1
  N  N70  1  0.55574168  0.87240804  0.86646937  1
  N  N71  1  0.44444446  0.76111104  0.61735330  1
