# generated using pymatgen
data_Al35BN36
_symmetry_space_group_name_H-M   'P 1'
_cell_length_a   9.37348180
_cell_length_b   9.37347068
_cell_length_c   9.90508491
_cell_angle_alpha   90.00000640
_cell_angle_beta   90.00000146
_cell_angle_gamma   59.99997396
_symmetry_Int_Tables_number   1
_chemical_formula_structural   Al35BN36
_chemical_formula_sum   'Al35 B1 N36'
_cell_volume   753.68537236
_cell_formula_units_Z   1
loop_
 _symmetry_equiv_pos_site_id
 _symmetry_equiv_pos_as_xyz
  1  'x, y, z'
loop_
 _atom_site_type_symbol
 _atom_site_label
 _atom_site_symmetry_multiplicity
 _atom_site_fract_x
 _atom_site_fract_y
 _atom_site_fract_z
 _atom_site_occupancy
  Al  Al0  1  0.10772999  0.09268317  0.32560188  1
  Al  Al1  1  0.22246272  0.20507444  0.07572897  1
  Al  Al2  1  0.77777772  0.09444431  0.82754866  1
  Al  Al3  1  0.88592056  0.20258671  0.57104669  1
  Al  Al4  1  0.44958698  0.09268285  0.32560187  1
  Al  Al5  1  0.55775288  0.20445689  0.08211776  1
  Al  Al6  1  0.10921763  0.09528482  0.82559678  1
  Al  Al7  1  0.22206644  0.20586678  0.57541220  1
  Al  Al8  1  0.88779053  0.20445679  0.08211772  1
  Al  Al9  1  0.44549730  0.09528491  0.82559675  1
  Al  Al10  1  0.56149254  0.20258692  0.57104673  1
  Al  Al11  1  0.11111142  0.42777768  0.32473182  1
  Al  Al12  1  0.22246281  0.53912962  0.07572898  1
  Al  Al13  1  0.77861861  0.42588388  0.82559678  1
  Al  Al14  1  0.88919974  0.53873350  0.57541226  1
  Al  Al15  1  0.44958712  0.42439692  0.32560189  1
  Al  Al16  1  0.55563318  0.53873393  0.07500470  1
  Al  Al17  1  0.11111137  0.42777770  0.82576855  1
  Al  Al18  1  0.22206662  0.53873369  0.57541225  1
  Al  Al19  1  0.77601587  0.42439720  0.32560186  1
  Al  Al20  1  0.88840782  0.53912942  0.07572890  1
  Al  Al21  1  0.44549735  0.42588407  0.82559675  1
  Al  Al22  1  0.55566611  0.53866804  0.57577933  1
  Al  Al23  1  0.10773022  0.76625335  0.32560184  1
  Al  Al24  1  0.22206719  0.87229961  0.07500492  1
  Al  Al25  1  0.77861849  0.76216410  0.82559686  1
  Al  Al26  1  0.88592047  0.87815932  0.57104660  1
  Al  Al27  1  0.44444392  0.76111172  0.32506070  1
  Al  Al28  1  0.55563332  0.87229943  0.07500479  1
  Al  Al29  1  0.10921746  0.76216420  0.82559687  1
  Al  Al30  1  0.22200130  0.87233255  0.57577924  1
  Al  Al31  1  0.77601601  0.76625330  0.32560179  1
  Al  Al32  1  0.88779036  0.87441969  0.08211780  1
  Al  Al33  1  0.44444415  0.76111144  0.82566112  1
  Al  Al34  1  0.55566625  0.87233238  0.57577930  1
  B  B35  1  0.77777781  0.09444443  0.32008233  1
  N  N36  1  0.22248232  0.20503552  0.38292851  1
  N  N37  1  0.11161875  0.09393574  0.13413453  1
  N  N38  1  0.88803003  0.20469619  0.88851594  1
  N  N39  1  0.77777764  0.09444456  0.63772797  1
  N  N40  1  0.58074787  0.19295941  0.37610352  1
  N  N41  1  0.44444559  0.09393568  0.13413449  1
  N  N42  1  0.22249887  0.20500217  0.88291980  1
  N  N43  1  0.10853892  0.09583275  0.63184959  1
  N  N44  1  0.87629273  0.19295956  0.37610355  1
  N  N45  1  0.77777774  0.09444467  0.15478518  1
  N  N46  1  0.55727367  0.20469629  0.88851593  1
  N  N47  1  0.44562813  0.09583283  0.63184952  1
  N  N48  1  0.22248242  0.53914870  0.38292854  1
  N  N49  1  0.11111110  0.42777798  0.13271204  1
  N  N50  1  0.88833591  0.53916528  0.88291972  1
  N  N51  1  0.77916606  0.42520563  0.63184957  1
  N  N52  1  0.55518299  0.53963402  0.38408652  1
  N  N53  1  0.44444558  0.42828560  0.13413450  1
  N  N54  1  0.22249890  0.53916548  0.88291979  1
  N  N55  1  0.11111097  0.42777811  0.63366517  1
  N  N56  1  0.88836919  0.53914863  0.38292852  1
  N  N57  1  0.77726897  0.42828554  0.13413448  1
  N  N58  1  0.55582622  0.53834763  0.88258087  1
  N  N59  1  0.44562822  0.42520583  0.63184955  1
  N  N60  1  0.22296679  0.87184989  0.38408647  1
  N  N61  1  0.11161865  0.76111246  0.13413457  1
  N  N62  1  0.88802999  0.87394015  0.88851601  1
  N  N63  1  0.77916606  0.76229519  0.63184963  1
  N  N64  1  0.55518315  0.87184975  0.38408654  1
  N  N65  1  0.44444431  0.76111135  0.13261299  1
  N  N66  1  0.22168102  0.87249268  0.88258111  1
  N  N67  1  0.10853885  0.76229528  0.63184968  1
  N  N68  1  0.87629277  0.89741433  0.37610346  1
  N  N69  1  0.77726900  0.76111242  0.13413449  1
  N  N70  1  0.55582630  0.87249260  0.88258099  1
  N  N71  1  0.44444428  0.76111138  0.63380472  1
