# generated using pymatgen
data_Al35BN36
_symmetry_space_group_name_H-M   'P 1'
_cell_length_a   9.64013320
_cell_length_b   9.64008382
_cell_length_c   9.13078882
_cell_angle_alpha   90.00008265
_cell_angle_beta   90.00000365
_cell_angle_gamma   59.99984690
_symmetry_Int_Tables_number   1
_chemical_formula_structural   Al35BN36
_chemical_formula_sum   'Al35 B1 N36'
_cell_volume   734.85576350
_cell_formula_units_Z   1
loop_
 _symmetry_equiv_pos_site_id
 _symmetry_equiv_pos_as_xyz
  1  'x, y, z'
loop_
 _atom_site_type_symbol
 _atom_site_label
 _atom_site_symmetry_multiplicity
 _atom_site_fract_x
 _atom_site_fract_y
 _atom_site_fract_z
 _atom_site_occupancy
  Al  Al0  1  0.10814381  0.09226999  0.37284168  1
  Al  Al1  1  0.22173264  0.20653478  0.12510459  1
  Al  Al2  1  0.77777761  0.09444480  0.87120973  1
  Al  Al3  1  0.88871794  0.20538434  0.61770658  1
  Al  Al4  1  0.44958620  0.09227000  0.37284167  1
  Al  Al5  1  0.56454449  0.20106099  0.13242541  1
  Al  Al6  1  0.10812435  0.09608535  0.87597157  1
  Al  Al7  1  0.22293899  0.20412207  0.62341599  1
  Al  Al8  1  0.88439457  0.20106103  0.13242542  1
  Al  Al9  1  0.44579032  0.09608535  0.87597156  1
  Al  Al10  1  0.55589777  0.20538434  0.61770658  1
  Al  Al11  1  0.11111105  0.42777791  0.37604592  1
  Al  Al12  1  0.22173267  0.53839887  0.12510447  1
  Al  Al13  1  0.77941818  0.42479142  0.87597154  1
  Al  Al14  1  0.88745574  0.53960528  0.62341595  1
  Al  Al15  1  0.44958635  0.42481081  0.37284173  1
  Al  Al16  1  0.55549884  0.53900238  0.12358497  1
  Al  Al17  1  0.11111101  0.42777797  0.87273971  1
  Al  Al18  1  0.22293903  0.53960528  0.62341594  1
  Al  Al19  1  0.77560282  0.42481084  0.37284174  1
  Al  Al20  1  0.88986851  0.53839887  0.12510448  1
  Al  Al21  1  0.44579040  0.42479142  0.87597154  1
  Al  Al22  1  0.55604623  0.53790757  0.62549254  1
  Al  Al23  1  0.10814391  0.76625330  0.37284163  1
  Al  Al24  1  0.22233602  0.87216524  0.12358495  1
  Al  Al25  1  0.77941820  0.76245737  0.87597147  1
  Al  Al26  1  0.88871794  0.87256416  0.61770656  1
  Al  Al27  1  0.44444429  0.76111138  0.37615324  1
  Al  Al28  1  0.55549878  0.87216522  0.12358496  1
  Al  Al29  1  0.10812444  0.76245735  0.87597148  1
  Al  Al30  1  0.22124125  0.87271265  0.62549252  1
  Al  Al31  1  0.77560278  0.76625329  0.37284164  1
  Al  Al32  1  0.88439446  0.88121109  0.13242531  1
  Al  Al33  1  0.44444432  0.76111134  0.87291731  1
  Al  Al34  1  0.55604613  0.87271265  0.62549251  1
  B  B35  1  0.77777794  0.09444414  0.39645477  1
  N  N36  1  0.22227052  0.20545901  0.33497236  1
  N  N37  1  0.10709622  0.09669140  0.08821443  1
  N  N38  1  0.88830671  0.20497272  0.82720344  1
  N  N39  1  0.77777765  0.09444468  0.56860003  1
  N  N40  1  0.58292928  0.19186845  0.34271200  1
  N  N41  1  0.44621239  0.09669138  0.08821443  1
  N  N42  1  0.22299026  0.20401955  0.83529424  1
  N  N43  1  0.11165988  0.09384470  0.58199478  1
  N  N44  1  0.87520232  0.19186846  0.34271202  1
  N  N45  1  0.77777762  0.09444478  0.07431013  1
  N  N46  1  0.55672063  0.20497271  0.82720344  1
  N  N47  1  0.44449542  0.09384470  0.58199478  1
  N  N48  1  0.22227054  0.53893648  0.33497235  1
  N  N49  1  0.11111091  0.42777818  0.08318179  1
  N  N50  1  0.88735361  0.53965627  0.83529419  1
  N  N51  1  0.77717739  0.42832721  0.58199481  1
  N  N52  1  0.55471506  0.54056990  0.33310561  1
  N  N53  1  0.44621234  0.42376362  0.08821433  1
  N  N54  1  0.22299017  0.53965626  0.83529420  1
  N  N55  1  0.11111088  0.42777824  0.58645454  1
  N  N56  1  0.88879304  0.53893648  0.33497234  1
  N  N57  1  0.78002404  0.42376363  0.08821432  1
  N  N58  1  0.55644495  0.53711013  0.83648865  1
  N  N59  1  0.44449540  0.42832719  0.58199480  1
  N  N60  1  0.22390382  0.87138108  0.33310560  1
  N  N61  1  0.10709627  0.76287965  0.08821436  1
  N  N62  1  0.88830673  0.87338659  0.82720343  1
  N  N63  1  0.77717741  0.76116274  0.58199478  1
  N  N64  1  0.55471513  0.87138108  0.33310561  1
  N  N65  1  0.44444420  0.76111159  0.08244334  1
  N  N66  1  0.22044406  0.87311097  0.83648869  1
  N  N67  1  0.11165984  0.76116274  0.58199478  1
  N  N68  1  0.87520230  0.89959543  0.34271205  1
  N  N69  1  0.78002405  0.76287965  0.08821435  1
  N  N70  1  0.55644500  0.87311097  0.83648869  1
  N  N71  1  0.44444420  0.76111157  0.58724864  1
