# generated using pymatgen
data_Al35BN36
_symmetry_space_group_name_H-M   'P 1'
_cell_length_a   9.37757487
_cell_length_b   9.37758891
_cell_length_c   9.89430587
_cell_angle_alpha   89.99999841
_cell_angle_beta   90.00000075
_cell_angle_gamma   60.00007657
_symmetry_Int_Tables_number   1
_chemical_formula_structural   Al35BN36
_chemical_formula_sum   'Al35 B1 N36'
_cell_volume   753.52563174
_cell_formula_units_Z   1
loop_
 _symmetry_equiv_pos_site_id
 _symmetry_equiv_pos_as_xyz
  1  'x, y, z'
loop_
 _atom_site_type_symbol
 _atom_site_label
 _atom_site_symmetry_multiplicity
 _atom_site_fract_x
 _atom_site_fract_y
 _atom_site_fract_z
 _atom_site_occupancy
  Al  Al0  1  0.10773313  0.09267793  0.38356301  1
  Al  Al1  1  0.22205712  0.20588563  0.13378961  1
  Al  Al2  1  0.77777758  0.09444441  0.88162273  1
  Al  Al3  1  0.88780609  0.20447206  0.62707720  1
  Al  Al4  1  0.44958877  0.09267769  0.38356307  1
  Al  Al5  1  0.56153636  0.20256485  0.13817895  1
  Al  Al6  1  0.10920688  0.09529381  0.88362125  1
  Al  Al7  1  0.22247338  0.20505323  0.63345082  1
  Al  Al8  1  0.88589909  0.20256460  0.13817897  1
  Al  Al9  1  0.44549880  0.09529395  0.88362132  1
  Al  Al10  1  0.55772211  0.20447224  0.62707728  1
  Al  Al11  1  0.11111112  0.42777797  0.38448920  1
  Al  Al12  1  0.22205725  0.53872427  0.13378959  1
  Al  Al13  1  0.77862746  0.42587337  0.88362126  1
  Al  Al14  1  0.88838685  0.53914001  0.63345084  1
  Al  Al15  1  0.44958879  0.42440022  0.38356299  1
  Al  Al16  1  0.55565966  0.53868117  0.13340560  1
  Al  Al17  1  0.11111105  0.42777805  0.88338504  1
  Al  Al18  1  0.22247336  0.53914024  0.63345077  1
  Al  Al19  1  0.77601069  0.42440042  0.38356297  1
  Al  Al20  1  0.88921872  0.53872408  0.13378957  1
  Al  Al21  1  0.44549876  0.42587363  0.88362132  1
  Al  Al22  1  0.55564369  0.53871320  0.63419440  1
  Al  Al23  1  0.10773312  0.76625559  0.38356298  1
  Al  Al24  1  0.22201511  0.87232553  0.13340563  1
  Al  Al25  1  0.77862727  0.76216604  0.88362118  1
  Al  Al26  1  0.88780584  0.87438895  0.62707708  1
  Al  Al27  1  0.44444398  0.76111156  0.38416851  1
  Al  Al28  1  0.55565977  0.87232543  0.13340561  1
  Al  Al29  1  0.10920658  0.76216613  0.88362117  1
  Al  Al30  1  0.22204695  0.87230960  0.63419420  1
  Al  Al31  1  0.77601076  0.76625552  0.38356302  1
  Al  Al32  1  0.88589892  0.87820273  0.13817903  1
  Al  Al33  1  0.44444407  0.76111148  0.88349590  1
  Al  Al34  1  0.55564389  0.87230944  0.63419432  1
  B  B35  1  0.77777742  0.09444486  0.38931300  1
  N  N36  1  0.22247565  0.20504855  0.32645612  1
  N  N37  1  0.10852408  0.09584307  0.07755874  1
  N  N38  1  0.88803316  0.20469995  0.82084686  1
  N  N39  1  0.77777771  0.09444463  0.55464096  1
  N  N40  1  0.58077299  0.19294701  0.33327674  1
  N  N41  1  0.44563278  0.09584322  0.07755885  1
  N  N42  1  0.22250824  0.20498318  0.82645728  1
  N  N43  1  0.11161532  0.09393470  0.57522119  1
  N  N44  1  0.87627975  0.19294708  0.33327668  1
  N  N45  1  0.77777789  0.09444429  0.07159066  1
  N  N46  1  0.55726663  0.20470010  0.82084698  1
  N  N47  1  0.44445008  0.09393471  0.57522133  1
  N  N48  1  0.22247577  0.53914284  0.32645608  1
  N  N49  1  0.11111119  0.42777774  0.07568579  1
  N  N50  1  0.88831605  0.53917545  0.82645732  1
  N  N51  1  0.77726874  0.42828138  0.57522117  1
  N  N52  1  0.55517242  0.53965502  0.32528876  1
  N  N53  1  0.44563295  0.42519008  0.07755887  1
  N  N54  1  0.22250835  0.53917564  0.82645725  1
  N  N55  1  0.11111136  0.42777752  0.57669749  1
  N  N56  1  0.88838147  0.53914272  0.32645607  1
  N  N57  1  0.77917723  0.42518982  0.07755880  1
  N  N58  1  0.55583776  0.53832445  0.82681156  1
  N  N59  1  0.44445008  0.42828150  0.57522125  1
  N  N60  1  0.22298770  0.87183971  0.32528878  1
  N  N61  1  0.10852395  0.76229941  0.07755870  1
  N  N62  1  0.88803301  0.87393403  0.82084675  1
  N  N63  1  0.77726871  0.76111641  0.57522118  1
  N  N64  1  0.55517239  0.87183962  0.32528877  1
  N  N65  1  0.44444474  0.76111075  0.07554211  1
  N  N66  1  0.22165745  0.87250481  0.82681131  1
  N  N67  1  0.11161515  0.76111649  0.57522111  1
  N  N68  1  0.87627968  0.89744032  0.33327666  1
  N  N69  1  0.77917708  0.76229932  0.07755873  1
  N  N70  1  0.55583766  0.87250475  0.82681143  1
  N  N71  1  0.44444470  0.76111082  0.57680782  1
