# generated using pymatgen
data_Al35BN36
_symmetry_space_group_name_H-M   'P 1'
_cell_length_a   9.34319556
_cell_length_b   9.34319607
_cell_length_c   9.98343678
_cell_angle_alpha   90.00000806
_cell_angle_beta   90.00000331
_cell_angle_gamma   60.00000166
_symmetry_Int_Tables_number   1
_chemical_formula_structural   Al35BN36
_chemical_formula_sum   'Al35 B1 N36'
_cell_volume   754.74737732
_cell_formula_units_Z   1
loop_
 _symmetry_equiv_pos_site_id
 _symmetry_equiv_pos_as_xyz
  1  'x, y, z'
loop_
 _atom_site_type_symbol
 _atom_site_label
 _atom_site_symmetry_multiplicity
 _atom_site_fract_x
 _atom_site_fract_y
 _atom_site_fract_z
 _atom_site_occupancy
  Al  Al0  1  0.10765899  0.09273717  0.30124296  1
  Al  Al1  1  0.22239641  0.20520702  0.05147034  1
  Al  Al2  1  0.77777756  0.09444434  0.80325147  1
  Al  Al3  1  0.88609111  0.20275706  0.54724900  1
  Al  Al4  1  0.44960381  0.09273671  0.30124288  1
  Al  Al5  1  0.55801811  0.20432435  0.05793189  1
  Al  Al6  1  0.10934117  0.09520011  0.80158761  1
  Al  Al7  1  0.22212278  0.20575405  0.55124152  1
  Al  Al8  1  0.88765782  0.20432414  0.05793188  1
  Al  Al9  1  0.44545832  0.09520018  0.80158755  1
  Al  Al10  1  0.56115153  0.20275734  0.54724901  1
  Al  Al11  1  0.11111154  0.42777758  0.30065737  1
  Al  Al12  1  0.22239658  0.53906348  0.05147032  1
  Al  Al13  1  0.77853420  0.42600723  0.80158758  1
  Al  Al14  1  0.88908705  0.53878980  0.55124162  1
  Al  Al15  1  0.44960392  0.42432640  0.30124297  1
  Al  Al16  1  0.55557632  0.53884791  0.05088279  1
  Al  Al17  1  0.11111151  0.42777755  0.80134263  1
  Al  Al18  1  0.22212306  0.53879007  0.55124160  1
  Al  Al19  1  0.77606955  0.42432669  0.30124297  1
  Al  Al20  1  0.88854034  0.53906320  0.05147024  1
  Al  Al21  1  0.44545836  0.42600749  0.80158752  1
  Al  Al22  1  0.55569825  0.53860401  0.55149815  1
  Al  Al23  1  0.10765933  0.76627024  0.30124290  1
  Al  Al24  1  0.22218134  0.87224257  0.05088310  1
  Al  Al25  1  0.77853396  0.76212514  0.80158769  1
  Al  Al26  1  0.88609100  0.87781830  0.54724887  1
  Al  Al27  1  0.44444374  0.76111190  0.30105044  1
  Al  Al28  1  0.55557640  0.87224233  0.05088292  1
  Al  Al29  1  0.10934085  0.76212534  0.80158768  1
  Al  Al30  1  0.22193749  0.87236445  0.55149797  1
  Al  Al31  1  0.77606985  0.76627006  0.30124280  1
  Al  Al32  1  0.88765762  0.87468529  0.05793196  1
  Al  Al33  1  0.44444423  0.76111132  0.80125216  1
  Al  Al34  1  0.55569831  0.87236419  0.55149802  1
  B  B35  1  0.77777756  0.09444464  0.29760229  1
  N  N36  1  0.22251988  0.20496027  0.35997319  1
  N  N37  1  0.11160634  0.09395918  0.11104250  1
  N  N38  1  0.88802010  0.20468633  0.86542746  1
  N  N39  1  0.77777771  0.09444436  0.61446085  1
  N  N40  1  0.58058021  0.19304332  0.35335721  1
  N  N41  1  0.44443458  0.09395909  0.11104233  1
  N  N42  1  0.22243311  0.20513353  0.85998542  1
  N  N43  1  0.10870919  0.09572856  0.60911625  1
  N  N44  1  0.87637614  0.19304353  0.35335727  1
  N  N45  1  0.77777769  0.09444470  0.13227874  1
  N  N46  1  0.55729320  0.20468653  0.86542739  1
  N  N47  1  0.44556208  0.09572856  0.60911613  1
  N  N48  1  0.22252000  0.53918654  0.35997326  1
  N  N49  1  0.11111124  0.42777790  0.10991906  1
  N  N50  1  0.88846722  0.53909970  0.85998530  1
  N  N51  1  0.77906240  0.42537539  0.60911621  1
  N  N52  1  0.55525192  0.53949610  0.36107107  1
  N  N53  1  0.44443458  0.42827309  0.11104241  1
  N  N54  1  0.22243313  0.53910002  0.85998539  1
  N  N55  1  0.11111113  0.42777795  0.61053084  1
  N  N56  1  0.88829381  0.53918637  0.35997321  1
  N  N57  1  0.77729271  0.42827294  0.11104246  1
  N  N58  1  0.55574151  0.53851705  0.85975182  1
  N  N59  1  0.44556225  0.42537568  0.60911610  1
  N  N60  1  0.22282823  0.87191928  0.36107095  1
  N  N61  1  0.11160624  0.76110129  0.11104247  1
  N  N62  1  0.88801997  0.87396011  0.86542752  1
  N  N63  1  0.77906228  0.76222883  0.60911627  1
  N  N64  1  0.55525217  0.87191902  0.36107098  1
  N  N65  1  0.44444450  0.76111114  0.10990735  1
  N  N66  1  0.22185044  0.87240800  0.85975217  1
  N  N67  1  0.10870905  0.76222904  0.60911628  1
  N  N68  1  0.87637627  0.89724695  0.35335718  1
  N  N69  1  0.77729279  0.76110118  0.11104233  1
  N  N70  1  0.55574155  0.87240790  0.85975202  1
  N  N71  1  0.44444447  0.76111111  0.61063532  1
