# generated using pymatgen
data_Al35BN36
_symmetry_space_group_name_H-M   'P 1'
_cell_length_a   9.85569942
_cell_length_b   9.85570347
_cell_length_c   8.45013444
_cell_angle_alpha   89.99999791
_cell_angle_beta   90.00000016
_cell_angle_gamma   60.00002224
_symmetry_Int_Tables_number   1
_chemical_formula_structural   Al35BN36
_chemical_formula_sum   'Al35 B1 N36'
_cell_volume   710.83601826
_cell_formula_units_Z   1
loop_
 _symmetry_equiv_pos_site_id
 _symmetry_equiv_pos_as_xyz
  1  'x, y, z'
loop_
 _atom_site_type_symbol
 _atom_site_label
 _atom_site_symmetry_multiplicity
 _atom_site_fract_x
 _atom_site_fract_y
 _atom_site_fract_z
 _atom_site_occupancy
  Al  Al0  1  0.10596481  0.09281226  0.35385835  1
  Al  Al1  1  0.22248280  0.20503448  0.10751397  1
  Al  Al2  1  0.77777778  0.09444443  0.85359244  1
  Al  Al3  1  0.88424853  0.20091523  0.59920540  1
  Al  Al4  1  0.45122295  0.09281225  0.35385834  1
  Al  Al5  1  0.55640308  0.20513183  0.10139034  1
  Al  Al6  1  0.10998334  0.09564447  0.85319368  1
  Al  Al7  1  0.22227636  0.20544734  0.60113482  1
  Al  Al8  1  0.88846513  0.20513184  0.10139036  1
  Al  Al9  1  0.44437219  0.09564443  0.85319369  1
  Al  Al10  1  0.56483626  0.20091520  0.59920544  1
  Al  Al11  1  0.11111114  0.42777778  0.35477385  1
  Al  Al12  1  0.22248281  0.53914952  0.10751398  1
  Al  Al13  1  0.77897781  0.42664997  0.85319369  1
  Al  Al14  1  0.88878063  0.53894307  0.60113484  1
  Al  Al15  1  0.45122296  0.42263142  0.35385835  1
  Al  Al16  1  0.55562062  0.53875883  0.10536322  1
  Al  Al17  1  0.11111112  0.42777777  0.85426995  1
  Al  Al18  1  0.22227639  0.53894309  0.60113482  1
  Al  Al19  1  0.77614563  0.42263148  0.35385835  1
  Al  Al20  1  0.88836778  0.53914950  0.10751396  1
  Al  Al21  1  0.44437222  0.42664997  0.85319368  1
  Al  Al22  1  0.55600851  0.53798306  0.60310051  1
  Al  Al23  1  0.10596478  0.76788962  0.35385835  1
  Al  Al24  1  0.22209213  0.87228733  0.10536320  1
  Al  Al25  1  0.77897780  0.76103885  0.85319369  1
  Al  Al26  1  0.88424849  0.88150298  0.59920542  1
  Al  Al27  1  0.44444444  0.76111108  0.35488736  1
  Al  Al28  1  0.55562058  0.87228730  0.10536321  1
  Al  Al29  1  0.10998331  0.76103885  0.85319368  1
  Al  Al30  1  0.22131634  0.87267521  0.60310052  1
  Al  Al31  1  0.77614559  0.76788957  0.35385834  1
  Al  Al32  1  0.88846511  0.87306979  0.10139036  1
  Al  Al33  1  0.44444443  0.76111108  0.85408347  1
  Al  Al34  1  0.55600848  0.87267517  0.60310051  1
  B  B35  1  0.77777777  0.09444447  0.31419066  1
  N  N36  1  0.22252224  0.20495561  0.35567361  1
  N  N37  1  0.11035332  0.09475771  0.10974178  1
  N  N38  1  0.88986755  0.20653427  0.86274530  1
  N  N39  1  0.77777779  0.09444441  0.63132920  1
  N  N40  1  0.58710276  0.18978199  0.35455002  1
  N  N41  1  0.44488904  0.09475767  0.10974177  1
  N  N42  1  0.22284381  0.20431239  0.85508608  1
  N  N43  1  0.10775846  0.09623817  0.60214435  1
  N  N44  1  0.87311528  0.18978199  0.35455001  1
  N  N45  1  0.77777780  0.09444444  0.11278591  1
  N  N46  1  0.55359817  0.20653427  0.86274526  1
  N  N47  1  0.44600340  0.09623809  0.60214437  1
  N  N48  1  0.22252224  0.53918896  0.35567360  1
  N  N49  1  0.11111115  0.42777778  0.10480624  1
  N  N50  1  0.88764566  0.53951054  0.85508606  1
  N  N51  1  0.77957154  0.42442508  0.60214434  1
  N  N52  1  0.55496352  0.54007298  0.35591216  1
  N  N53  1  0.44488906  0.42701992  0.10974176  1
  N  N54  1  0.22284382  0.53951054  0.85508607  1
  N  N55  1  0.11111116  0.42777778  0.60563578  1
  N  N56  1  0.88828888  0.53918897  0.35567361  1
  N  N57  1  0.77809108  0.42701995  0.10974177  1
  N  N58  1  0.55627834  0.53744334  0.85496598  1
  N  N59  1  0.44600344  0.42442508  0.60214435  1
  N  N60  1  0.22340627  0.87163025  0.35591217  1
  N  N61  1  0.11035331  0.76155569  0.10974176  1
  N  N62  1  0.88986753  0.87026491  0.86274528  1
  N  N63  1  0.77957146  0.76267003  0.60214436  1
  N  N64  1  0.55496348  0.87163021  0.35591215  1
  N  N65  1  0.44444446  0.76111108  0.10381521  1
  N  N66  1  0.22077661  0.87294507  0.85496598  1
  N  N67  1  0.10775845  0.76267007  0.60214436  1
  N  N68  1  0.87311528  0.90376947  0.35455001  1
  N  N69  1  0.77809104  0.76155566  0.10974177  1
  N  N70  1  0.55627831  0.87294503  0.85496600  1
  N  N71  1  0.44444445  0.76111108  0.60664745  1
