# generated using pymatgen
data_Al35BN36
_symmetry_space_group_name_H-M   'P 1'
_cell_length_a   9.57574277
_cell_length_b   9.57585298
_cell_length_c   9.32891783
_cell_angle_alpha   90.00000199
_cell_angle_beta   89.99999561
_cell_angle_gamma   60.00040545
_symmetry_Int_Tables_number   1
_chemical_formula_structural   Al35BN36
_chemical_formula_sum   'Al35 B1 N36'
_cell_volume   740.82156324
_cell_formula_units_Z   1
loop_
 _symmetry_equiv_pos_site_id
 _symmetry_equiv_pos_as_xyz
  1  'x, y, z'
loop_
 _atom_site_type_symbol
 _atom_site_label
 _atom_site_symmetry_multiplicity
 _atom_site_fract_x
 _atom_site_fract_y
 _atom_site_fract_z
 _atom_site_occupancy
  Al  Al0  1  0.10813806  0.09231623  0.33313637  1
  Al  Al1  1  0.22286523  0.20426959  0.08253726  1
  Al  Al2  1  0.77777766  0.09444472  0.83495999  1
  Al  Al3  1  0.88474808  0.20141423  0.57476063  1
  Al  Al4  1  0.44954572  0.09231623  0.33313637  1
  Al  Al5  1  0.55622611  0.20521982  0.08878047  1
  Al  Al6  1  0.10831902  0.09592596  0.83066428  1
  Al  Al7  1  0.22176151  0.20647703  0.58136815  1
  Al  Al8  1  0.88855416  0.20521984  0.08878048  1
  Al  Al9  1  0.44575501  0.09592595  0.83066429  1
  Al  Al10  1  0.56383781  0.20141417  0.57476064  1
  Al  Al11  1  0.11111079  0.42777839  0.33024632  1
  Al  Al12  1  0.22286514  0.53953135  0.08253722  1
  Al  Al13  1  0.77925888  0.42498635  0.83066426  1
  Al  Al14  1  0.88981082  0.53842802  0.58136814  1
  Al  Al15  1  0.44954592  0.42480447  0.33313677  1
  Al  Al16  1  0.55598491  0.53803024  0.08080379  1
  Al  Al17  1  0.11111083  0.42777828  0.83331696  1
  Al  Al18  1  0.22176122  0.53842801  0.58136812  1
  Al  Al19  1  0.77564960  0.42480451  0.33313676  1
  Al  Al20  1  0.88760356  0.53953135  0.08253719  1
  Al  Al21  1  0.44575476  0.42498634  0.83066425  1
  Al  Al22  1  0.55549986  0.53900037  0.58264150  1
  Al  Al23  1  0.10813786  0.76621251  0.33313678  1
  Al  Al24  1  0.22136397  0.87265087  0.08080384  1
  Al  Al25  1  0.77925890  0.76242209  0.83066411  1
  Al  Al26  1  0.88474861  0.88050278  0.57475986  1
  Al  Al27  1  0.44444400  0.76111194  0.33024616  1
  Al  Al28  1  0.55598522  0.87265086  0.08080384  1
  Al  Al29  1  0.10831900  0.76242208  0.83066409  1
  Al  Al30  1  0.22233409  0.87216597  0.58264145  1
  Al  Al31  1  0.77564962  0.76621250  0.33313676  1
  Al  Al32  1  0.88855401  0.87289205  0.08878065  1
  Al  Al33  1  0.44444421  0.76111154  0.83317289  1
  Al  Al34  1  0.55550000  0.87216594  0.58264143  1
  B  B35  1  0.77777769  0.09444470  0.31445067  1
  N  N36  1  0.22228360  0.20543291  0.37716667  1
  N  N37  1  0.11172139  0.09381201  0.12965161  1
  N  N38  1  0.88821435  0.20488105  0.88429678  1
  N  N39  1  0.77777731  0.09444535  0.63580300  1
  N  N40  1  0.58230712  0.19218050  0.36938463  1
  N  N41  1  0.44446659  0.09381202  0.12965161  1
  N  N42  1  0.22289732  0.20420546  0.87692490  1
  N  N43  1  0.10741098  0.09651695  0.62445083  1
  N  N44  1  0.87551244  0.19218054  0.36938461  1
  N  N45  1  0.77777757  0.09444485  0.14501977  1
  N  N46  1  0.55690469  0.20488103  0.88429677  1
  N  N47  1  0.44607206  0.09651692  0.62445083  1
  N  N48  1  0.22228348  0.53895071  0.37716649  1
  N  N49  1  0.11111117  0.42777764  0.12587161  1
  N  N50  1  0.88753863  0.53956394  0.87692491  1
  N  N51  1  0.77985047  0.42407711  0.62445061  1
  N  N52  1  0.55477707  0.54044589  0.37889467  1
  N  N53  1  0.44446665  0.42838822  0.12965171  1
  N  N54  1  0.22289752  0.53956392  0.87692492  1
  N  N55  1  0.11111104  0.42777791  0.62885574  1
  N  N56  1  0.88876589  0.53895072  0.37716650  1
  N  N57  1  0.77714507  0.42838825  0.12965170  1
  N  N58  1  0.55633629  0.53732744  0.87587774  1
  N  N59  1  0.44607240  0.42407709  0.62445059  1
  N  N60  1  0.22377997  0.87144324  0.37889463  1
  N  N61  1  0.11172153  0.76113346  0.12965159  1
  N  N62  1  0.88821430  0.87357146  0.88429689  1
  N  N63  1  0.77985026  0.76273874  0.62445080  1
  N  N64  1  0.55477683  0.87144325  0.37889461  1
  N  N65  1  0.44444443  0.76111108  0.12523155  1
  N  N66  1  0.22066087  0.87300309  0.87587780  1
  N  N67  1  0.10741094  0.76273873  0.62445078  1
  N  N68  1  0.87551276  0.89897450  0.36938507  1
  N  N69  1  0.77714496  0.76113347  0.12965158  1
  N  N70  1  0.55633608  0.87300310  0.87587781  1
  N  N71  1  0.44444438  0.76111118  0.62940441  1
