# generated using pymatgen
data_Al35BN36
_symmetry_space_group_name_H-M   'P 1'
_cell_length_a   9.34320511
_cell_length_b   9.34320562
_cell_length_c   9.98342893
_cell_angle_alpha   89.99999275
_cell_angle_beta   89.99999764
_cell_angle_gamma   60.00000210
_symmetry_Int_Tables_number   1
_chemical_formula_structural   Al35BN36
_chemical_formula_sum   'Al35 B1 N36'
_cell_volume   754.74833065
_cell_formula_units_Z   1
loop_
 _symmetry_equiv_pos_site_id
 _symmetry_equiv_pos_as_xyz
  1  'x, y, z'
loop_
 _atom_site_type_symbol
 _atom_site_label
 _atom_site_symmetry_multiplicity
 _atom_site_fract_x
 _atom_site_fract_y
 _atom_site_fract_z
 _atom_site_occupancy
  Al  Al0  1  0.10765954  0.09273691  0.40960929  1
  Al  Al1  1  0.22212274  0.20575418  0.15960919  1
  Al  Al2  1  0.77777760  0.09444440  0.90760975  1
  Al  Al3  1  0.88765787  0.20432425  0.65292529  1
  Al  Al4  1  0.44960350  0.09273646  0.40960934  1
  Al  Al5  1  0.56115134  0.20275745  0.16361124  1
  Al  Al6  1  0.10934110  0.09520034  0.90926484  1
  Al  Al7  1  0.22239658  0.20520674  0.65938010  1
  Al  Al8  1  0.88609123  0.20275715  0.16361121  1
  Al  Al9  1  0.44545828  0.09520043  0.90926492  1
  Al  Al10  1  0.55801796  0.20432444  0.65292526  1
  Al  Al11  1  0.11111152  0.42777758  0.41019340  1
  Al  Al12  1  0.22212303  0.53879003  0.15960913  1
  Al  Al13  1  0.77853438  0.42600721  0.90926490  1
  Al  Al14  1  0.88854005  0.53906336  0.65938022  1
  Al  Al15  1  0.44960357  0.42432700  0.40960928  1
  Al  Al16  1  0.55569818  0.53860414  0.15935204  1
  Al  Al17  1  0.11111154  0.42777760  0.90950712  1
  Al  Al18  1  0.22239674  0.53906362  0.65938013  1
  Al  Al19  1  0.77606925  0.42432729  0.40960928  1
  Al  Al20  1  0.88908715  0.53878975  0.15960911  1
  Al  Al21  1  0.44545830  0.42600743  0.90926497  1
  Al  Al22  1  0.55557629  0.53884793  0.65996829  1
  Al  Al23  1  0.10765988  0.76626994  0.40960935  1
  Al  Al24  1  0.22193764  0.87236440  0.15935219  1
  Al  Al25  1  0.77853416  0.76212513  0.90926476  1
  Al  Al26  1  0.88765767  0.87468518  0.65292516  1
  Al  Al27  1  0.44444374  0.76111191  0.40979927  1
  Al  Al28  1  0.55569826  0.87236416  0.15935211  1
  Al  Al29  1  0.10934077  0.76212530  0.90926475  1
  Al  Al30  1  0.22218137  0.87224256  0.65996792  1
  Al  Al31  1  0.77606959  0.76626977  0.40960941  1
  Al  Al32  1  0.88609113  0.87781810  0.16361132  1
  Al  Al33  1  0.44444426  0.76111136  0.90959738  1
  Al  Al34  1  0.55557639  0.87224232  0.65996810  1
  B  B35  1  0.77777754  0.09444465  0.41325848  1
  N  N36  1  0.22251988  0.20496028  0.35087937  1
  N  N37  1  0.10870818  0.09572915  0.10173806  1
  N  N38  1  0.88801952  0.20468580  0.84542980  1
  N  N39  1  0.77777767  0.09444471  0.57858005  1
  N  N40  1  0.58058026  0.19304331  0.35750180  1
  N  N41  1  0.44556255  0.09572918  0.10173816  1
  N  N42  1  0.22243334  0.20513323  0.85086681  1
  N  N43  1  0.11160580  0.09395932  0.59981093  1
  N  N44  1  0.87637611  0.19304353  0.35750168  1
  N  N45  1  0.77777769  0.09444435  0.09640056  1
  N  N46  1  0.55729450  0.20468598  0.84542982  1
  N  N47  1  0.44443500  0.09395922  0.59981104  1
  N  N48  1  0.22252000  0.53918657  0.35087934  1
  N  N49  1  0.11111115  0.42777801  0.10032063  1
  N  N50  1  0.88846689  0.53909995  0.85086695  1
  N  N51  1  0.77729280  0.42827244  0.59981097  1
  N  N52  1  0.55525194  0.53949593  0.34978076  1
  N  N53  1  0.44556272  0.42537465  0.10173819  1
  N  N54  1  0.22243334  0.53910023  0.85086687  1
  N  N55  1  0.11111124  0.42777791  0.60093304  1
  N  N56  1  0.88829379  0.53918641  0.35087936  1
  N  N57  1  0.77906296  0.42537437  0.10173812  1
  N  N58  1  0.55574174  0.53851664  0.85110094  1
  N  N59  1  0.44443497  0.42827255  0.59981098  1
  N  N60  1  0.22282804  0.87191935  0.34978087  1
  N  N61  1  0.10870804  0.76222950  0.10173799  1
  N  N62  1  0.88801938  0.87396144  0.84542967  1
  N  N63  1  0.77729291  0.76110159  0.59981103  1
  N  N64  1  0.55525227  0.87191913  0.34978077  1
  N  N65  1  0.44444450  0.76111111  0.10021562  1
  N  N66  1  0.22185002  0.87240826  0.85110054  1
  N  N67  1  0.11160569  0.76110169  0.59981093  1
  N  N68  1  0.87637624  0.89724702  0.35750179  1
  N  N69  1  0.77906287  0.76222931  0.10173803  1
  N  N70  1  0.55574181  0.87240819  0.85110070  1
  N  N71  1  0.44444450  0.76111112  0.60094423  1
