# generated using pymatgen
data_Al35BN36
_symmetry_space_group_name_H-M   'P 1'
_cell_length_a   9.34363866
_cell_length_b   9.34365673
_cell_length_c   9.98233511
_cell_angle_alpha   90.00000514
_cell_angle_beta   89.99999571
_cell_angle_gamma   60.00002060
_symmetry_Int_Tables_number   1
_chemical_formula_structural   Al35BN36
_chemical_formula_sum   'Al35 B1 N36'
_cell_volume   754.73723626
_cell_formula_units_Z   1
loop_
 _symmetry_equiv_pos_site_id
 _symmetry_equiv_pos_as_xyz
  1  'x, y, z'
loop_
 _atom_site_type_symbol
 _atom_site_label
 _atom_site_symmetry_multiplicity
 _atom_site_fract_x
 _atom_site_fract_y
 _atom_site_fract_z
 _atom_site_occupancy
  Al  Al0  1  0.10765990  0.09273604  0.38718422  1
  Al  Al1  1  0.22212184  0.20575578  0.13718779  1
  Al  Al2  1  0.77777768  0.09444423  0.88517838  1
  Al  Al3  1  0.88765946  0.20432598  0.63050353  1
  Al  Al4  1  0.44960426  0.09273554  0.38718429  1
  Al  Al5  1  0.56115618  0.20275499  0.14118764  1
  Al  Al6  1  0.10934036  0.09520113  0.88684438  1
  Al  Al7  1  0.22239729  0.20520520  0.63695674  1
  Al  Al8  1  0.88608859  0.20275472  0.14118768  1
  Al  Al9  1  0.44545833  0.09520117  0.88684442  1
  Al  Al10  1  0.55801456  0.20432614  0.63050347  1
  Al  Al11  1  0.11111168  0.42777760  0.38777355  1
  Al  Al12  1  0.22212212  0.53878943  0.13718770  1
  Al  Al13  1  0.77853546  0.42600621  0.88684439  1
  Al  Al14  1  0.88853826  0.53906435  0.63695686  1
  Al  Al15  1  0.44960432  0.42432716  0.38718418  1
  Al  Al16  1  0.55569772  0.53860484  0.13692823  1
  Al  Al17  1  0.11111166  0.42777754  0.88708237  1
  Al  Al18  1  0.22239746  0.53906461  0.63695676  1
  Al  Al19  1  0.77606864  0.42432746  0.38718422  1
  Al  Al20  1  0.88908845  0.53878917  0.13718773  1
  Al  Al21  1  0.44545834  0.42600642  0.88684442  1
  Al  Al22  1  0.55557691  0.53884657  0.63754774  1
  Al  Al23  1  0.10766018  0.76627052  0.38718422  1
  Al  Al24  1  0.22193808  0.87236416  0.13692840  1
  Al  Al25  1  0.77853515  0.76212498  0.88684431  1
  Al  Al26  1  0.88765921  0.87468192  0.63050338  1
  Al  Al27  1  0.44444386  0.76111182  0.38738009  1
  Al  Al28  1  0.55569773  0.87236387  0.13692834  1
  Al  Al29  1  0.10933993  0.76212518  0.88684430  1
  Al  Al30  1  0.22217978  0.87224336  0.63754742  1
  Al  Al31  1  0.77606891  0.76627031  0.38718431  1
  Al  Al32  1  0.88608842  0.87782317  0.14118780  1
  Al  Al33  1  0.44444435  0.76111123  0.88717337  1
  Al  Al34  1  0.55557701  0.87224309  0.63754757  1
  B  B35  1  0.77777749  0.09444476  0.39085509  1
  N  N36  1  0.22251925  0.20496150  0.32847529  1
  N  N37  1  0.10870698  0.09573006  0.07933504  1
  N  N38  1  0.88801991  0.20468648  0.82302273  1
  N  N39  1  0.77777789  0.09444457  0.55617883  1
  N  N40  1  0.58058234  0.19304238  0.33509484  1
  N  N41  1  0.44556299  0.09572998  0.07933511  1
  N  N42  1  0.22243380  0.20513206  0.82846235  1
  N  N43  1  0.11160593  0.09395885  0.57740505  1
  N  N44  1  0.87637495  0.19304259  0.33509478  1
  N  N45  1  0.77777787  0.09444419  0.07398538  1
  N  N46  1  0.55729309  0.20468665  0.82302273  1
  N  N47  1  0.44443559  0.09395874  0.57740517  1
  N  N48  1  0.22251942  0.53918627  0.32847519  1
  N  N49  1  0.11111130  0.42777780  0.07791453  1
  N  N50  1  0.88846537  0.53910075  0.82846248  1
  N  N51  1  0.77729280  0.42827208  0.57740509  1
  N  N52  1  0.55525105  0.53949774  0.32737561  1
  N  N53  1  0.44556323  0.42537299  0.07933511  1
  N  N54  1  0.22243384  0.53910108  0.82846236  1
  N  N55  1  0.11111148  0.42777774  0.57853135  1
  N  N56  1  0.88829465  0.53918611  0.32847526  1
  N  N57  1  0.77906427  0.42537275  0.07933508  1
  N  N58  1  0.55574248  0.53851493  0.82869855  1
  N  N59  1  0.44443562  0.42827219  0.57740509  1
  N  N60  1  0.22282958  0.87191876  0.32737573  1
  N  N61  1  0.10870673  0.76222965  0.07933496  1
  N  N62  1  0.88801971  0.87396040  0.82302260  1
  N  N63  1  0.77729283  0.76110179  0.57740513  1
  N  N64  1  0.55525119  0.87191847  0.32737568  1
  N  N65  1  0.44444462  0.76111085  0.07780904  1
  N  N66  1  0.22184803  0.87240929  0.82869821  1
  N  N67  1  0.11160578  0.76110191  0.57740502  1
  N  N68  1  0.87637506  0.89724933  0.33509482  1
  N  N69  1  0.77906402  0.76222942  0.07933501  1
  N  N70  1  0.55574246  0.87240919  0.82869832  1
  N  N71  1  0.44444471  0.76111088  0.57854381  1
