# generated using pymatgen
data_Al35BN36
_symmetry_space_group_name_H-M   'P 1'
_cell_length_a   9.78622565
_cell_length_b   9.78622421
_cell_length_c   8.66825035
_cell_angle_alpha   89.99999998
_cell_angle_beta   89.99999991
_cell_angle_gamma   60.00000492
_symmetry_Int_Tables_number   1
_chemical_formula_structural   Al35BN36
_chemical_formula_sum   'Al35 B1 N36'
_cell_volume   718.93973224
_cell_formula_units_Z   1
loop_
 _symmetry_equiv_pos_site_id
 _symmetry_equiv_pos_as_xyz
  1  'x, y, z'
loop_
 _atom_site_type_symbol
 _atom_site_label
 _atom_site_symmetry_multiplicity
 _atom_site_fract_x
 _atom_site_fract_y
 _atom_site_fract_z
 _atom_site_occupancy
  Al  Al0  1  0.10756921  0.09247492  0.36277294  1
  Al  Al1  1  0.22194750  0.20610507  0.11513865  1
  Al  Al2  1  0.77777778  0.09444447  0.86247811  1
  Al  Al3  1  0.88890864  0.20557531  0.61086044  1
  Al  Al4  1  0.44995584  0.09247494  0.36277294  1
  Al  Al5  1  0.56576863  0.20044903  0.12394244  1
  Al  Al6  1  0.10830378  0.09612638  0.86569758  1
  Al  Al7  1  0.22283660  0.20432685  0.61128611  1
  Al  Al8  1  0.88378239  0.20044906  0.12394243  1
  Al  Al9  1  0.44556989  0.09612636  0.86569758  1
  Al  Al10  1  0.55551608  0.20557530  0.61086045  1
  Al  Al11  1  0.11111112  0.42777779  0.36382306  1
  Al  Al12  1  0.22194750  0.53861416  0.11513864  1
  Al  Al13  1  0.77945968  0.42497047  0.86569757  1
  Al  Al14  1  0.88766018  0.53950326  0.61128611  1
  Al  Al15  1  0.44995588  0.42423587  0.36277294  1
  Al  Al16  1  0.55577763  0.53844478  0.11351153  1
  Al  Al17  1  0.11111111  0.42777779  0.86221457  1
  Al  Al18  1  0.22283660  0.53950326  0.61128610  1
  Al  Al19  1  0.77580823  0.42423590  0.36277294  1
  Al  Al20  1  0.88943841  0.53861416  0.11513865  1
  Al  Al21  1  0.44556988  0.42497044  0.86569757  1
  Al  Al22  1  0.55588927  0.53822149  0.61387106  1
  Al  Al23  1  0.10756919  0.76662256  0.36277293  1
  Al  Al24  1  0.22177811  0.87244430  0.11351153  1
  Al  Al25  1  0.77945967  0.76223657  0.86569758  1
  Al  Al26  1  0.88890863  0.87218274  0.61086046  1
  Al  Al27  1  0.44444443  0.76111112  0.36410736  1
  Al  Al28  1  0.55577761  0.87244428  0.11351154  1
  Al  Al29  1  0.10830376  0.76223656  0.86569758  1
  Al  Al30  1  0.22155482  0.87255594  0.61387107  1
  Al  Al31  1  0.77580825  0.76662253  0.36277294  1
  Al  Al32  1  0.88378235  0.88243530  0.12394244  1
  Al  Al33  1  0.44444443  0.76111112  0.86273165  1
  Al  Al34  1  0.55588926  0.87255593  0.61387105  1
  B  B35  1  0.77777779  0.09444444  0.39990062  1
  N  N36  1  0.22240890  0.20518223  0.34525947  1
  N  N37  1  0.10674889  0.09682519  0.09892081  1
  N  N38  1  0.88866010  0.20532676  0.83554335  1
  N  N39  1  0.77777778  0.09444445  0.58137338  1
  N  N40  1  0.58454444  0.19106113  0.35028127  1
  N  N41  1  0.44642595  0.09682516  0.09892080  1
  N  N42  1  0.22302643  0.20394720  0.84590800  1
  N  N43  1  0.11121442  0.09418003  0.59112832  1
  N  N44  1  0.87439447  0.19106112  0.35028128  1
  N  N45  1  0.77777779  0.09444448  0.07666379  1
  N  N46  1  0.55601320  0.20532674  0.83554336  1
  N  N47  1  0.44460556  0.09418002  0.59112832  1
  N  N48  1  0.22240891  0.53907557  0.34525948  1
  N  N49  1  0.11111111  0.42777781  0.09449949  1
  N  N50  1  0.88728054  0.53969309  0.84590798  1
  N  N51  1  0.77751333  0.42788112  0.59112832  1
  N  N52  1  0.55481582  0.54036837  0.34370861  1
  N  N53  1  0.44642595  0.42341558  0.09892079  1
  N  N54  1  0.22302641  0.53969308  0.84590800  1
  N  N55  1  0.11111111  0.42777781  0.59663260  1
  N  N56  1  0.88851557  0.53907556  0.34525947  1
  N  N57  1  0.78015850  0.42341560  0.09892080  1
  N  N58  1  0.55647317  0.53705371  0.84671883  1
  N  N59  1  0.44460557  0.42788110  0.59112833  1
  N  N60  1  0.22370170  0.87148248  0.34370861  1
  N  N61  1  0.10674889  0.76309264  0.09892081  1
  N  N62  1  0.88866008  0.87267985  0.83554336  1
  N  N63  1  0.77751333  0.76127226  0.59112832  1
  N  N64  1  0.55481583  0.87148248  0.34370862  1
  N  N65  1  0.44444443  0.76111113  0.09321802  1
  N  N66  1  0.22038704  0.87313983  0.84671884  1
  N  N67  1  0.11121440  0.76127227  0.59112833  1
  N  N68  1  0.87439446  0.90121110  0.35028128  1
  N  N69  1  0.78015847  0.76309264  0.09892081  1
  N  N70  1  0.55647316  0.87313981  0.84671884  1
  N  N71  1  0.44444443  0.76111113  0.59753927  1
