# generated using pymatgen
data_Al35BN36
_symmetry_space_group_name_H-M   'P 1'
_cell_length_a   9.34321458
_cell_length_b   9.34321801
_cell_length_c   9.98344861
_cell_angle_alpha   89.99992411
_cell_angle_beta   90.00000942
_cell_angle_gamma   59.99946524
_symmetry_Int_Tables_number   1
_chemical_formula_structural   Al35BN36
_chemical_formula_sum   'Al35 B1 N36'
_cell_volume   754.74750142
_cell_formula_units_Z   1
loop_
 _symmetry_equiv_pos_site_id
 _symmetry_equiv_pos_as_xyz
  1  'x, y, z'
loop_
 _atom_site_type_symbol
 _atom_site_label
 _atom_site_symmetry_multiplicity
 _atom_site_fract_x
 _atom_site_fract_y
 _atom_site_fract_z
 _atom_site_occupancy
  Al  Al0  1  0.10765930  0.09273715  0.31683577  1
  Al  Al1  1  0.22239608  0.20520717  0.06706404  1
  Al  Al2  1  0.77777746  0.09444435  0.81883980  1
  Al  Al3  1  0.88609130  0.20275721  0.56283816  1
  Al  Al4  1  0.44960326  0.09273695  0.31683560  1
  Al  Al5  1  0.55801789  0.20432446  0.07352339  1
  Al  Al6  1  0.10934098  0.09520013  0.81718100  1
  Al  Al7  1  0.22212272  0.20575399  0.56683553  1
  Al  Al8  1  0.88765754  0.20432400  0.07352353  1
  Al  Al9  1  0.44545831  0.09520036  0.81718090  1
  Al  Al10  1  0.56115107  0.20275778  0.56283810  1
  Al  Al11  1  0.11111145  0.42777764  0.31625156  1
  Al  Al12  1  0.22239641  0.53906351  0.06706395  1
  Al  Al13  1  0.77853412  0.42600713  0.81718100  1
  Al  Al14  1  0.88908691  0.53878976  0.56683563  1
  Al  Al15  1  0.44960357  0.42432709  0.31683556  1
  Al  Al16  1  0.55557614  0.53884817  0.06647681  1
  Al  Al17  1  0.11111143  0.42777763  0.81693672  1
  Al  Al18  1  0.22212306  0.53879010  0.56683563  1
  Al  Al19  1  0.77606951  0.42432699  0.31683577  1
  Al  Al20  1  0.88854034  0.53906304  0.06706395  1
  Al  Al21  1  0.44545837  0.42600760  0.81718094  1
  Al  Al22  1  0.55569821  0.53860408  0.56709193  1
  Al  Al23  1  0.10765998  0.76626999  0.31683551  1
  Al  Al24  1  0.22218152  0.87224252  0.06647713  1
  Al  Al25  1  0.77853401  0.76212526  0.81718102  1
  Al  Al26  1  0.88609141  0.87781791  0.56283797  1
  Al  Al27  1  0.44444395  0.76111207  0.31664490  1
  Al  Al28  1  0.55557629  0.87224233  0.06647700  1
  Al  Al29  1  0.10934086  0.76212547  0.81718107  1
  Al  Al30  1  0.22193763  0.87236441  0.56709176  1
  Al  Al31  1  0.77607002  0.76626961  0.31683554  1
  Al  Al32  1  0.88765755  0.87468526  0.07352343  1
  Al  Al33  1  0.44444434  0.76111146  0.81684660  1
  Al  Al34  1  0.55569841  0.87236432  0.56709179  1
  B  B35  1  0.77777726  0.09444427  0.31319165  1
  N  N36  1  0.22251937  0.20495979  0.37556663  1
  N  N37  1  0.11160656  0.09395967  0.12663532  1
  N  N38  1  0.88801918  0.20468541  0.88101908  1
  N  N39  1  0.77777822  0.09444471  0.63004938  1
  N  N40  1  0.58057958  0.19304326  0.36894684  1
  N  N41  1  0.44443488  0.09395973  0.12663508  1
  N  N42  1  0.22243256  0.20513302  0.87557887  1
  N  N43  1  0.10870927  0.09572906  0.62470890  1
  N  N44  1  0.87637591  0.19304320  0.36894717  1
  N  N45  1  0.77777791  0.09444493  0.14786925  1
  N  N46  1  0.55729329  0.20468584  0.88101892  1
  N  N47  1  0.44556285  0.09572926  0.62470873  1
  N  N48  1  0.22251957  0.53918615  0.37556665  1
  N  N49  1  0.11111171  0.42777835  0.12551293  1
  N  N50  1  0.88846661  0.53909923  0.87557876  1
  N  N51  1  0.77906308  0.42537525  0.62470890  1
  N  N52  1  0.55525155  0.53949553  0.37666443  1
  N  N53  1  0.44443499  0.42827352  0.12663505  1
  N  N54  1  0.22243261  0.53909958  0.87557887  1
  N  N55  1  0.11111163  0.42777835  0.62612471  1
  N  N56  1  0.88829326  0.53918591  0.37556667  1
  N  N57  1  0.77729328  0.42827308  0.12663528  1
  N  N58  1  0.55574100  0.53851663  0.87534557  1
  N  N59  1  0.44556300  0.42537577  0.62470888  1
  N  N60  1  0.22282780  0.87191885  0.37666432  1
  N  N61  1  0.11160669  0.76110173  0.12663512  1
  N  N62  1  0.88801925  0.87396023  0.88101902  1
  N  N63  1  0.77906313  0.76222946  0.62470885  1
  N  N64  1  0.55525201  0.87191886  0.37666428  1
  N  N65  1  0.44444508  0.76111157  0.12550160  1
  N  N66  1  0.22185004  0.87240749  0.87534590  1
  N  N67  1  0.10870930  0.76222965  0.62470901  1
  N  N68  1  0.87637622  0.89724638  0.36894682  1
  N  N69  1  0.77729349  0.76110147  0.12663511  1
  N  N70  1  0.55574118  0.87240757  0.87534573  1
  N  N71  1  0.44444517  0.76111156  0.62622939  1
