# generated using pymatgen
data_Al35BN36
_symmetry_space_group_name_H-M   'P 1'
_cell_length_a   9.69927289
_cell_length_b   9.69928438
_cell_length_c   8.94523513
_cell_angle_alpha   90.00000279
_cell_angle_beta   89.99999994
_cell_angle_gamma   60.00004717
_symmetry_Int_Tables_number   1
_chemical_formula_structural   Al35BN36
_chemical_formula_sum   'Al35 B1 N36'
_cell_volume   728.78843181
_cell_formula_units_Z   1
loop_
 _symmetry_equiv_pos_site_id
 _symmetry_equiv_pos_as_xyz
  1  'x, y, z'
loop_
 _atom_site_type_symbol
 _atom_site_label
 _atom_site_symmetry_multiplicity
 _atom_site_fract_x
 _atom_site_fract_y
 _atom_site_fract_z
 _atom_site_occupancy
  Al  Al0  1  0.10803492  0.09229083  0.36926551  1
  Al  Al1  1  0.22176097  0.20647811  0.12184473  1
  Al  Al2  1  0.77777776  0.09444453  0.86797371  1
  Al  Al3  1  0.88882167  0.20548842  0.61495666  1
  Al  Al4  1  0.44967424  0.09229085  0.36926551  1
  Al  Al5  1  0.56513045  0.20076816  0.12979711  1
  Al  Al6  1  0.10805628  0.09617276  0.87273585  1
  Al  Al7  1  0.22295718  0.20408566  0.61947256  1
  Al  Al8  1  0.88410143  0.20076819  0.12979711  1
  Al  Al9  1  0.44577099  0.09617275  0.87273585  1
  Al  Al10  1  0.55568995  0.20548841  0.61495667  1
  Al  Al11  1  0.11111120  0.42777762  0.37230045  1
  Al  Al12  1  0.22176100  0.53842763  0.12184470  1
  Al  Al13  1  0.77950611  0.42472282  0.87273585  1
  Al  Al14  1  0.88741895  0.53962384  0.61947252  1
  Al  Al15  1  0.44967433  0.42470145  0.36926551  1
  Al  Al16  1  0.55554941  0.53890123  0.12018067  1
  Al  Al17  1  0.11111119  0.42777761  0.86916862  1
  Al  Al18  1  0.22295724  0.53962384  0.61947252  1
  Al  Al19  1  0.77562420  0.42470148  0.36926552  1
  Al  Al20  1  0.88981141  0.53842763  0.12184471  1
  Al  Al21  1  0.44577109  0.42472281  0.87273586  1
  Al  Al22  1  0.55605084  0.53789834  0.62184085  1
  Al  Al23  1  0.10803495  0.76634090  0.36926546  1
  Al  Al24  1  0.22223450  0.87221624  0.12018069  1
  Al  Al25  1  0.77950606  0.76243761  0.87273582  1
  Al  Al26  1  0.88882159  0.87235683  0.61495661  1
  Al  Al27  1  0.44444447  0.76111105  0.37250253  1
  Al  Al28  1  0.55554929  0.87221622  0.12018070  1
  Al  Al29  1  0.10805634  0.76243760  0.87273583  1
  Al  Al30  1  0.22123161  0.87271768  0.62184084  1
  Al  Al31  1  0.77562416  0.76634087  0.36926547  1
  Al  Al32  1  0.88410131  0.88179739  0.12979706  1
  Al  Al33  1  0.44444448  0.76111103  0.86943254  1
  Al  Al34  1  0.55605073  0.87271767  0.62184083  1
  B  B35  1  0.77777772  0.09444459  0.39787492  1
  N  N36  1  0.22229512  0.20540980  0.33833552  1
  N  N37  1  0.10687382  0.09680215  0.09193980  1
  N  N38  1  0.88841293  0.20507971  0.82988196  1
  N  N39  1  0.77777782  0.09444438  0.57318437  1
  N  N40  1  0.58354120  0.19156278  0.34556102  1
  N  N41  1  0.44632406  0.09680213  0.09193980  1
  N  N42  1  0.22304356  0.20391293  0.83873062  1
  N  N43  1  0.11152562  0.09393186  0.58487529  1
  N  N44  1  0.87489605  0.19156279  0.34556102  1
  N  N45  1  0.77777784  0.09444436  0.07517399  1
  N  N46  1  0.55650742  0.20507970  0.82988196  1
  N  N47  1  0.44454253  0.09393186  0.58487529  1
  N  N48  1  0.22229513  0.53896193  0.33833553  1
  N  N49  1  0.11111114  0.42777774  0.08665871  1
  N  N50  1  0.88724612  0.53971040  0.83873060  1
  N  N51  1  0.77726532  0.42819219  0.58487528  1
  N  N52  1  0.55470869  0.54058263  0.33642933  1
  N  N53  1  0.44632403  0.42354039  0.09193980  1
  N  N54  1  0.22304352  0.53971038  0.83873062  1
  N  N55  1  0.11111114  0.42777773  0.58986010  1
  N  N56  1  0.88874298  0.53896193  0.33833553  1
  N  N57  1  0.78013560  0.42354040  0.09193980  1
  N  N58  1  0.55650122  0.53699760  0.83993942  1
  N  N59  1  0.44454250  0.42819217  0.58487529  1
  N  N60  1  0.22391582  0.87137547  0.33642934  1
  N  N61  1  0.10687379  0.76299059  0.09193981  1
  N  N62  1  0.88841291  0.87317420  0.82988198  1
  N  N63  1  0.77726535  0.76120905  0.58487530  1
  N  N64  1  0.55470872  0.87137548  0.33642935  1
  N  N65  1  0.44444449  0.76111101  0.08570974  1
  N  N66  1  0.22033077  0.87316801  0.83993943  1
  N  N67  1  0.11152560  0.76120905  0.58487530  1
  N  N68  1  0.87489604  0.90020795  0.34556103  1
  N  N69  1  0.78013562  0.76299059  0.09193981  1
  N  N70  1  0.55650125  0.87316800  0.83993942  1
  N  N71  1  0.44444449  0.76111101  0.59075044  1
