# generated using pymatgen
data_Al35BN36
_symmetry_space_group_name_H-M   'P 1'
_cell_length_a   9.58253284
_cell_length_b   9.58245171
_cell_length_c   9.30786354
_cell_angle_alpha   90.00014040
_cell_angle_beta   90.00000632
_cell_angle_gamma   59.99974190
_symmetry_Int_Tables_number   1
_chemical_formula_structural   Al35BN36
_chemical_formula_sum   'Al35 B1 N36'
_cell_volume   740.17849894
_cell_formula_units_Z   1
loop_
 _symmetry_equiv_pos_site_id
 _symmetry_equiv_pos_as_xyz
  1  'x, y, z'
loop_
 _atom_site_type_symbol
 _atom_site_label
 _atom_site_symmetry_multiplicity
 _atom_site_fract_x
 _atom_site_fract_y
 _atom_site_fract_z
 _atom_site_occupancy
  Al  Al0  1  0.10813880  0.09231079  0.37581597  1
  Al  Al1  1  0.22175334  0.20649334  0.12764940  1
  Al  Al2  1  0.77777710  0.09444586  0.87401878  1
  Al  Al3  1  0.88857331  0.20523949  0.62022679  1
  Al  Al4  1  0.44955040  0.09231079  0.37581596  1
  Al  Al5  1  0.56391261  0.20137689  0.13432234  1
  Al  Al6  1  0.10829821  0.09594435  0.87837768  1
  Al  Al7  1  0.22287841  0.20424319  0.62642470  1
  Al  Al8  1  0.88471057  0.20137694  0.13432236  1
  Al  Al9  1  0.44575742  0.09594435  0.87837766  1
  Al  Al10  1  0.55618729  0.20523947  0.62022678  1
  Al  Al11  1  0.11111115  0.42777766  0.37877760  1
  Al  Al12  1  0.22175369  0.53841860  0.12764905  1
  Al  Al13  1  0.77927642  0.42496547  0.87837778  1
  Al  Al14  1  0.88757740  0.53954376  0.62642444  1
  Al  Al15  1  0.44955119  0.42480596  0.37581602  1
  Al  Al16  1  0.55549443  0.53901125  0.12634439  1
  Al  Al17  1  0.11111115  0.42777764  0.87563017  1
  Al  Al18  1  0.22287886  0.53954377  0.62642441  1
  Al  Al19  1  0.77564286  0.42480597  0.37581604  1
  Al  Al20  1  0.88982776  0.53841859  0.12764905  1
  Al  Al21  1  0.44575809  0.42496549  0.87837778  1
  Al  Al22  1  0.55599670  0.53800668  0.62819906  1
  Al  Al23  1  0.10813947  0.76621803  0.37581574  1
  Al  Al24  1  0.22234568  0.87216072  0.12634439  1
  Al  Al25  1  0.77927627  0.76242501  0.87837732  1
  Al  Al26  1  0.88857302  0.87285403  0.62022641  1
  Al  Al27  1  0.44444431  0.76111133  0.37878760  1
  Al  Al28  1  0.55549366  0.87216068  0.12634440  1
  Al  Al29  1  0.10829872  0.76242502  0.87837733  1
  Al  Al30  1  0.22134110  0.87266298  0.62819897  1
  Al  Al31  1  0.77564250  0.76621801  0.37581575  1
  Al  Al32  1  0.88471007  0.88057989  0.13432194  1
  Al  Al33  1  0.44444430  0.76111136  0.87578065  1
  Al  Al34  1  0.55599598  0.87266296  0.62819896  1
  B  B35  1  0.77777767  0.09444473  0.39500279  1
  N  N36  1  0.22227870  0.20544267  0.33240249  1
  N  N37  1  0.10737879  0.09653701  0.08517695  1
  N  N38  1  0.88822512  0.20489042  0.82521187  1
  N  N39  1  0.77777754  0.09444490  0.56469827  1
  N  N40  1  0.58237415  0.19214583  0.34017917  1
  N  N41  1  0.44608421  0.09653700  0.08517695  1
  N  N42  1  0.22291110  0.20417788  0.83264188  1
  N  N43  1  0.11171346  0.09381491  0.57985664  1
  N  N44  1  0.87548007  0.19214585  0.34017918  1
  N  N45  1  0.77777762  0.09444476  0.07356740  1
  N  N46  1  0.55688450  0.20489042  0.82521188  1
  N  N47  1  0.44447161  0.09381493  0.57985664  1
  N  N48  1  0.22227855  0.53894435  0.33240245  1
  N  N49  1  0.11111064  0.42777874  0.08067611  1
  N  N50  1  0.88751234  0.53957691  0.83264190  1
  N  N51  1  0.77714735  0.42838133  0.57985670  1
  N  N52  1  0.55476644  0.54046714  0.33065378  1
  N  N53  1  0.44608376  0.42404671  0.08517683  1
  N  N54  1  0.22291080  0.53957689  0.83264189  1
  N  N55  1  0.11111064  0.42777872  0.58373147  1
  N  N56  1  0.88877715  0.53894436  0.33240244  1
  N  N57  1  0.77986951  0.42404673  0.08517683  1
  N  N58  1  0.55635201  0.53729601  0.83371315  1
  N  N59  1  0.44447131  0.42838131  0.57985669  1
  N  N60  1  0.22380122  0.87143200  0.33065380  1
  N  N61  1  0.10737869  0.76275163  0.08517688  1
  N  N62  1  0.88822514  0.87354975  0.82521190  1
  N  N63  1  0.77714752  0.76113913  0.57985666  1
  N  N64  1  0.55476681  0.87143200  0.33065381  1
  N  N65  1  0.44444412  0.76111173  0.08011136  1
  N  N66  1  0.22063019  0.87301756  0.83371322  1
  N  N67  1  0.11171334  0.76113912  0.57985665  1
  N  N68  1  0.87547985  0.89904033  0.34017942  1
  N  N69  1  0.77986964  0.76275164  0.08517687  1
  N  N70  1  0.55635229  0.87301756  0.83371322  1
  N  N71  1  0.44444414  0.76111169  0.58438891  1
