# generated using pymatgen
data_Al35BN36
_symmetry_space_group_name_H-M   'P 1'
_cell_length_a   9.34319767
_cell_length_b   9.34319818
_cell_length_c   9.98343903
_cell_angle_alpha   89.99999132
_cell_angle_beta   89.99999596
_cell_angle_gamma   60.00000397
_symmetry_Int_Tables_number   1
_chemical_formula_structural   Al35BN36
_chemical_formula_sum   'Al35 B1 N36'
_cell_volume   754.74790680
_cell_formula_units_Z   1
loop_
 _symmetry_equiv_pos_site_id
 _symmetry_equiv_pos_as_xyz
  1  'x, y, z'
loop_
 _atom_site_type_symbol
 _atom_site_label
 _atom_site_symmetry_multiplicity
 _atom_site_fract_x
 _atom_site_fract_y
 _atom_site_fract_z
 _atom_site_occupancy
  Al  Al0  1  0.10765941  0.09273713  0.40804945  1
  Al  Al1  1  0.22212282  0.20575403  0.15805002  1
  Al  Al2  1  0.77777756  0.09444433  0.90604544  1
  Al  Al3  1  0.88765781  0.20432418  0.65136174  1
  Al  Al4  1  0.44960353  0.09273664  0.40804951  1
  Al  Al5  1  0.56115132  0.20275743  0.16204715  1
  Al  Al6  1  0.10934099  0.09520017  0.90770478  1
  Al  Al7  1  0.22239642  0.20520706  0.65782139  1
  Al  Al8  1  0.88609123  0.20275715  0.16204715  1
  Al  Al9  1  0.44545847  0.09520022  0.90770484  1
  Al  Al10  1  0.55801810  0.20432437  0.65136169  1
  Al  Al11  1  0.11111156  0.42777766  0.40863378  1
  Al  Al12  1  0.22212309  0.53879013  0.15804989  1
  Al  Al13  1  0.77853426  0.42600705  0.90770482  1
  Al  Al14  1  0.88854034  0.53906324  0.65782148  1
  Al  Al15  1  0.44960364  0.42432683  0.40804941  1
  Al  Al16  1  0.55569825  0.53860400  0.15779356  1
  Al  Al17  1  0.11111153  0.42777760  0.90794886  1
  Al  Al18  1  0.22239660  0.53906353  0.65782137  1
  Al  Al19  1  0.77606948  0.42432711  0.40804944  1
  Al  Al20  1  0.88908700  0.53878984  0.15804992  1
  Al  Al21  1  0.44545851  0.42600729  0.90770485  1
  Al  Al22  1  0.55557626  0.53884802  0.65840877  1
  Al  Al23  1  0.10765973  0.76627001  0.40804949  1
  Al  Al24  1  0.22193750  0.87236446  0.15779373  1
  Al  Al25  1  0.77853398  0.76212531  0.90770470  1
  Al  Al26  1  0.88765758  0.87468533  0.65136161  1
  Al  Al27  1  0.44444375  0.76111191  0.40824055  1
  Al  Al28  1  0.55569827  0.87236417  0.15779370  1
  Al  Al29  1  0.10934064  0.76212550  0.90770467  1
  Al  Al30  1  0.22218144  0.87224255  0.65840843  1
  Al  Al31  1  0.77606975  0.76626981  0.40804959  1
  Al  Al32  1  0.88609108  0.87781810  0.16204727  1
  Al  Al33  1  0.44444423  0.76111131  0.90803912  1
  Al  Al34  1  0.55557633  0.87224229  0.65840861  1
  B  B35  1  0.77777758  0.09444468  0.41169367  1
  N  N36  1  0.22251994  0.20496029  0.34931887  1
  N  N37  1  0.10870870  0.09572879  0.10017694  1
  N  N38  1  0.88801977  0.20468599  0.84386656  1
  N  N39  1  0.77777770  0.09444475  0.57701586  1
  N  N40  1  0.58058018  0.19304339  0.35593820  1
  N  N41  1  0.44556240  0.09572873  0.10017703  1
  N  N42  1  0.22243319  0.20513343  0.84930692  1
  N  N43  1  0.11160624  0.09395927  0.59825008  1
  N  N44  1  0.87637621  0.19304358  0.35593813  1
  N  N45  1  0.77777770  0.09444436  0.09483592  1
  N  N46  1  0.55729388  0.20468618  0.84386657  1
  N  N47  1  0.44443462  0.09395916  0.59825021  1
  N  N48  1  0.22252007  0.53918666  0.34931876  1
  N  N49  1  0.11111114  0.42777800  0.09876107  1
  N  N50  1  0.88846709  0.53909981  0.84930704  1
  N  N51  1  0.77729276  0.42827287  0.59825012  1
  N  N52  1  0.55525202  0.53949599  0.34822099  1
  N  N53  1  0.44556258  0.42537511  0.10017702  1
  N  N54  1  0.22243323  0.53910012  0.84930689  1
  N  N55  1  0.11111126  0.42777796  0.59937268  1
  N  N56  1  0.88829378  0.53918647  0.34931884  1
  N  N57  1  0.77906264  0.42537487  0.10017699  1
  N  N58  1  0.55574157  0.53851691  0.84954039  1
  N  N59  1  0.44443464  0.42827299  0.59825011  1
  N  N60  1  0.22282812  0.87191941  0.34822112  1
  N  N61  1  0.10870847  0.76222939  0.10017684  1
  N  N62  1  0.88801961  0.87396079  0.84386643  1
  N  N63  1  0.77729282  0.76110125  0.59825019  1
  N  N64  1  0.55525223  0.87191911  0.34822108  1
  N  N65  1  0.44444445  0.76111108  0.09865644  1
  N  N66  1  0.22185033  0.87240805  0.84954002  1
  N  N67  1  0.11160611  0.76110140  0.59825007  1
  N  N68  1  0.87637633  0.89724693  0.35593822  1
  N  N69  1  0.77906244  0.76222916  0.10017691  1
  N  N70  1  0.55574161  0.87240796  0.84954016  1
  N  N71  1  0.44444450  0.76111113  0.59938413  1
