# generated using pymatgen
data_Al35BN36
_symmetry_space_group_name_H-M   'P 1'
_cell_length_a   9.85576688
_cell_length_b   9.85576619
_cell_length_c   8.44916389
_cell_angle_alpha   89.99999994
_cell_angle_beta   89.99999988
_cell_angle_gamma   60.00000904
_symmetry_Int_Tables_number   1
_chemical_formula_structural   Al35BN36
_chemical_formula_sum   'Al35 B1 N36'
_cell_volume   710.76366841
_cell_formula_units_Z   1
loop_
 _symmetry_equiv_pos_site_id
 _symmetry_equiv_pos_as_xyz
  1  'x, y, z'
loop_
 _atom_site_type_symbol
 _atom_site_label
 _atom_site_symmetry_multiplicity
 _atom_site_fract_x
 _atom_site_fract_y
 _atom_site_fract_z
 _atom_site_occupancy
  Al  Al0  1  0.10581751  0.09279325  0.35520335  1
  Al  Al1  1  0.22228990  0.20542025  0.10818984  1
  Al  Al2  1  0.77777777  0.09444445  0.85516252  1
  Al  Al3  1  0.88821150  0.20487818  0.60790031  1
  Al  Al4  1  0.45138926  0.09279323  0.35520335  1
  Al  Al5  1  0.56451652  0.20107507  0.10853888  1
  Al  Al6  1  0.11015043  0.09563150  0.85582788  1
  Al  Al7  1  0.22246642  0.20506723  0.60157555  1
  Al  Al8  1  0.88440840  0.20107509  0.10853892  1
  Al  Al9  1  0.44421807  0.09563146  0.85582786  1
  Al  Al10  1  0.55691036  0.20487817  0.60790032  1
  Al  Al11  1  0.11111113  0.42777780  0.35452745  1
  Al  Al12  1  0.22228993  0.53895660  0.10818985  1
  Al  Al13  1  0.77896482  0.42681711  0.85582788  1
  Al  Al14  1  0.88840056  0.53913309  0.60157556  1
  Al  Al15  1  0.45138931  0.42248413  0.35520335  1
  Al  Al16  1  0.55598496  0.53803016  0.10615348  1
  Al  Al17  1  0.11111111  0.42777779  0.85492960  1
  Al  Al18  1  0.22246645  0.53913312  0.60157553  1
  Al  Al19  1  0.77612656  0.42248419  0.35520335  1
  Al  Al20  1  0.88875358  0.53895658  0.10818983  1
  Al  Al21  1  0.44421807  0.42681711  0.85582787  1
  Al  Al22  1  0.55565519  0.53868971  0.60372806  1
  Al  Al23  1  0.10581745  0.76805598  0.35520335  1
  Al  Al24  1  0.22136347  0.87265164  0.10615349  1
  Al  Al25  1  0.77896478  0.76088474  0.85582786  1
  Al  Al26  1  0.88821150  0.87357703  0.60790033  1
  Al  Al27  1  0.44444442  0.76111111  0.35441541  1
  Al  Al28  1  0.55598492  0.87265160  0.10615349  1
  Al  Al29  1  0.11015044  0.76088474  0.85582788  1
  Al  Al30  1  0.22202303  0.87232187  0.60372805  1
  Al  Al31  1  0.77612656  0.76805593  0.35520335  1
  Al  Al32  1  0.88440839  0.88118319  0.10853888  1
  Al  Al33  1  0.44444442  0.76111110  0.85507495  1
  Al  Al34  1  0.55565515  0.87232183  0.60372804  1
  B  B35  1  0.77777779  0.09444445  0.39158371  1
  N  N36  1  0.22251885  0.20496239  0.35385769  1
  N  N37  1  0.10793986  0.09614349  0.10751861  1
  N  N38  1  0.89013040  0.20679707  0.84775783  1
  N  N39  1  0.77777779  0.09444446  0.59975054  1
  N  N40  1  0.58768320  0.18949175  0.35474095  1
  N  N41  1  0.44591668  0.09614341  0.10751860  1
  N  N42  1  0.22284650  0.20430702  0.85430529  1
  N  N43  1  0.11012864  0.09487137  0.59970355  1
  N  N44  1  0.87282508  0.18949176  0.35474094  1
  N  N45  1  0.77777776  0.09444445  0.07811570  1
  N  N46  1  0.55307252  0.20679706  0.84775784  1
  N  N47  1  0.44500005  0.09487132  0.59970357  1
  N  N48  1  0.22251885  0.53918551  0.35385769  1
  N  N49  1  0.11111113  0.42777782  0.10377599  1
  N  N50  1  0.88764036  0.53951316  0.85430529  1
  N  N51  1  0.77820467  0.42679533  0.59970356  1
  N  N52  1  0.55495337  0.54009330  0.35365353  1
  N  N53  1  0.44591672  0.42460655  0.10751859  1
  N  N54  1  0.22284651  0.53951317  0.85430530  1
  N  N55  1  0.11111114  0.42777782  0.60464574  1
  N  N56  1  0.88829573  0.53918552  0.35385769  1
  N  N57  1  0.77947679  0.42460655  0.10751860  1
  N  N58  1  0.55628365  0.53743273  0.85441841  1
  N  N59  1  0.44500008  0.42679532  0.59970358  1
  N  N60  1  0.22342662  0.87162004  0.35365353  1
  N  N61  1  0.10793987  0.76258340  0.10751859  1
  N  N62  1  0.89013040  0.86973918  0.84775785  1
  N  N63  1  0.77820463  0.76166673  0.59970358  1
  N  N64  1  0.55495334  0.87162000  0.35365353  1
  N  N65  1  0.44444442  0.76111112  0.10277042  1
  N  N66  1  0.22076606  0.87295033  0.85441841  1
  N  N67  1  0.11012864  0.76166676  0.59970358  1
  N  N68  1  0.87282509  0.90434985  0.35474094  1
  N  N69  1  0.77947672  0.76258336  0.10751859  1
  N  N70  1  0.55628361  0.87295028  0.85441841  1
  N  N71  1  0.44444443  0.76111113  0.60563920  1
