# generated using pymatgen
data_Al35BN36
_symmetry_space_group_name_H-M   'P 1'
_cell_length_a   9.34324281
_cell_length_b   9.34324336
_cell_length_c   9.98345003
_cell_angle_alpha   90.00000797
_cell_angle_beta   90.00000307
_cell_angle_gamma   60.00000387
_symmetry_Int_Tables_number   1
_chemical_formula_structural   Al35BN36
_chemical_formula_sum   'Al35 B1 N36'
_cell_volume   754.75603320
_cell_formula_units_Z   1
loop_
 _symmetry_equiv_pos_site_id
 _symmetry_equiv_pos_as_xyz
  1  'x, y, z'
loop_
 _atom_site_type_symbol
 _atom_site_label
 _atom_site_symmetry_multiplicity
 _atom_site_fract_x
 _atom_site_fract_y
 _atom_site_fract_z
 _atom_site_occupancy
  Al  Al0  1  0.10765924  0.09273699  0.29512635  1
  Al  Al1  1  0.22239589  0.20520810  0.04535814  1
  Al  Al2  1  0.77777755  0.09444438  0.79712756  1
  Al  Al3  1  0.88609203  0.20275799  0.54112480  1
  Al  Al4  1  0.44960375  0.09273653  0.29512632  1
  Al  Al5  1  0.55801712  0.20432481  0.05181076  1
  Al  Al6  1  0.10934140  0.09520132  0.79547349  1
  Al  Al7  1  0.22212334  0.20575292  0.54513045  1
  Al  Al8  1  0.88765836  0.20432462  0.05181067  1
  Al  Al9  1  0.44545693  0.09520141  0.79547345  1
  Al  Al10  1  0.56114963  0.20275829  0.54112483  1
  Al  Al11  1  0.11111155  0.42777757  0.29455005  1
  Al  Al12  1  0.22239605  0.53906292  0.04535809  1
  Al  Al13  1  0.77853540  0.42600745  0.79547347  1
  Al  Al14  1  0.88908587  0.53879038  0.54513054  1
  Al  Al15  1  0.44960383  0.42432664  0.29512639  1
  Al  Al16  1  0.55557478  0.53885092  0.04476601  1
  Al  Al17  1  0.11111152  0.42777758  0.79522979  1
  Al  Al18  1  0.22212366  0.53879065  0.54513053  1
  Al  Al19  1  0.77606935  0.42432695  0.29512637  1
  Al  Al20  1  0.88854140  0.53906267  0.04535802  1
  Al  Al21  1  0.44545695  0.42600768  0.79547344  1
  Al  Al22  1  0.55569912  0.53860223  0.54538957  1
  Al  Al23  1  0.10765959  0.76627011  0.29512635  1
  Al  Al24  1  0.22218441  0.87224097  0.04476632  1
  Al  Al25  1  0.77853515  0.76212381  0.79547355  1
  Al  Al26  1  0.88609193  0.87781642  0.54112465  1
  Al  Al27  1  0.44444373  0.76111188  0.29494332  1
  Al  Al28  1  0.55557487  0.87224075  0.04476618  1
  Al  Al29  1  0.10934101  0.76212397  0.79547355  1
  Al  Al30  1  0.22193573  0.87236533  0.54538936  1
  Al  Al31  1  0.77606965  0.76626998  0.29512629  1
  Al  Al32  1  0.88765813  0.87468423  0.05181084  1
  Al  Al33  1  0.44444424  0.76111132  0.79513601  1
  Al  Al34  1  0.55569916  0.87236508  0.54538947  1
  B  B35  1  0.77777758  0.09444464  0.29147546  1
  N  N36  1  0.22252174  0.20495660  0.35386064  1
  N  N37  1  0.11160810  0.09395779  0.10492382  1
  N  N38  1  0.88801901  0.20468523  0.85930868  1
  N  N39  1  0.77777767  0.09444433  0.60833641  1
  N  N40  1  0.58057975  0.19304356  0.34723266  1
  N  N41  1  0.44443423  0.09395769  0.10492378  1
  N  N42  1  0.22243148  0.20513689  0.85387182  1
  N  N43  1  0.10870598  0.09573031  0.60300170  1
  N  N44  1  0.87637641  0.19304377  0.34723272  1
  N  N45  1  0.77777772  0.09444468  0.12615105  1
  N  N46  1  0.55729547  0.20468541  0.85930870  1
  N  N47  1  0.44556352  0.09573032  0.60300163  1
  N  N48  1  0.22252189  0.53918837  0.35386071  1
  N  N49  1  0.11111124  0.42777792  0.10380945  1
  N  N50  1  0.88847053  0.53909812  0.85387167  1
  N  N51  1  0.77906413  0.42537219  0.60300168  1
  N  N52  1  0.55525267  0.53949453  0.35496110  1
  N  N53  1  0.44443419  0.42827478  0.10492383  1
  N  N54  1  0.22243147  0.53909841  0.85387177  1
  N  N55  1  0.11111112  0.42777802  0.60442095  1
  N  N56  1  0.88829013  0.53918823  0.35386067  1
  N  N57  1  0.77729135  0.42827465  0.10492379  1
  N  N58  1  0.55574033  0.53851937  0.85363433  1
  N  N59  1  0.44556370  0.42537247  0.60300165  1
  N  N60  1  0.22282667  0.87192003  0.35496094  1
  N  N61  1  0.11160796  0.76110087  0.10492391  1
  N  N62  1  0.88801883  0.87396240  0.85930882  1
  N  N63  1  0.77906399  0.76223031  0.60300172  1
  N  N64  1  0.55525292  0.87191979  0.35496107  1
  N  N65  1  0.44444451  0.76111108  0.10379815  1
  N  N66  1  0.22185277  0.87240681  0.85363468  1
  N  N67  1  0.10870582  0.76223050  0.60300177  1
  N  N68  1  0.87637654  0.89724645  0.34723263  1
  N  N69  1  0.77729140  0.76110080  0.10492380  1
  N  N70  1  0.55574041  0.87240675  0.85363456  1
  N  N71  1  0.44444447  0.76111109  0.60452230  1
