# generated using pymatgen
data_Al35BN36
_symmetry_space_group_name_H-M   'P 1'
_cell_length_a   9.52515251
_cell_length_b   9.52510993
_cell_length_c   9.48038884
_cell_angle_alpha   89.99999998
_cell_angle_beta   90.00000022
_cell_angle_gamma   59.99985795
_symmetry_Int_Tables_number   1
_chemical_formula_structural   Al35BN36
_chemical_formula_sum   'Al35 B1 N36'
_cell_volume   744.90020704
_cell_formula_units_Z   1
loop_
 _symmetry_equiv_pos_site_id
 _symmetry_equiv_pos_as_xyz
  1  'x, y, z'
loop_
 _atom_site_type_symbol
 _atom_site_label
 _atom_site_symmetry_multiplicity
 _atom_site_fract_x
 _atom_site_fract_y
 _atom_site_fract_z
 _atom_site_occupancy
  Al  Al0  1  0.10807045  0.09239024  0.37840378  1
  Al  Al1  1  0.22181567  0.20636863  0.12975088  1
  Al  Al2  1  0.77777704  0.09444601  0.87652521  1
  Al  Al3  1  0.88839085  0.20505744  0.62251497  1
  Al  Al4  1  0.44953933  0.09239022  0.37840377  1
  Al  Al5  1  0.56325303  0.20170681  0.13579997  1
  Al  Al6  1  0.10852720  0.09577098  0.88027359  1
  Al  Al7  1  0.22278175  0.20443648  0.62887575  1
  Al  Al8  1  0.88504022  0.20170686  0.13579999  1
  Al  Al9  1  0.44570180  0.09577097  0.88027357  1
  Al  Al10  1  0.55655179  0.20505742  0.62251496  1
  Al  Al11  1  0.11111144  0.42777707  0.38085867  1
  Al  Al12  1  0.22181629  0.53848088  0.12975052  1
  Al  Al13  1  0.77910324  0.42519382  0.88027375  1
  Al  Al14  1  0.88777047  0.53944709  0.62887536  1
  Al  Al15  1  0.44954019  0.42473728  0.37840387  1
  Al  Al16  1  0.55552558  0.53894894  0.12870660  1
  Al  Al17  1  0.11111147  0.42777700  0.87816950  1
  Al  Al18  1  0.22278243  0.53944711  0.62887533  1
  Al  Al19  1  0.77572257  0.42473728  0.37840389  1
  Al  Al20  1  0.88970284  0.53848086  0.12975052  1
  Al  Al21  1  0.44570294  0.42519385  0.88027375  1
  Al  Al22  1  0.55591150  0.53817708  0.63034098  1
  Al  Al23  1  0.10807123  0.76620672  0.37840355  1
  Al  Al24  1  0.22228328  0.87219238  0.12870666  1
  Al  Al25  1  0.77910297  0.76236905  0.88027319  1
  Al  Al26  1  0.88839044  0.87321917  0.62251439  1
  Al  Al27  1  0.44444456  0.76111084  0.38077977  1
  Al  Al28  1  0.55552439  0.87219233  0.12870667  1
  Al  Al29  1  0.10852798  0.76236907  0.88027321  1
  Al  Al30  1  0.22151133  0.87257832  0.63034086  1
  Al  Al31  1  0.77572208  0.76620668  0.37840356  1
  Al  Al32  1  0.88503938  0.87992125  0.13579939  1
  Al  Al33  1  0.44444454  0.76111089  0.87830690  1
  Al  Al34  1  0.55591040  0.87257828  0.63034085  1
  B  B35  1  0.77777732  0.09444543  0.39351609  1
  N  N36  1  0.22231642  0.20536723  0.33029682  1
  N  N37  1  0.10768478  0.09635676  0.08257753  1
  N  N38  1  0.88815317  0.20481902  0.82362801  1
  N  N39  1  0.77777785  0.09444428  0.56129651  1
  N  N40  1  0.58185471  0.19240564  0.33791886  1
  N  N41  1  0.44595851  0.09635675  0.08257752  1
  N  N42  1  0.22280904  0.20438198  0.83047220  1
  N  N43  1  0.11171926  0.09382251  0.57817543  1
  N  N44  1  0.87573968  0.19240566  0.33791887  1
  N  N45  1  0.77777802  0.09444395  0.07292574  1
  N  N46  1  0.55702781  0.20481902  0.82362802  1
  N  N47  1  0.44445826  0.09382253  0.57817543  1
  N  N48  1  0.22231623  0.53898291  0.33029669  1
  N  N49  1  0.11111067  0.42777871  0.07878074  1
  N  N50  1  0.88771567  0.53947582  0.83047215  1
  N  N51  1  0.77715573  0.42838664  0.57817547  1
  N  N52  1  0.55485654  0.54028690  0.32871262  1
  N  N53  1  0.44595771  0.42435234  0.08257750  1
  N  N54  1  0.22280855  0.53947579  0.83047215  1
  N  N55  1  0.11111069  0.42777867  0.58136834  1
  N  N56  1  0.88870089  0.53898293  0.33029669  1
  N  N57  1  0.77968995  0.42435236  0.08257750  1
  N  N58  1  0.55622715  0.53754567  0.83135577  1
  N  N59  1  0.44445764  0.42838662  0.57817547  1
  N  N60  1  0.22362012  0.87152264  0.32871262  1
  N  N61  1  0.10768448  0.76262530  0.08257739  1
  N  N62  1  0.88815330  0.87369341  0.82362796  1
  N  N63  1  0.77715605  0.76112508  0.57817539  1
  N  N64  1  0.55485724  0.87152266  0.32871263  1
  N  N65  1  0.44444429  0.76111143  0.07836108  1
  N  N66  1  0.22087902  0.87289319  0.83135580  1
  N  N67  1  0.11171890  0.76112506  0.57817538  1
  N  N68  1  0.87573958  0.89852085  0.33791902  1
  N  N69  1  0.77969021  0.76262533  0.08257738  1
  N  N70  1  0.55622779  0.87289321  0.83135580  1
  N  N71  1  0.44444430  0.76111141  0.58187379  1
