# generated using pymatgen
data_Al35BN36
_symmetry_space_group_name_H-M   'P 1'
_cell_length_a   9.34321052
_cell_length_b   9.34321101
_cell_length_c   9.98343412
_cell_angle_alpha   89.99999297
_cell_angle_beta   89.99999798
_cell_angle_gamma   60.00000198
_symmetry_Int_Tables_number   1
_chemical_formula_structural   Al35BN36
_chemical_formula_sum   'Al35 B1 N36'
_cell_volume   754.74959469
_cell_formula_units_Z   1
loop_
 _symmetry_equiv_pos_site_id
 _symmetry_equiv_pos_as_xyz
  1  'x, y, z'
loop_
 _atom_site_type_symbol
 _atom_site_label
 _atom_site_symmetry_multiplicity
 _atom_site_fract_x
 _atom_site_fract_y
 _atom_site_fract_z
 _atom_site_occupancy
  Al  Al0  1  0.10765825  0.09273705  0.41416423  1
  Al  Al1  1  0.22212329  0.20575313  0.16416039  1
  Al  Al2  1  0.77777763  0.09444441  0.91216398  1
  Al  Al3  1  0.88765739  0.20432371  0.65747925  1
  Al  Al4  1  0.44960467  0.09273659  0.41416435  1
  Al  Al5  1  0.56115063  0.20275785  0.16815931  1
  Al  Al6  1  0.10934165  0.09519895  0.91381704  1
  Al  Al7  1  0.22239637  0.20520710  0.66393093  1
  Al  Al8  1  0.88609159  0.20275757  0.16815931  1
  Al  Al9  1  0.44545916  0.09519905  0.91381708  1
  Al  Al10  1  0.55801901  0.20432390  0.65747925  1
  Al  Al11  1  0.11111152  0.42777758  0.41474048  1
  Al  Al12  1  0.22212356  0.53879058  0.16416033  1
  Al  Al13  1  0.77853304  0.42600769  0.91381706  1
  Al  Al14  1  0.88854042  0.53906316  0.66393105  1
  Al  Al15  1  0.44960472  0.42432572  0.41416428  1
  Al  Al16  1  0.55569903  0.53860245  0.16390376  1
  Al  Al17  1  0.11111154  0.42777758  0.91405593  1
  Al  Al18  1  0.22239653  0.53906342  0.66393099  1
  Al  Al19  1  0.77606935  0.42432604  0.41416424  1
  Al  Al20  1  0.88908608  0.53879031  0.16416029  1
  Al  Al21  1  0.44545916  0.42600793  0.91381712  1
  Al  Al22  1  0.55557511  0.53885027  0.66452326  1
  Al  Al23  1  0.10765858  0.76627109  0.41416432  1
  Al  Al24  1  0.22193593  0.87236527  0.16390395  1
  Al  Al25  1  0.77853281  0.76212599  0.91381697  1
  Al  Al26  1  0.88765719  0.87468615  0.65747918  1
  Al  Al27  1  0.44444370  0.76111194  0.41434960  1
  Al  Al28  1  0.55569912  0.87236503  0.16390386  1
  Al  Al29  1  0.10934130  0.76212615  0.91381699  1
  Al  Al30  1  0.22218367  0.87224139  0.66452294  1
  Al  Al31  1  0.77606969  0.76627093  0.41416439  1
  Al  Al32  1  0.88609149  0.87781741  0.16815947  1
  Al  Al33  1  0.44444426  0.76111136  0.91415096  1
  Al  Al34  1  0.55557524  0.87224113  0.66452312  1
  B  B35  1  0.77777753  0.09444466  0.41780537  1
  N  N36  1  0.22252077  0.20495853  0.35542766  1
  N  N37  1  0.10870847  0.09572950  0.10628680  1
  N  N38  1  0.88801879  0.20468501  0.84998147  1
  N  N39  1  0.77777768  0.09444468  0.58312906  1
  N  N40  1  0.58057916  0.19304386  0.36205065  1
  N  N41  1  0.44556195  0.09572954  0.10628689  1
  N  N42  1  0.22243324  0.20513344  0.85541628  1
  N  N43  1  0.11160427  0.09395948  0.60436406  1
  N  N44  1  0.87637664  0.19304409  0.36205053  1
  N  N45  1  0.77777773  0.09444439  0.10095138  1
  N  N46  1  0.55729606  0.20468520  0.84998152  1
  N  N47  1  0.44443637  0.09395940  0.60436426  1
  N  N48  1  0.22252086  0.53918743  0.35542762  1
  N  N49  1  0.11111114  0.42777801  0.10486894  1
  N  N50  1  0.88846712  0.53909983  0.85541643  1
  N  N51  1  0.77729298  0.42827089  0.60436413  1
  N  N52  1  0.55525288  0.53949403  0.35432975  1
  N  N53  1  0.44556208  0.42537496  0.10628691  1
  N  N54  1  0.22243321  0.53910011  0.85541636  1
  N  N55  1  0.11111123  0.42777790  0.60547853  1
  N  N56  1  0.88829203  0.53918729  0.35542763  1
  N  N57  1  0.77906329  0.42537469  0.10628683  1
  N  N58  1  0.55574254  0.53851506  0.85565430  1
  N  N59  1  0.44443632  0.42827099  0.60436419  1
  N  N60  1  0.22282608  0.87192032  0.35432986  1
  N  N61  1  0.10870832  0.76222888  0.10628676  1
  N  N62  1  0.88801863  0.87396297  0.84998139  1
  N  N63  1  0.77729310  0.76110294  0.60436424  1
  N  N64  1  0.55525322  0.87192011  0.35432980  1
  N  N65  1  0.44444449  0.76111113  0.10476815  1
  N  N66  1  0.22184845  0.87240904  0.85565395  1
  N  N67  1  0.11160416  0.76110302  0.60436412  1
  N  N68  1  0.87637675  0.89724595  0.36205066  1
  N  N69  1  0.77906322  0.76222872  0.10628678  1
  N  N70  1  0.55574260  0.87240895  0.85565410  1
  N  N71  1  0.44444448  0.76111114  0.60549128  1
