# generated using pymatgen
data_Al35BN36
_symmetry_space_group_name_H-M   'P 1'
_cell_length_a   9.66308364
_cell_length_b   9.66307868
_cell_length_c   9.05928680
_cell_angle_alpha   90.00001130
_cell_angle_beta   89.99999192
_cell_angle_gamma   60.00002887
_symmetry_Int_Tables_number   1
_chemical_formula_structural   Al35BN36
_chemical_formula_sum   'Al35 B1 N36'
_cell_volume   732.58162516
_cell_formula_units_Z   1
loop_
 _symmetry_equiv_pos_site_id
 _symmetry_equiv_pos_as_xyz
  1  'x, y, z'
loop_
 _atom_site_type_symbol
 _atom_site_label
 _atom_site_symmetry_multiplicity
 _atom_site_fract_x
 _atom_site_fract_y
 _atom_site_fract_z
 _atom_site_occupancy
  Al  Al0  1  0.10811533  0.09226857  0.33775657  1
  Al  Al1  1  0.22295438  0.20409107  0.08726981  1
  Al  Al2  1  0.77777831  0.09444373  0.83928162  1
  Al  Al3  1  0.88427715  0.20094384  0.57778875  1
  Al  Al4  1  0.44961603  0.09226849  0.33775659  1
  Al  Al5  1  0.55580878  0.20542898  0.09262294  1
  Al  Al6  1  0.10808482  0.09612621  0.83445014  1
  Al  Al7  1  0.22173431  0.20653120  0.58533682  1
  Al  Al8  1  0.88876240  0.20542910  0.09262288  1
  Al  Al9  1  0.44578884  0.09612615  0.83445020  1
  Al  Al10  1  0.56477946  0.20094363  0.57778881  1
  Al  Al11  1  0.11111077  0.42777821  0.33452817  1
  Al  Al12  1  0.22295413  0.53962179  0.08726973  1
  Al  Al13  1  0.77946007  0.42475162  0.83445021  1
  Al  Al14  1  0.88986404  0.53840177  0.58533669  1
  Al  Al15  1  0.44961572  0.42478208  0.33775663  1
  Al  Al16  1  0.55605697  0.53788638  0.08507240  1
  Al  Al17  1  0.11111077  0.42777820  0.83784671  1
  Al  Al18  1  0.22173409  0.53840184  0.58533671  1
  Al  Al19  1  0.77560235  0.42478201  0.33775659  1
  Al  Al20  1  0.88742408  0.53962170  0.08726967  1
  Al  Al21  1  0.44578834  0.42475172  0.83445023  1
  Al  Al22  1  0.55550934  0.53898167  0.58693075  1
  Al  Al23  1  0.10811497  0.76628248  0.33775657  1
  Al  Al24  1  0.22121932  0.87272340  0.08507236  1
  Al  Al25  1  0.77946019  0.76245527  0.83445008  1
  Al  Al26  1  0.88427754  0.88144494  0.57778857  1
  Al  Al27  1  0.44444433  0.76111121  0.33438837  1
  Al  Al28  1  0.55605742  0.87272323  0.08507238  1
  Al  Al29  1  0.10808446  0.76245543  0.83445004  1
  Al  Al30  1  0.22231453  0.87217581  0.58693079  1
  Al  Al31  1  0.77560262  0.76628233  0.33775655  1
  Al  Al32  1  0.88876262  0.87247482  0.09262268  1
  Al  Al33  1  0.44444431  0.76111125  0.83764291  1
  Al  Al34  1  0.55550981  0.87217560  0.58693075  1
  B  B35  1  0.77777802  0.09444422  0.31229067  1
  N  N36  1  0.22227359  0.20545310  0.37311677  1
  N  N37  1  0.11161652  0.09387094  0.12628395  1
  N  N38  1  0.88834596  0.20501298  0.88113639  1
  N  N39  1  0.77777716  0.09444524  0.63466376  1
  N  N40  1  0.58315898  0.19175406  0.36552007  1
  N  N41  1  0.44451258  0.09387101  0.12628395  1
  N  N42  1  0.22301534  0.20396972  0.87277767  1
  N  N43  1  0.10700690  0.09673958  0.61972042  1
  N  N44  1  0.87508697  0.19175407  0.36552006  1
  N  N45  1  0.77777742  0.09444489  0.13900778  1
  N  N46  1  0.55664105  0.20501301  0.88113638  1
  N  N47  1  0.44625356  0.09673962  0.61972044  1
  N  N48  1  0.22227372  0.53893996  0.37311672  1
  N  N49  1  0.11111146  0.42777723  0.12159924  1
  N  N50  1  0.88730306  0.53968157  0.87277768  1
  N  N51  1  0.78007275  0.42367315  0.61972043  1
  N  N52  1  0.55470423  0.54059137  0.37501664  1
  N  N53  1  0.44451298  0.42828272  0.12628396  1
  N  N54  1  0.22301563  0.53968145  0.87277768  1
  N  N55  1  0.11111150  0.42777721  0.62490549  1
  N  N56  1  0.88878650  0.53894001  0.37311672  1
  N  N57  1  0.77720405  0.42828283  0.12628395  1
  N  N58  1  0.55647251  0.53705486  0.87155513  1
  N  N59  1  0.44625397  0.42367306  0.61972043  1
  N  N60  1  0.22392497  0.87137122  0.37501661  1
  N  N61  1  0.11161673  0.76117920  0.12628395  1
  N  N62  1  0.88834585  0.87330835  0.88113640  1
  N  N63  1  0.78007257  0.76292037  0.61972041  1
  N  N64  1  0.55470381  0.87137138  0.37501660  1
  N  N65  1  0.44444444  0.76111101  0.12076209  1
  N  N66  1  0.22038838  0.87313953  0.87155519  1
  N  N67  1  0.10700706  0.76292021  0.61972038  1
  N  N68  1  0.87508695  0.89982610  0.36552018  1
  N  N69  1  0.77720391  0.76117936  0.12628394  1
  N  N70  1  0.55647210  0.87313967  0.87155520  1
  N  N71  1  0.44444445  0.76111100  0.62572000  1
