# generated using pymatgen
data_Al35BN36
_symmetry_space_group_name_H-M   'P 1'
_cell_length_a   9.83566343
_cell_length_b   9.83566513
_cell_length_c   8.51296775
_cell_angle_alpha   89.99999864
_cell_angle_beta   89.99999997
_cell_angle_gamma   60.00001653
_symmetry_Int_Tables_number   1
_chemical_formula_structural   Al35BN36
_chemical_formula_sum   'Al35 B1 N36'
_cell_volume   713.21272822
_cell_formula_units_Z   1
loop_
 _symmetry_equiv_pos_site_id
 _symmetry_equiv_pos_as_xyz
  1  'x, y, z'
loop_
 _atom_site_type_symbol
 _atom_site_label
 _atom_site_symmetry_multiplicity
 _atom_site_fract_x
 _atom_site_fract_y
 _atom_site_fract_z
 _atom_site_occupancy
  Al  Al0  1  0.10691078  0.09268926  0.35118983  1
  Al  Al1  1  0.22263465  0.20473077  0.10435133  1
  Al  Al2  1  0.77777777  0.09444447  0.85063728  1
  Al  Al3  1  0.88379828  0.20046497  0.59152163  1
  Al  Al4  1  0.45039994  0.09268927  0.35118981  1
  Al  Al5  1  0.55549498  0.20558587  0.10059585  1
  Al  Al6  1  0.10897001  0.09589697  0.84963998  1
  Al  Al7  1  0.22214770  0.20570467  0.59925770  1
  Al  Al8  1  0.88891919  0.20558588  0.10059587  1
  Al  Al9  1  0.44513305  0.09589694  0.84963998  1
  Al  Al10  1  0.56573682  0.20046493  0.59152162  1
  Al  Al11  1  0.11111113  0.42777777  0.35225622  1
  Al  Al12  1  0.22263467  0.53930133  0.10435134  1
  Al  Al13  1  0.77923029  0.42563667  0.84963998  1
  Al  Al14  1  0.88903800  0.53881437  0.59925770  1
  Al  Al15  1  0.45039999  0.42357740  0.35118982  1
  Al  Al16  1  0.55565712  0.53868582  0.10203086  1
  Al  Al17  1  0.11111112  0.42777776  0.85217323  1
  Al  Al18  1  0.22214772  0.53881437  0.59925770  1
  Al  Al19  1  0.77602259  0.42357744  0.35118983  1
  Al  Al20  1  0.88806409  0.53930132  0.10435134  1
  Al  Al21  1  0.44513305  0.42563665  0.84963997  1
  Al  Al22  1  0.55599496  0.53801013  0.60089498  1
  Al  Al23  1  0.10691075  0.76706664  0.35118982  1
  Al  Al24  1  0.22201913  0.87232381  0.10203086  1
  Al  Al25  1  0.77923026  0.76179972  0.84963998  1
  Al  Al26  1  0.88379822  0.88240355  0.59152162  1
  Al  Al27  1  0.44444443  0.76111109  0.35220296  1
  Al  Al28  1  0.55565709  0.87232380  0.10203087  1
  Al  Al29  1  0.10897000  0.76179970  0.84963997  1
  Al  Al30  1  0.22134344  0.87266166  0.60089497  1
  Al  Al31  1  0.77602259  0.76706660  0.35118981  1
  Al  Al32  1  0.88891916  0.87216169  0.10059586  1
  Al  Al33  1  0.44444443  0.76111109  0.85169069  1
  Al  Al34  1  0.55599493  0.87266164  0.60089496  1
  B  B35  1  0.77777777  0.09444449  0.30866769  1
  N  N36  1  0.22248992  0.20502024  0.35861480  1
  N  N37  1  0.11098033  0.09440014  0.11280224  1
  N  N38  1  0.88903459  0.20570129  0.86847804  1
  N  N39  1  0.77777780  0.09444444  0.63172939  1
  N  N40  1  0.58538665  0.19064004  0.35591588  1
  N  N41  1  0.44461957  0.09440013  0.11280223  1
  N  N42  1  0.22292273  0.20415459  0.85770454  1
  N  N43  1  0.10701858  0.09663800  0.60521915  1
  N  N44  1  0.87397333  0.19064003  0.35591587  1
  N  N45  1  0.77777778  0.09444446  0.12146527  1
  N  N46  1  0.55526417  0.20570126  0.86847803  1
  N  N47  1  0.44634346  0.09663795  0.60521916  1
  N  N48  1  0.22248991  0.53915660  0.35861479  1
  N  N49  1  0.11111114  0.42777779  0.10738832  1
  N  N50  1  0.88748791  0.53958942  0.85770454  1
  N  N51  1  0.77997134  0.42368525  0.60521915  1
  N  N52  1  0.55492625  0.54014752  0.35940306  1
  N  N53  1  0.44461958  0.42764697  0.11280222  1
  N  N54  1  0.22292270  0.53958941  0.85770454  1
  N  N55  1  0.11111114  0.42777779  0.60847208  1
  N  N56  1  0.88835355  0.53915660  0.35861480  1
  N  N57  1  0.77773349  0.42764699  0.11280224  1
  N  N58  1  0.55635671  0.53728661  0.85737644  1
  N  N59  1  0.44634347  0.42368523  0.60521916  1
  N  N60  1  0.22348081  0.87159295  0.35940307  1
  N  N61  1  0.11098031  0.76128623  0.11280223  1
  N  N62  1  0.88903456  0.87193089  0.86847804  1
  N  N63  1  0.77997129  0.76301011  0.60521917  1
  N  N64  1  0.55492623  0.87159294  0.35940305  1
  N  N65  1  0.44444445  0.76111110  0.10645268  1
  N  N66  1  0.22061991  0.87302340  0.85737645  1
  N  N67  1  0.10701856  0.76301012  0.60521917  1
  N  N68  1  0.87397334  0.90205335  0.35591588  1
  N  N69  1  0.77773347  0.76128622  0.11280224  1
  N  N70  1  0.55635668  0.87302337  0.85737647  1
  N  N71  1  0.44444445  0.76111110  0.60968460  1
