# generated using pymatgen
data_Al35BN36
_symmetry_space_group_name_H-M   'P 1'
_cell_length_a   9.34320200
_cell_length_b   9.34320257
_cell_length_c   9.98341582
_cell_angle_alpha   90.00000766
_cell_angle_beta   90.00000228
_cell_angle_gamma   60.00000290
_symmetry_Int_Tables_number   1
_chemical_formula_structural   Al35BN36
_chemical_formula_sum   'Al35 B1 N36'
_cell_volume   754.74684755
_cell_formula_units_Z   1
loop_
 _symmetry_equiv_pos_site_id
 _symmetry_equiv_pos_as_xyz
  1  'x, y, z'
loop_
 _atom_site_type_symbol
 _atom_site_label
 _atom_site_symmetry_multiplicity
 _atom_site_fract_x
 _atom_site_fract_y
 _atom_site_fract_z
 _atom_site_occupancy
  Al  Al0  1  0.10765847  0.09273707  0.31152861  1
  Al  Al1  1  0.22239668  0.20520654  0.06175595  1
  Al  Al2  1  0.77777755  0.09444437  0.81354000  1
  Al  Al3  1  0.88609072  0.20275671  0.55753586  1
  Al  Al4  1  0.44960443  0.09273659  0.31152856  1
  Al  Al5  1  0.55801779  0.20432447  0.06821482  1
  Al  Al6  1  0.10934165  0.09520021  0.81187209  1
  Al  Al7  1  0.22212254  0.20575451  0.56152579  1
  Al  Al8  1  0.88765802  0.20432428  0.06821475  1
  Al  Al9  1  0.44545779  0.09520029  0.81187205  1
  Al  Al10  1  0.56115218  0.20275701  0.55753587  1
  Al  Al11  1  0.11111155  0.42777760  0.31094075  1
  Al  Al12  1  0.22239686  0.53906372  0.06175589  1
  Al  Al13  1  0.77853429  0.42600771  0.81187207  1
  Al  Al14  1  0.88908744  0.53878959  0.56152587  1
  Al  Al15  1  0.44960453  0.42432591  0.31152862  1
  Al  Al16  1  0.55557651  0.53884751  0.06116697  1
  Al  Al17  1  0.11111154  0.42777759  0.81162823  1
  Al  Al18  1  0.22212288  0.53878988  0.56152585  1
  Al  Al19  1  0.77606940  0.42432622  0.31152861  1
  Al  Al20  1  0.88853987  0.53906344  0.06175583  1
  Al  Al21  1  0.44545783  0.42600794  0.81187202  1
  Al  Al22  1  0.55569809  0.53860431  0.56178394  1
  Al  Al23  1  0.10765882  0.76627084  0.31152858  1
  Al  Al24  1  0.22218098  0.87224272  0.06116729  1
  Al  Al25  1  0.77853406  0.76212464  0.81187215  1
  Al  Al26  1  0.88609064  0.87781898  0.55753571  1
  Al  Al27  1  0.44444372  0.76111191  0.31133474  1
  Al  Al28  1  0.55557661  0.87224246  0.06116713  1
  Al  Al29  1  0.10934129  0.76212484  0.81187214  1
  Al  Al30  1  0.22193779  0.87236432  0.56178374  1
  Al  Al31  1  0.77606971  0.76627068  0.31152853  1
  Al  Al32  1  0.88765781  0.87468490  0.06821491  1
  Al  Al33  1  0.44444424  0.76111133  0.81153750  1
  Al  Al34  1  0.55569813  0.87236405  0.56178385  1
  B  B35  1  0.77777755  0.09444465  0.30788796  1
  N  N36  1  0.22251976  0.20496054  0.37025730  1
  N  N37  1  0.11160604  0.09395910  0.12132748  1
  N  N38  1  0.88802052  0.20468676  0.87571153  1
  N  N39  1  0.77777765  0.09444433  0.62474902  1
  N  N40  1  0.58058072  0.19304308  0.36364348  1
  N  N41  1  0.44443501  0.09395898  0.12132740  1
  N  N42  1  0.22243323  0.20513339  0.87027050  1
  N  N43  1  0.10870941  0.09572869  0.61940076  1
  N  N44  1  0.87637588  0.19304330  0.36364357  1
  N  N45  1  0.77777771  0.09444467  0.14256256  1
  N  N46  1  0.55729242  0.20468696  0.87571154  1
  N  N47  1  0.44556169  0.09572870  0.61940068  1
  N  N48  1  0.22251991  0.53918644  0.37025735  1
  N  N49  1  0.11111127  0.42777792  0.12020285  1
  N  N50  1  0.88846706  0.53909984  0.87027035  1
  N  N51  1  0.77906249  0.42537564  0.61940072  1
  N  N52  1  0.55525170  0.53949644  0.37135651  1
  N  N53  1  0.44443499  0.42827272  0.12132745  1
  N  N54  1  0.22243324  0.53910016  0.87027044  1
  N  N55  1  0.11111113  0.42777803  0.62081593  1
  N  N56  1  0.88829405  0.53918627  0.37025731  1
  N  N57  1  0.77729266  0.42827259  0.12132744  1
  N  N58  1  0.55574165  0.53851676  0.87003585  1
  N  N59  1  0.44556190  0.42537592  0.61940068  1
  N  N60  1  0.22282854  0.87191911  0.37135635  1
  N  N61  1  0.11160592  0.76110164  0.12132754  1
  N  N62  1  0.88802038  0.87395935  0.87571167  1
  N  N63  1  0.77906237  0.76222848  0.61940078  1
  N  N64  1  0.55525198  0.87191888  0.37135649  1
  N  N65  1  0.44444452  0.76111108  0.12019108  1
  N  N66  1  0.22185015  0.87240815  0.87003622  1
  N  N67  1  0.10870928  0.76222870  0.61940082  1
  N  N68  1  0.87637603  0.89724747  0.36364346  1
  N  N69  1  0.77729273  0.76110154  0.12132743  1
  N  N70  1  0.55574173  0.87240806  0.87003607  1
  N  N71  1  0.44444446  0.76111110  0.62092093  1
