# generated using pymatgen
data_Al35BN36
_symmetry_space_group_name_H-M   'P 1'
_cell_length_a   9.75775276
_cell_length_b   9.75775179
_cell_length_c   8.75889125
_cell_angle_alpha   90.00000021
_cell_angle_beta   89.99999985
_cell_angle_gamma   60.00000533
_symmetry_Int_Tables_number   1
_chemical_formula_structural   Al35BN36
_chemical_formula_sum   'Al35 B1 N36'
_cell_volume   722.23638852
_cell_formula_units_Z   1
loop_
 _symmetry_equiv_pos_site_id
 _symmetry_equiv_pos_as_xyz
  1  'x, y, z'
loop_
 _atom_site_type_symbol
 _atom_site_label
 _atom_site_symmetry_multiplicity
 _atom_site_fract_x
 _atom_site_fract_y
 _atom_site_fract_z
 _atom_site_occupancy
  Al  Al0  1  0.10777128  0.09239319  0.36508337  1
  Al  Al1  1  0.22186463  0.20627079  0.11764563  1
  Al  Al2  1  0.77777778  0.09444447  0.86438095  1
  Al  Al3  1  0.88888654  0.20555321  0.61218518  1
  Al  Al4  1  0.44983551  0.09239322  0.36508337  1
  Al  Al5  1  0.56560824  0.20052922  0.12622666  1
  Al  Al6  1  0.10815520  0.09617314  0.86838846  1
  Al  Al7  1  0.22290180  0.20419643  0.61434221  1
  Al  Al8  1  0.88386259  0.20052926  0.12622665  1
  Al  Al9  1  0.44567170  0.09617313  0.86838847  1
  Al  Al10  1  0.55556028  0.20555320  0.61218518  1
  Al  Al11  1  0.11111111  0.42777780  0.36708662  1
  Al  Al12  1  0.22186463  0.53853130  0.11764563  1
  Al  Al13  1  0.77950645  0.42482189  0.86838846  1
  Al  Al14  1  0.88752976  0.53956847  0.61434220  1
  Al  Al15  1  0.44983554  0.42443793  0.36508337  1
  Al  Al16  1  0.55567825  0.53864353  0.11597438  1
  Al  Al17  1  0.11111111  0.42777779  0.86476771  1
  Al  Al18  1  0.22290180  0.53956847  0.61434220  1
  Al  Al19  1  0.77572651  0.42443796  0.36508337  1
  Al  Al20  1  0.88960412  0.53853130  0.11764564  1
  Al  Al21  1  0.44567169  0.42482186  0.86838847  1
  Al  Al22  1  0.55597232  0.53805538  0.61691244  1
  Al  Al23  1  0.10777124  0.76650223  0.36508336  1
  Al  Al24  1  0.22197686  0.87234492  0.11597438  1
  Al  Al25  1  0.77950644  0.76233839  0.86838847  1
  Al  Al26  1  0.88888653  0.87222695  0.61218519  1
  Al  Al27  1  0.44444444  0.76111112  0.36736947  1
  Al  Al28  1  0.55567824  0.87234491  0.11597439  1
  Al  Al29  1  0.10815518  0.76233837  0.86838847  1
  Al  Al30  1  0.22138871  0.87263899  0.61691245  1
  Al  Al31  1  0.77572653  0.76650220  0.36508337  1
  Al  Al32  1  0.88386255  0.88227491  0.12622666  1
  Al  Al33  1  0.44444444  0.76111112  0.86519526  1
  Al  Al34  1  0.55597232  0.87263898  0.61691244  1
  B  B35  1  0.77777778  0.09444445  0.39925314  1
  N  N36  1  0.22236330  0.20527343  0.34267866  1
  N  N37  1  0.10674861  0.09684447  0.09640606  1
  N  N38  1  0.88855820  0.20522487  0.83339302  1
  N  N39  1  0.77777777  0.09444446  0.57845863  1
  N  N40  1  0.58419988  0.19123340  0.34865946  1
  N  N41  1  0.44640695  0.09684445  0.09640606  1
  N  N42  1  0.22304944  0.20390118  0.84320741  1
  N  N43  1  0.11132384  0.09408399  0.58873926  1
  N  N44  1  0.87456674  0.19123341  0.34865946  1
  N  N45  1  0.77777779  0.09444448  0.07614214  1
  N  N46  1  0.55621699  0.20522485  0.83339303  1
  N  N47  1  0.44459218  0.09408399  0.58873927  1
  N  N48  1  0.22236331  0.53902998  0.34267867  1
  N  N49  1  0.11111111  0.42777780  0.09148903  1
  N  N50  1  0.88723452  0.53971611  0.84320740  1
  N  N51  1  0.77741730  0.42799053  0.58873925  1
  N  N52  1  0.55476549  0.54046902  0.34092211  1
  N  N53  1  0.44640696  0.42341529  0.09640606  1
  N  N54  1  0.22304942  0.53971609  0.84320741  1
  N  N55  1  0.11111111  0.42777780  0.59411746  1
  N  N56  1  0.88860677  0.53902997  0.34267867  1
  N  N57  1  0.78017778  0.42341530  0.09640607  1
  N  N58  1  0.55650116  0.53699773  0.84421775  1
  N  N59  1  0.44459219  0.42799051  0.58873927  1
  N  N60  1  0.22380235  0.87143216  0.34092212  1
  N  N61  1  0.10674860  0.76307364  0.09640607  1
  N  N62  1  0.88855818  0.87288365  0.83339303  1
  N  N63  1  0.77741730  0.76125887  0.58873926  1
  N  N64  1  0.55476550  0.87143216  0.34092213  1
  N  N65  1  0.44444444  0.76111112  0.09030117  1
  N  N66  1  0.22033106  0.87316782  0.84421776  1
  N  N67  1  0.11132382  0.76125888  0.58873926  1
  N  N68  1  0.87456673  0.90086656  0.34865947  1
  N  N69  1  0.78017776  0.76307364  0.09640608  1
  N  N70  1  0.55650114  0.87316780  0.84421776  1
  N  N71  1  0.44444443  0.76111112  0.59503429  1
