# generated using pymatgen
data_AlN
_symmetry_space_group_name_H-M   'P 1'
_cell_length_a   3.15920638
_cell_length_b   3.15923401
_cell_length_c   4.88705152
_cell_angle_alpha   90.00000018
_cell_angle_beta   90.00000014
_cell_angle_gamma   60.00031426
_symmetry_Int_Tables_number   1
_chemical_formula_structural   AlN
_chemical_formula_sum   'Al2 N2'
_cell_volume   42.24144043
_cell_formula_units_Z   2
loop_
 _symmetry_equiv_pos_site_id
 _symmetry_equiv_pos_as_xyz
  1  'x, y, z'
loop_
 _atom_site_type_symbol
 _atom_site_label
 _atom_site_symmetry_multiplicity
 _atom_site_fract_x
 _atom_site_fract_y
 _atom_site_fract_z
 _atom_site_occupancy
  Al  Al0  1  0.33333403  0.28333314  0.76383077  1
  Al  Al1  1  0.66666615  0.61666895  0.26383077  1
  N  N2  1  0.66666540  0.61667059  0.65401348  1
  N  N3  1  0.33333478  0.28333150  0.15401348  1
