# generated using pymatgen
data_AlN
_symmetry_space_group_name_H-M   'P 1'
_cell_length_a   3.12891202
_cell_length_b   3.12891297
_cell_length_c   5.01196762
_cell_angle_alpha   90.00000005
_cell_angle_beta   90.00000006
_cell_angle_gamma   60.00001865
_symmetry_Int_Tables_number   1
_chemical_formula_structural   AlN
_chemical_formula_sum   'Al2 N2'
_cell_volume   42.49382298
_cell_formula_units_Z   2
loop_
 _symmetry_equiv_pos_site_id
 _symmetry_equiv_pos_as_xyz
  1  'x, y, z'
loop_
 _atom_site_type_symbol
 _atom_site_label
 _atom_site_symmetry_multiplicity
 _atom_site_fract_x
 _atom_site_fract_y
 _atom_site_fract_z
 _atom_site_occupancy
  Al  Al0  1  0.33333336  0.28333418  0.63336899  1
  Al  Al1  1  0.66666677  0.61666733  0.13336899  1
  N  N2  1  0.66666665  0.61666766  0.75166072  1
  N  N3  1  0.33333349  0.28333385  0.25166072  1
