
#======================================================================
# CRYSTAL DATA
#----------------------------------------------------------------------
data_VESTA_phase_1

_chemical_name_common                  'Al   Hf   Mg   N                      '
_cell_length_a                         9.844232
_cell_length_b                         9.833349
_cell_length_c                         9.163874
_cell_angle_alpha                      89.990379
_cell_angle_beta                       89.972847
_cell_angle_gamma                      60.047585
_cell_volume                           768.601102
_space_group_name_H-M_alt              'P 1'
_space_group_IT_number                 1

loop_
_space_group_symop_operation_xyz
   'x, y, z'

loop_
   _atom_site_label
   _atom_site_occupancy
   _atom_site_fract_x
   _atom_site_fract_y
   _atom_site_fract_z
   _atom_site_adp_type
   _atom_site_U_iso_or_equiv
   _atom_site_type_symbol
   Al1        1.0     0.108834     0.093101     0.334681    Uiso  ? Al
   Al2        1.0     0.212297     0.209523     0.092937    Uiso  ? Al
   Al3        1.0     0.779033     0.099238     0.833185    Uiso  ? Al
   Al4        1.0     0.889597     0.206656     0.582996    Uiso  ? Al
   Al5        1.0     0.439883     0.098345     0.332157    Uiso  ? Al
   Al6        1.0     0.558507     0.211812     0.096123    Uiso  ? Al
   Al7        1.0     0.106297     0.094209     0.831177    Uiso  ? Al
   Al8        1.0     0.218882     0.208085     0.578112    Uiso  ? Al
   Al9        1.0     0.781677     0.096804     0.333089    Uiso  ? Al
   Al10       1.0     0.890354     0.204753     0.083038    Uiso  ? Al
   Al11       1.0     0.553999     0.208549     0.575826    Uiso  ? Al
   Al12       1.0     0.114415     0.426185     0.332555    Uiso  ? Al
   Al13       1.0     0.223434     0.538366     0.083431    Uiso  ? Al
   Al14       1.0     0.777116     0.426202     0.834584    Uiso  ? Al
   Al15       1.0     0.897507     0.526249     0.591679    Uiso  ? Al
   Al16       1.0     0.442417     0.432373     0.338700    Uiso  ? Al
   Al17       1.0     0.553713     0.540044     0.092956    Uiso  ? Al
   Al18       1.0     0.109293     0.430856     0.833063    Uiso  ? Al
   Al19       1.0     0.221412     0.539239     0.584177    Uiso  ? Al
   Al20       1.0     0.778214     0.422761     0.332023    Uiso  ? Al
   Al21       1.0     0.890861     0.535981     0.079032    Uiso  ? Al
   Al22       1.0     0.445280     0.431880     0.827631    Uiso  ? Al
   Al23       1.0     0.114088     0.762306     0.329765    Uiso  ? Al
   Al24       1.0     0.222820     0.873012     0.084779    Uiso  ? Al
   Al25       1.0     0.782784     0.755382     0.828996    Uiso  ? Al
   Al26       1.0     0.895576     0.875336     0.595289    Uiso  ? Al
   Al27       1.0     0.438640     0.759912     0.342508    Uiso  ? Al
   Al28       1.0     0.555524     0.864635     0.095426    Uiso  ? Al
   Al29       1.0     0.114789     0.760049     0.836370    Uiso  ? Al
   Al30       1.0     0.218857     0.872726     0.582057    Uiso  ? Al
   Al31       1.0     0.889933     0.873624     0.076848    Uiso  ? Al
   Al32       1.0     0.441495     0.755258     0.825356    Uiso  ? Al
   Hf1        1.0     0.443074     0.097663     0.850251    Uiso  ? Hf
   Hf2        1.0     0.781024     0.759726     0.355734    Uiso  ? Hf
   Mg1        1.0     0.558875     0.535627     0.587052    Uiso  ? Mg
   Mg2        1.0     0.548826     0.873780     0.594094    Uiso  ? Mg
   N1         1.0     0.221130     0.205913     0.366664    Uiso  ? N
   N2         1.0     0.109033     0.093756     0.126587    Uiso  ? N
   N3         1.0     0.890029     0.203811     0.875269    Uiso  ? N
   N4         1.0     0.774710     0.098186     0.623599    Uiso  ? N
   N5         1.0     0.557299     0.203628     0.363997    Uiso  ? N
   N6         1.0     0.442246     0.096570     0.112693    Uiso  ? N
   N7         1.0     0.201818     0.214855     0.880613    Uiso  ? N
   N8         1.0     0.110496     0.095010     0.620782    Uiso  ? N
   N9         1.0     0.888990     0.205374     0.373344    Uiso  ? N
   N10        1.0     0.781083     0.092267     0.124313    Uiso  ? N
   N11        1.0     0.564835     0.216456     0.882971    Uiso  ? N
   N12        1.0     0.435799     0.110703     0.620285    Uiso  ? N
   N13        1.0     0.218007     0.542612     0.373302    Uiso  ? N
   N14        1.0     0.109831     0.430489     0.123915    Uiso  ? N
   N15        1.0     0.890323     0.538635     0.870592    Uiso  ? N
   N16        1.0     0.792625     0.418234     0.628433    Uiso  ? N
   N17        1.0     0.558852     0.537304     0.357431    Uiso  ? N
   N18        1.0     0.440329     0.430289     0.128537    Uiso  ? N
   N19        1.0     0.223698     0.537488     0.874188    Uiso  ? N
   N20        1.0     0.114797     0.425316     0.624166    Uiso  ? N
   N21        1.0     0.899590     0.518021     0.376987    Uiso  ? N
   N22        1.0     0.781141     0.426110     0.120300    Uiso  ? N
   N23        1.0     0.555418     0.538202     0.876367    Uiso  ? N
   N24        1.0     0.437486     0.420803     0.619402    Uiso  ? N
   N25        1.0     0.217936     0.873707     0.371610    Uiso  ? N
   N26        1.0     0.109501     0.761607     0.119548    Uiso  ? N
   N27        1.0     0.887270     0.874109     0.866986    Uiso  ? N
   N28        1.0     0.793659     0.752287     0.613019    Uiso  ? N
   N29        1.0     0.540317     0.881253     0.357348    Uiso  ? N
   N30        1.0     0.440177     0.761724     0.126933    Uiso  ? N
   N31        1.0     0.220906     0.874737     0.876284    Uiso  ? N
   N32        1.0     0.112880     0.760195     0.628130    Uiso  ? N
   N33        1.0     0.899802     0.882328     0.380085    Uiso  ? N
   N34        1.0     0.782376     0.759129     0.119794    Uiso  ? N
   N35        1.0     0.564984     0.853844     0.873626    Uiso  ? N
   N36        1.0     0.428100     0.766120     0.620251    Uiso  ? N
