
#======================================================================
# CRYSTAL DATA
#----------------------------------------------------------------------
data_VESTA_phase_1

_chemical_name_common                  'Al   Hf   Mg   N                      '
_cell_length_a                         9.535778
_cell_length_b                         9.517427
_cell_length_c                         10.074896
_cell_angle_alpha                      90.023842
_cell_angle_beta                       89.959274
_cell_angle_gamma                      60.037380
_cell_volume                           792.154850
_space_group_name_H-M_alt              'P 1'
_space_group_IT_number                 1

loop_
_space_group_symop_operation_xyz
   'x, y, z'

loop_
   _atom_site_label
   _atom_site_occupancy
   _atom_site_fract_x
   _atom_site_fract_y
   _atom_site_fract_z
   _atom_site_adp_type
   _atom_site_U_iso_or_equiv
   _atom_site_type_symbol
   Al1        1.0     0.110188     0.092911     0.405909    Uiso  ? Al
   Al2        1.0     0.218764     0.207117     0.159675    Uiso  ? Al
   Al3        1.0     0.782044     0.096635     0.904883    Uiso  ? Al
   Al4        1.0     0.889973     0.206635     0.654474    Uiso  ? Al
   Al5        1.0     0.438530     0.100336     0.412849    Uiso  ? Al
   Al6        1.0     0.556778     0.207207     0.159933    Uiso  ? Al
   Al7        1.0     0.105023     0.094644     0.905185    Uiso  ? Al
   Al8        1.0     0.214623     0.209301     0.648986    Uiso  ? Al
   Al9        1.0     0.779216     0.099051     0.406447    Uiso  ? Al
   Al10       1.0     0.888918     0.205893     0.155528    Uiso  ? Al
   Al11       1.0     0.555177     0.212013     0.648392    Uiso  ? Al
   Al12       1.0     0.115919     0.424004     0.407601    Uiso  ? Al
   Al13       1.0     0.222017     0.539152     0.155291    Uiso  ? Al
   Al14       1.0     0.775518     0.428196     0.905641    Uiso  ? Al
   Al15       1.0     0.893222     0.533835     0.657987    Uiso  ? Al
   Al16       1.0     0.443253     0.429213     0.406083    Uiso  ? Al
   Al17       1.0     0.556274     0.537790     0.154304    Uiso  ? Al
   Al18       1.0     0.106845     0.432566     0.904822    Uiso  ? Al
   Al19       1.0     0.223903     0.537636     0.653411    Uiso  ? Al
   Al20       1.0     0.779564     0.421375     0.407344    Uiso  ? Al
   Al21       1.0     0.893148     0.530678     0.150907    Uiso  ? Al
   Al22       1.0     0.445398     0.433617     0.907234    Uiso  ? Al
   Al23       1.0     0.116510     0.761751     0.407832    Uiso  ? Al
   Al24       1.0     0.220693     0.872529     0.154864    Uiso  ? Al
   Al25       1.0     0.782755     0.756065     0.910409    Uiso  ? Al
   Al26       1.0     0.891876     0.872567     0.658747    Uiso  ? Al
   Al27       1.0     0.435630     0.761577     0.406561    Uiso  ? Al
   Al28       1.0     0.549620     0.873086     0.153520    Uiso  ? Al
   Al29       1.0     0.113339     0.760039     0.903783    Uiso  ? Al
   Al30       1.0     0.223022     0.872031     0.653982    Uiso  ? Al
   Al31       1.0     0.893245     0.875315     0.150557    Uiso  ? Al
   Al32       1.0     0.444215     0.754960     0.908925    Uiso  ? Al
   Hf1        1.0     0.442662     0.097349     0.894275    Uiso  ? Hf
   Hf2        1.0     0.779852     0.759436     0.397116    Uiso  ? Hf
   Mg1        1.0     0.554563     0.539537     0.653606    Uiso  ? Mg
   Mg2        1.0     0.554903     0.865128     0.653213    Uiso  ? Mg
   N1         1.0     0.221530     0.205265     0.349273    Uiso  ? N
   N2         1.0     0.110798     0.095212     0.096488    Uiso  ? N
   N3         1.0     0.888678     0.206240     0.846201    Uiso  ? N
   N4         1.0     0.779234     0.093524     0.596392    Uiso  ? N
   N5         1.0     0.557167     0.203289     0.349056    Uiso  ? N
   N6         1.0     0.442254     0.097856     0.102837    Uiso  ? N
   N7         1.0     0.200885     0.215480     0.841021    Uiso  ? N
   N8         1.0     0.108833     0.093698     0.595489    Uiso  ? N
   N9         1.0     0.889891     0.204180     0.344800    Uiso  ? N
   N10        1.0     0.776447     0.096367     0.095462    Uiso  ? N
   N11        1.0     0.566021     0.215616     0.841481    Uiso  ? N
   N12        1.0     0.437168     0.107272     0.604430    Uiso  ? N
   N13        1.0     0.219803     0.540761     0.345603    Uiso  ? N
   N14        1.0     0.113557     0.425984     0.095243    Uiso  ? N
   N15        1.0     0.888794     0.538895     0.850381    Uiso  ? N
   N16        1.0     0.793374     0.420735     0.593590    Uiso  ? N
   N17        1.0     0.557752     0.537533     0.345399    Uiso  ? N
   N18        1.0     0.443472     0.426253     0.099190    Uiso  ? N
   N19        1.0     0.223421     0.537280     0.846873    Uiso  ? N
   N20        1.0     0.110292     0.429806     0.596481    Uiso  ? N
   N21        1.0     0.900168     0.518697     0.339832    Uiso  ? N
   N22        1.0     0.778980     0.425573     0.096609    Uiso  ? N
   N23        1.0     0.556332     0.538731     0.860190    Uiso  ? N
   N24        1.0     0.435981     0.423719     0.590575    Uiso  ? N
   N25        1.0     0.218560     0.874112     0.342936    Uiso  ? N
   N26        1.0     0.112549     0.759898     0.093966    Uiso  ? N
   N27        1.0     0.888565     0.872696     0.850965    Uiso  ? N
   N28        1.0     0.795073     0.752615     0.599658    Uiso  ? N
   N29        1.0     0.536978     0.882760     0.344239    Uiso  ? N
   N30        1.0     0.441406     0.761357     0.099921    Uiso  ? N
   N31        1.0     0.222210     0.873270     0.847876    Uiso  ? N
   N32        1.0     0.109663     0.762057     0.598437    Uiso  ? N
   N33        1.0     0.898999     0.881652     0.340871    Uiso  ? N
   N34        1.0     0.779329     0.760152     0.107475    Uiso  ? N
   N35        1.0     0.565099     0.855053     0.860630    Uiso  ? N
   N36        1.0     0.427917     0.767561     0.587636    Uiso  ? N
