
#======================================================================
# CRYSTAL DATA
#----------------------------------------------------------------------
data_VESTA_phase_1

_chemical_name_common                  'Al   Hf   Mg   N                      '
_cell_length_a                         9.651213
_cell_length_b                         9.642227
_cell_length_c                         9.737709
_cell_angle_alpha                      89.997978
_cell_angle_beta                       89.981705
_cell_angle_gamma                      60.052685
_cell_volume                           785.193981
_space_group_name_H-M_alt              'P 1'
_space_group_IT_number                 1

loop_
_space_group_symop_operation_xyz
   'x, y, z'

loop_
   _atom_site_label
   _atom_site_occupancy
   _atom_site_fract_x
   _atom_site_fract_y
   _atom_site_fract_z
   _atom_site_adp_type
   _atom_site_U_iso_or_equiv
   _atom_site_type_symbol
   Al1        1.0     0.110004     0.093380     0.329158    Uiso  ? Al
   Al2        1.0     0.211532     0.210119     0.082468    Uiso  ? Al
   Al3        1.0     0.780937     0.097396     0.826080    Uiso  ? Al
   Al4        1.0     0.889299     0.207149     0.577114    Uiso  ? Al
   Al5        1.0     0.439281     0.099201     0.320286    Uiso  ? Al
   Al6        1.0     0.559345     0.211280     0.083791    Uiso  ? Al
   Al7        1.0     0.105308     0.094213     0.824098    Uiso  ? Al
   Al8        1.0     0.220448     0.207237     0.574378    Uiso  ? Al
   Al9        1.0     0.779732     0.098829     0.327203    Uiso  ? Al
   Al10       1.0     0.890236     0.204514     0.076694    Uiso  ? Al
   Al11       1.0     0.552813     0.209243     0.573451    Uiso  ? Al
   Al12       1.0     0.115688     0.424294     0.326915    Uiso  ? Al
   Al13       1.0     0.222410     0.539032     0.076951    Uiso  ? Al
   Al14       1.0     0.778204     0.426390     0.828075    Uiso  ? Al
   Al15       1.0     0.897292     0.525669     0.582512    Uiso  ? Al
   Al16       1.0     0.443465     0.431317     0.328743    Uiso  ? Al
   Al17       1.0     0.554650     0.538864     0.080718    Uiso  ? Al
   Al18       1.0     0.107492     0.432326     0.825441    Uiso  ? Al
   Al19       1.0     0.222875     0.538448     0.578349    Uiso  ? Al
   Al20       1.0     0.777245     0.422522     0.324392    Uiso  ? Al
   Al21       1.0     0.890484     0.537160     0.073951    Uiso  ? Al
   Al22       1.0     0.444806     0.432614     0.822816    Uiso  ? Al
   Al23       1.0     0.115583     0.761980     0.325485    Uiso  ? Al
   Al24       1.0     0.220986     0.873487     0.077460    Uiso  ? Al
   Al25       1.0     0.784079     0.754658     0.817912    Uiso  ? Al
   Al26       1.0     0.895667     0.875668     0.584016    Uiso  ? Al
   Al27       1.0     0.438792     0.759947     0.327117    Uiso  ? Al
   Al28       1.0     0.558203     0.863738     0.082468    Uiso  ? Al
   Al29       1.0     0.113326     0.760628     0.827808    Uiso  ? Al
   Al30       1.0     0.221877     0.871421     0.577429    Uiso  ? Al
   Al31       1.0     0.889883     0.872865     0.073168    Uiso  ? Al
   Al32       1.0     0.441624     0.755246     0.823814    Uiso  ? Al
   Hf1        1.0     0.443038     0.096981     0.842950    Uiso  ? Hf
   Hf2        1.0     0.779438     0.760041     0.349115    Uiso  ? Hf
   Mg1        1.0     0.557340     0.537812     0.579281    Uiso  ? Mg
   Mg2        1.0     0.545922     0.874942     0.583541    Uiso  ? Mg
   N1         1.0     0.222731     0.205158     0.376383    Uiso  ? N
   N2         1.0     0.109267     0.093905     0.133653    Uiso  ? N
   N3         1.0     0.889765     0.203988     0.882285    Uiso  ? N
   N4         1.0     0.775445     0.097382     0.630464    Uiso  ? N
   N5         1.0     0.555714     0.204239     0.374397    Uiso  ? N
   N6         1.0     0.442648     0.096235     0.115965    Uiso  ? N
   N7         1.0     0.199765     0.216112     0.886573    Uiso  ? N
   N8         1.0     0.110486     0.094717     0.627863    Uiso  ? N
   N9         1.0     0.888969     0.205720     0.380466    Uiso  ? N
   N10        1.0     0.780296     0.092754     0.131632    Uiso  ? N
   N11        1.0     0.566281     0.216121     0.888074    Uiso  ? N
   N12        1.0     0.435921     0.110856     0.632268    Uiso  ? N
   N13        1.0     0.219596     0.541214     0.380212    Uiso  ? N
   N14        1.0     0.109826     0.430140     0.131483    Uiso  ? N
   N15        1.0     0.889623     0.539932     0.878942    Uiso  ? N
   N16        1.0     0.792878     0.418161     0.636586    Uiso  ? N
   N17        1.0     0.557638     0.538618     0.365862    Uiso  ? N
   N18        1.0     0.441155     0.429690     0.132514    Uiso  ? N
   N19        1.0     0.222593     0.538263     0.881198    Uiso  ? N
   N20        1.0     0.114492     0.425657     0.630724    Uiso  ? N
   N21        1.0     0.900184     0.515816     0.384175    Uiso  ? N
   N22        1.0     0.780512     0.426423     0.127219    Uiso  ? N
   N23        1.0     0.556327     0.537470     0.882800    Uiso  ? N
   N24        1.0     0.437477     0.420956     0.630724    Uiso  ? N
   N25        1.0     0.220481     0.872903     0.379665    Uiso  ? N
   N26        1.0     0.109781     0.761493     0.128959    Uiso  ? N
   N27        1.0     0.887193     0.872993     0.876305    Uiso  ? N
   N28        1.0     0.793491     0.752470     0.616489    Uiso  ? N
   N29        1.0     0.536713     0.883128     0.366860    Uiso  ? N
   N30        1.0     0.440872     0.761546     0.129382    Uiso  ? N
   N31        1.0     0.219403     0.875050     0.883220    Uiso  ? N
   N32        1.0     0.112490     0.760474     0.633031    Uiso  ? N
   N33        1.0     0.899945     0.883634     0.385916    Uiso  ? N
   N34        1.0     0.781819     0.759183     0.130357    Uiso  ? N
   N35        1.0     0.567923     0.851658     0.882182    Uiso  ? N
   N36        1.0     0.427795     0.766647     0.636141    Uiso  ? N
