
#======================================================================
# CRYSTAL DATA
#----------------------------------------------------------------------
data_VESTA_phase_1

_chemical_name_common                  'Al   Hf   Mg   N                      '
_cell_length_a                         9.528555
_cell_length_b                         9.520359
_cell_length_c                         10.078704
_cell_angle_alpha                      90.027618
_cell_angle_beta                       89.967125
_cell_angle_gamma                      60.042942
_cell_volume                           792.142301
_space_group_name_H-M_alt              'P 1'
_space_group_IT_number                 1

loop_
_space_group_symop_operation_xyz
   'x, y, z'

loop_
   _atom_site_label
   _atom_site_occupancy
   _atom_site_fract_x
   _atom_site_fract_y
   _atom_site_fract_z
   _atom_site_adp_type
   _atom_site_U_iso_or_equiv
   _atom_site_type_symbol
   Al1        1.0     0.110531     0.093400     0.311484    Uiso  ? Al
   Al2        1.0     0.214290     0.208919     0.063969    Uiso  ? Al
   Al3        1.0     0.781800     0.096497     0.808536    Uiso  ? Al
   Al4        1.0     0.889132     0.207408     0.560545    Uiso  ? Al
   Al5        1.0     0.439512     0.099604     0.304781    Uiso  ? Al
   Al6        1.0     0.558325     0.209486     0.063978    Uiso  ? Al
   Al7        1.0     0.105034     0.094164     0.807441    Uiso  ? Al
   Al8        1.0     0.219451     0.207453     0.556883    Uiso  ? Al
   Al9        1.0     0.778884     0.099771     0.310147    Uiso  ? Al
   Al10       1.0     0.889842     0.204849     0.059547    Uiso  ? Al
   Al11       1.0     0.553441     0.210289     0.556705    Uiso  ? Al
   Al12       1.0     0.115996     0.423591     0.310088    Uiso  ? Al
   Al13       1.0     0.221886     0.539260     0.059624    Uiso  ? Al
   Al14       1.0     0.778275     0.426488     0.809685    Uiso  ? Al
   Al15       1.0     0.895009     0.529301     0.565800    Uiso  ? Al
   Al16       1.0     0.444032     0.430704     0.308969    Uiso  ? Al
   Al17       1.0     0.555234     0.538154     0.061007    Uiso  ? Al
   Al18       1.0     0.106936     0.432697     0.807574    Uiso  ? Al
   Al19       1.0     0.223519     0.537967     0.561703    Uiso  ? Al
   Al20       1.0     0.776766     0.422746     0.307684    Uiso  ? Al
   Al21       1.0     0.891141     0.535270     0.055450    Uiso  ? Al
   Al22       1.0     0.444333     0.432908     0.806925    Uiso  ? Al
   Al23       1.0     0.116664     0.761670     0.310160    Uiso  ? Al
   Al24       1.0     0.220180     0.873465     0.059711    Uiso  ? Al
   Al25       1.0     0.784404     0.754642     0.803389    Uiso  ? Al
   Al26       1.0     0.893976     0.874287     0.565856    Uiso  ? Al
   Al27       1.0     0.439099     0.759868     0.305954    Uiso  ? Al
   Al28       1.0     0.555754     0.867082     0.061499    Uiso  ? Al
   Al29       1.0     0.112806     0.760842     0.809014    Uiso  ? Al
   Al30       1.0     0.223435     0.871195     0.561777    Uiso  ? Al
   Al31       1.0     0.890975     0.873708     0.055403    Uiso  ? Al
   Al32       1.0     0.441712     0.755593     0.808836    Uiso  ? Al
   Hf1        1.0     0.442985     0.096217     0.816137    Uiso  ? Hf
   Hf2        1.0     0.780438     0.759447     0.320126    Uiso  ? Hf
   Mg1        1.0     0.555529     0.539786     0.560996    Uiso  ? Mg
   Mg2        1.0     0.549500     0.870931     0.561459    Uiso  ? Mg
   N1         1.0     0.222275     0.205094     0.365286    Uiso  ? N
   N2         1.0     0.109617     0.094093     0.121015    Uiso  ? N
   N3         1.0     0.889199     0.204659     0.870441    Uiso  ? N
   N4         1.0     0.776027     0.096723     0.618624    Uiso  ? N
   N5         1.0     0.555651     0.205567     0.363705    Uiso  ? N
   N6         1.0     0.442822     0.096221     0.107879    Uiso  ? N
   N7         1.0     0.201719     0.215341     0.873919    Uiso  ? N
   N8         1.0     0.110291     0.094866     0.616929    Uiso  ? N
   N9         1.0     0.889319     0.205721     0.368823    Uiso  ? N
   N10        1.0     0.779428     0.093258     0.119656    Uiso  ? N
   N11        1.0     0.565572     0.214286     0.874658    Uiso  ? N
   N12        1.0     0.437037     0.108967     0.614166    Uiso  ? N
   N13        1.0     0.220808     0.540063     0.368307    Uiso  ? N
   N14        1.0     0.109850     0.429642     0.119716    Uiso  ? N
   N15        1.0     0.889737     0.538705     0.867330    Uiso  ? N
   N16        1.0     0.792078     0.419056     0.624370    Uiso  ? N
   N17        1.0     0.556515     0.539509     0.353737    Uiso  ? N
   N18        1.0     0.441812     0.428880     0.118362    Uiso  ? N
   N19        1.0     0.221672     0.538890     0.869279    Uiso  ? N
   N20        1.0     0.113920     0.425939     0.618630    Uiso  ? N
   N21        1.0     0.899162     0.517693     0.373026    Uiso  ? N
   N22        1.0     0.779963     0.426726     0.116008    Uiso  ? N
   N23        1.0     0.556851     0.537053     0.870549    Uiso  ? N
   N24        1.0     0.437519     0.421183     0.621442    Uiso  ? N
   N25        1.0     0.222146     0.872772     0.368503    Uiso  ? N
   N26        1.0     0.109941     0.761385     0.118746    Uiso  ? N
   N27        1.0     0.888204     0.873182     0.865362    Uiso  ? N
   N28        1.0     0.793238     0.752934     0.611511    Uiso  ? N
   N29        1.0     0.538460     0.881414     0.354079    Uiso  ? N
   N30        1.0     0.441157     0.761487     0.114897    Uiso  ? N
   N31        1.0     0.218739     0.874857     0.871265    Uiso  ? N
   N32        1.0     0.112142     0.760777     0.619789    Uiso  ? N
   N33        1.0     0.898807     0.883056     0.373812    Uiso  ? N
   N34        1.0     0.780975     0.759575     0.111974    Uiso  ? N
   N35        1.0     0.566708     0.853464     0.870915    Uiso  ? N
   N36        1.0     0.428261     0.767951     0.628157    Uiso  ? N
