
#======================================================================
# CRYSTAL DATA
#----------------------------------------------------------------------
data_VESTA_phase_1

_chemical_name_common                  'Al   Hf   Mg   N                      '
_cell_length_a                         9.528545
_cell_length_b                         9.520362
_cell_length_c                         10.078716
_cell_angle_alpha                      90.027641
_cell_angle_beta                       89.967064
_cell_angle_gamma                      60.042919
_cell_volume                           792.142537
_space_group_name_H-M_alt              'P 1'
_space_group_IT_number                 1

loop_
_space_group_symop_operation_xyz
   'x, y, z'

loop_
   _atom_site_label
   _atom_site_occupancy
   _atom_site_fract_x
   _atom_site_fract_y
   _atom_site_fract_z
   _atom_site_adp_type
   _atom_site_U_iso_or_equiv
   _atom_site_type_symbol
   Al1        1.0     0.110543     0.093395     0.304421    Uiso  ? Al
   Al2        1.0     0.214301     0.208914     0.056906    Uiso  ? Al
   Al3        1.0     0.781812     0.096492     0.801471    Uiso  ? Al
   Al4        1.0     0.889143     0.207404     0.553482    Uiso  ? Al
   Al5        1.0     0.439523     0.099599     0.297719    Uiso  ? Al
   Al6        1.0     0.558336     0.209481     0.056915    Uiso  ? Al
   Al7        1.0     0.105045     0.094160     0.800377    Uiso  ? Al
   Al8        1.0     0.219462     0.207448     0.549820    Uiso  ? Al
   Al9        1.0     0.778895     0.099766     0.303084    Uiso  ? Al
   Al10       1.0     0.889853     0.204844     0.052483    Uiso  ? Al
   Al11       1.0     0.553452     0.210284     0.549642    Uiso  ? Al
   Al12       1.0     0.116007     0.423587     0.303024    Uiso  ? Al
   Al13       1.0     0.221897     0.539255     0.052559    Uiso  ? Al
   Al14       1.0     0.778286     0.426483     0.802622    Uiso  ? Al
   Al15       1.0     0.895020     0.529296     0.558736    Uiso  ? Al
   Al16       1.0     0.444043     0.430699     0.301905    Uiso  ? Al
   Al17       1.0     0.555244     0.538149     0.053943    Uiso  ? Al
   Al18       1.0     0.106947     0.432692     0.800510    Uiso  ? Al
   Al19       1.0     0.223530     0.537963     0.554639    Uiso  ? Al
   Al20       1.0     0.776777     0.422741     0.300620    Uiso  ? Al
   Al21       1.0     0.891152     0.535265     0.048387    Uiso  ? Al
   Al22       1.0     0.444344     0.432904     0.799861    Uiso  ? Al
   Al23       1.0     0.116675     0.761665     0.303096    Uiso  ? Al
   Al24       1.0     0.220191     0.873460     0.052647    Uiso  ? Al
   Al25       1.0     0.784415     0.754638     0.796326    Uiso  ? Al
   Al26       1.0     0.893987     0.874282     0.558792    Uiso  ? Al
   Al27       1.0     0.439110     0.759863     0.298892    Uiso  ? Al
   Al28       1.0     0.555765     0.867078     0.054437    Uiso  ? Al
   Al29       1.0     0.112817     0.760838     0.801950    Uiso  ? Al
   Al30       1.0     0.223446     0.871191     0.554714    Uiso  ? Al
   Al31       1.0     0.890985     0.873703     0.048340    Uiso  ? Al
   Al32       1.0     0.441724     0.755589     0.801773    Uiso  ? Al
   Hf1        1.0     0.442996     0.096213     0.809073    Uiso  ? Hf
   Hf2        1.0     0.780448     0.759443     0.313062    Uiso  ? Hf
   Mg1        1.0     0.555540     0.539781     0.553933    Uiso  ? Mg
   Mg2        1.0     0.549511     0.870927     0.554396    Uiso  ? Mg
   N1         1.0     0.222286     0.205090     0.358223    Uiso  ? N
   N2         1.0     0.109628     0.094088     0.113952    Uiso  ? N
   N3         1.0     0.889210     0.204655     0.863377    Uiso  ? N
   N4         1.0     0.776038     0.096718     0.611560    Uiso  ? N
   N5         1.0     0.555662     0.205563     0.356642    Uiso  ? N
   N6         1.0     0.442833     0.096217     0.100817    Uiso  ? N
   N7         1.0     0.201730     0.215336     0.866857    Uiso  ? N
   N8         1.0     0.110302     0.094861     0.609866    Uiso  ? N
   N9         1.0     0.889329     0.205716     0.361759    Uiso  ? N
   N10        1.0     0.779439     0.093254     0.112592    Uiso  ? N
   N11        1.0     0.565583     0.214281     0.867595    Uiso  ? N
   N12        1.0     0.437048     0.108963     0.607103    Uiso  ? N
   N13        1.0     0.220819     0.540058     0.361243    Uiso  ? N
   N14        1.0     0.109862     0.429637     0.112652    Uiso  ? N
   N15        1.0     0.889748     0.538701     0.860267    Uiso  ? N
   N16        1.0     0.792089     0.419052     0.617306    Uiso  ? N
   N17        1.0     0.556526     0.539505     0.346674    Uiso  ? N
   N18        1.0     0.441823     0.428875     0.111298    Uiso  ? N
   N19        1.0     0.221683     0.538886     0.862215    Uiso  ? N
   N20        1.0     0.113931     0.425934     0.611567    Uiso  ? N
   N21        1.0     0.899172     0.517688     0.365962    Uiso  ? N
   N22        1.0     0.779974     0.426721     0.108945    Uiso  ? N
   N23        1.0     0.556862     0.537049     0.863486    Uiso  ? N
   N24        1.0     0.437531     0.421178     0.614378    Uiso  ? N
   N25        1.0     0.222157     0.872768     0.361440    Uiso  ? N
   N26        1.0     0.109952     0.761380     0.111683    Uiso  ? N
   N27        1.0     0.888215     0.873177     0.858300    Uiso  ? N
   N28        1.0     0.793249     0.752930     0.604448    Uiso  ? N
   N29        1.0     0.538470     0.881410     0.347016    Uiso  ? N
   N30        1.0     0.441168     0.761483     0.107835    Uiso  ? N
   N31        1.0     0.218750     0.874852     0.864201    Uiso  ? N
   N32        1.0     0.112153     0.760772     0.612725    Uiso  ? N
   N33        1.0     0.898817     0.883051     0.366748    Uiso  ? N
   N34        1.0     0.780986     0.759570     0.104911    Uiso  ? N
   N35        1.0     0.566718     0.853460     0.863852    Uiso  ? N
   N36        1.0     0.428272     0.767947     0.621094    Uiso  ? N
