
#======================================================================
# CRYSTAL DATA
#----------------------------------------------------------------------
data_VESTA_phase_1

_chemical_name_common                  'Al   Hf   Mg   N                      '
_cell_length_a                         10.019537
_cell_length_b                         9.992608
_cell_length_c                         8.648429
_cell_angle_alpha                      90.018814
_cell_angle_beta                       90.012024
_cell_angle_gamma                      60.037739
_cell_volume                           750.169430
_space_group_name_H-M_alt              'P 1'
_space_group_IT_number                 1

loop_
_space_group_symop_operation_xyz
   'x, y, z'

loop_
   _atom_site_label
   _atom_site_occupancy
   _atom_site_fract_x
   _atom_site_fract_y
   _atom_site_fract_z
   _atom_site_adp_type
   _atom_site_U_iso_or_equiv
   _atom_site_type_symbol
   Al1        1.0     0.109118     0.091784     0.361116    Uiso  ? Al
   Al2        1.0     0.217304     0.207726     0.121073    Uiso  ? Al
   Al3        1.0     0.779712     0.098416     0.864304    Uiso  ? Al
   Al4        1.0     0.891947     0.204343     0.614160    Uiso  ? Al
   Al5        1.0     0.440367     0.097508     0.361361    Uiso  ? Al
   Al6        1.0     0.556795     0.209493     0.119488    Uiso  ? Al
   Al7        1.0     0.105577     0.095506     0.867324    Uiso  ? Al
   Al8        1.0     0.213754     0.209384     0.601493    Uiso  ? Al
   Al9        1.0     0.781188     0.096809     0.362068    Uiso  ? Al
   Al10       1.0     0.887653     0.208056     0.113991    Uiso  ? Al
   Al11       1.0     0.556263     0.209932     0.598958    Uiso  ? Al
   Al12       1.0     0.113436     0.427044     0.362691    Uiso  ? Al
   Al13       1.0     0.223419     0.538837     0.112899    Uiso  ? Al
   Al14       1.0     0.775835     0.426106     0.859064    Uiso  ? Al
   Al15       1.0     0.896242     0.531612     0.623371    Uiso  ? Al
   Al16       1.0     0.442846     0.431996     0.363339    Uiso  ? Al
   Al17       1.0     0.555528     0.539887     0.105657    Uiso  ? Al
   Al18       1.0     0.110837     0.429993     0.864858    Uiso  ? Al
   Al19       1.0     0.221885     0.538329     0.612290    Uiso  ? Al
   Al20       1.0     0.778251     0.424136     0.367050    Uiso  ? Al
   Al21       1.0     0.892325     0.530444     0.101408    Uiso  ? Al
   Al22       1.0     0.445028     0.432065     0.857542    Uiso  ? Al
   Al23       1.0     0.115108     0.762239     0.363841    Uiso  ? Al
   Al24       1.0     0.223909     0.870734     0.110115    Uiso  ? Al
   Al25       1.0     0.781909     0.757484     0.858623    Uiso  ? Al
   Al26       1.0     0.893234     0.873917     0.622413    Uiso  ? Al
   Al27       1.0     0.437225     0.760073     0.373211    Uiso  ? Al
   Al28       1.0     0.550203     0.868373     0.104225    Uiso  ? Al
   Al29       1.0     0.114008     0.759506     0.863523    Uiso  ? Al
   Al30       1.0     0.217471     0.875430     0.617854    Uiso  ? Al
   Al31       1.0     0.893247     0.875333     0.101535    Uiso  ? Al
   Al32       1.0     0.442798     0.755778     0.850464    Uiso  ? Al
   Hf1        1.0     0.442486     0.097804     0.850976    Uiso  ? Hf
   Hf2        1.0     0.781340     0.759031     0.354783    Uiso  ? Hf
   Mg1        1.0     0.557090     0.535950     0.608281    Uiso  ? Mg
   Mg2        1.0     0.554149     0.868341     0.605975    Uiso  ? Mg
   N1         1.0     0.219768     0.206153     0.349773    Uiso  ? N
   N2         1.0     0.109883     0.095901     0.098624    Uiso  ? N
   N3         1.0     0.889854     0.204065     0.846053    Uiso  ? N
   N4         1.0     0.779502     0.093539     0.595360    Uiso  ? N
   N5         1.0     0.558424     0.203943     0.349277    Uiso  ? N
   N6         1.0     0.441359     0.098398     0.105300    Uiso  ? N
   N7         1.0     0.203782     0.213612     0.842424    Uiso  ? N
   N8         1.0     0.109149     0.093638     0.591878    Uiso  ? N
   N9         1.0     0.888655     0.205762     0.344157    Uiso  ? N
   N10        1.0     0.776603     0.097103     0.095907    Uiso  ? N
   N11        1.0     0.564367     0.213550     0.845002    Uiso  ? N
   N12        1.0     0.436579     0.107789     0.595998    Uiso  ? N
   N13        1.0     0.219353     0.541794     0.345002    Uiso  ? N
   N14        1.0     0.114234     0.426050     0.095735    Uiso  ? N
   N15        1.0     0.891450     0.537048     0.853413    Uiso  ? N
   N16        1.0     0.793323     0.420651     0.599109    Uiso  ? N
   N17        1.0     0.557748     0.539007     0.341502    Uiso  ? N
   N18        1.0     0.442794     0.427280     0.099591    Uiso  ? N
   N19        1.0     0.222728     0.537981     0.846172    Uiso  ? N
   N20        1.0     0.110734     0.429311     0.594653    Uiso  ? N
   N21        1.0     0.897887     0.521552     0.337631    Uiso  ? N
   N22        1.0     0.778948     0.425551     0.092113    Uiso  ? N
   N23        1.0     0.556687     0.536709     0.858731    Uiso  ? N
   N24        1.0     0.436209     0.423586     0.593866    Uiso  ? N
   N25        1.0     0.220556     0.872385     0.341086    Uiso  ? N
   N26        1.0     0.112833     0.759501     0.092341    Uiso  ? N
   N27        1.0     0.889031     0.874644     0.852480    Uiso  ? N
   N28        1.0     0.794833     0.752513     0.605541    Uiso  ? N
   N29        1.0     0.541387     0.877380     0.342830    Uiso  ? N
   N30        1.0     0.440735     0.761234     0.091393    Uiso  ? N
   N31        1.0     0.217549     0.876192     0.849621    Uiso  ? N
   N32        1.0     0.109838     0.762183     0.598593    Uiso  ? N
   N33        1.0     0.898675     0.880186     0.339503    Uiso  ? N
   N34        1.0     0.780375     0.760082     0.096511    Uiso  ? N
   N35        1.0     0.563616     0.858783     0.859351    Uiso  ? N
   N36        1.0     0.427860     0.766864     0.601974    Uiso  ? N
