
#======================================================================
# CRYSTAL DATA
#----------------------------------------------------------------------
data_VESTA_phase_1

_chemical_name_common                  'Al   Hf   Mg   N                      '
_cell_length_a                         9.940151
_cell_length_b                         9.912151
_cell_length_c                         8.892693
_cell_angle_alpha                      90.021469
_cell_angle_beta                       90.018623
_cell_angle_gamma                      60.042816
_cell_volume                           759.122741
_space_group_name_H-M_alt              'P 1'
_space_group_IT_number                 1

loop_
_space_group_symop_operation_xyz
   'x, y, z'

loop_
   _atom_site_label
   _atom_site_occupancy
   _atom_site_fract_x
   _atom_site_fract_y
   _atom_site_fract_z
   _atom_site_adp_type
   _atom_site_U_iso_or_equiv
   _atom_site_type_symbol
   Al1        1.0     0.109195     0.091487     0.366744    Uiso  ? Al
   Al2        1.0     0.218831     0.207287     0.127274    Uiso  ? Al
   Al3        1.0     0.779558     0.098801     0.870659    Uiso  ? Al
   Al4        1.0     0.892345     0.204025     0.620500    Uiso  ? Al
   Al5        1.0     0.440165     0.097817     0.370796    Uiso  ? Al
   Al6        1.0     0.556296     0.208374     0.126193    Uiso  ? Al
   Al7        1.0     0.105218     0.095983     0.874393    Uiso  ? Al
   Al8        1.0     0.212397     0.209905     0.607503    Uiso  ? Al
   Al9        1.0     0.781499     0.096580     0.369362    Uiso  ? Al
   Al10       1.0     0.887199     0.208253     0.120510    Uiso  ? Al
   Al11       1.0     0.556615     0.210912     0.606355    Uiso  ? Al
   Al12       1.0     0.113305     0.427178     0.369733    Uiso  ? Al
   Al13       1.0     0.223000     0.539054     0.119516    Uiso  ? Al
   Al14       1.0     0.775759     0.425971     0.865142    Uiso  ? Al
   Al15       1.0     0.895932     0.532749     0.628768    Uiso  ? Al
   Al16       1.0     0.442467     0.431914     0.369637    Uiso  ? Al
   Al17       1.0     0.555763     0.539996     0.109862    Uiso  ? Al
   Al18       1.0     0.110934     0.429755     0.871040    Uiso  ? Al
   Al19       1.0     0.222305     0.538107     0.619016    Uiso  ? Al
   Al20       1.0     0.778874     0.423812     0.373929    Uiso  ? Al
   Al21       1.0     0.892901     0.529428     0.106527    Uiso  ? Al
   Al22       1.0     0.445179     0.431873     0.867547    Uiso  ? Al
   Al23       1.0     0.115154     0.762468     0.371465    Uiso  ? Al
   Al24       1.0     0.224075     0.870297     0.116031    Uiso  ? Al
   Al25       1.0     0.781974     0.757478     0.866880    Uiso  ? Al
   Al26       1.0     0.892733     0.873311     0.627918    Uiso  ? Al
   Al27       1.0     0.436462     0.760406     0.379808    Uiso  ? Al
   Al28       1.0     0.548954     0.870295     0.107034    Uiso  ? Al
   Al29       1.0     0.114184     0.759280     0.868945    Uiso  ? Al
   Al30       1.0     0.217111     0.875898     0.624268    Uiso  ? Al
   Al31       1.0     0.893844     0.875799     0.107059    Uiso  ? Al
   Al32       1.0     0.442963     0.755734     0.856449    Uiso  ? Al
   Hf1        1.0     0.442226     0.097938     0.850869    Uiso  ? Hf
   Hf2        1.0     0.781531     0.758885     0.355244    Uiso  ? Hf
   Mg1        1.0     0.556807     0.535570     0.613730    Uiso  ? Mg
   Mg2        1.0     0.556038     0.866934     0.609254    Uiso  ? Mg
   N1         1.0     0.220543     0.205992     0.345541    Uiso  ? N
   N2         1.0     0.110096     0.096242     0.093345    Uiso  ? N
   N3         1.0     0.890081     0.203859     0.839601    Uiso  ? N
   N4         1.0     0.780433     0.092680     0.588996    Uiso  ? N
   N5         1.0     0.558203     0.203339     0.344813    Uiso  ? N
   N6         1.0     0.441280     0.098800     0.096989    Uiso  ? N
   N7         1.0     0.201965     0.214295     0.833857    Uiso  ? N
   N8         1.0     0.108758     0.093202     0.584922    Uiso  ? N
   N9         1.0     0.888369     0.205909     0.337953    Uiso  ? N
   N10        1.0     0.775590     0.098000     0.089148    Uiso  ? N
   N11        1.0     0.565098     0.214249     0.835022    Uiso  ? N
   N12        1.0     0.436467     0.107773     0.595625    Uiso  ? N
   N13        1.0     0.219076     0.542042     0.338258    Uiso  ? N
   N14        1.0     0.115119     0.425188     0.089232    Uiso  ? N
   N15        1.0     0.891252     0.537615     0.849109    Uiso  ? N
   N16        1.0     0.794182     0.420580     0.593032    Uiso  ? N
   N17        1.0     0.557739     0.539232     0.337205    Uiso  ? N
   N18        1.0     0.443043     0.426401     0.092641    Uiso  ? N
   N19        1.0     0.222989     0.537610     0.839612    Uiso  ? N
   N20        1.0     0.110031     0.430259     0.588432    Uiso  ? N
   N21        1.0     0.898593     0.520074     0.329941    Uiso  ? N
   N22        1.0     0.778861     0.425088     0.085487    Uiso  ? N
   N23        1.0     0.556679     0.536527     0.854133    Uiso  ? N
   N24        1.0     0.435353     0.424128     0.585639    Uiso  ? N
   N25        1.0     0.220976     0.871879     0.334735    Uiso  ? N
   N26        1.0     0.113463     0.759092     0.085568    Uiso  ? N
   N27        1.0     0.888724     0.874285     0.848148    Uiso  ? N
   N28        1.0     0.795866     0.752041     0.597055    Uiso  ? N
   N29        1.0     0.539735     0.878477     0.339362    Uiso  ? N
   N30        1.0     0.440611     0.761460     0.084216    Uiso  ? N
   N31        1.0     0.217120     0.876761     0.843661    Uiso  ? N
   N32        1.0     0.109395     0.762487     0.592751    Uiso  ? N
   N33        1.0     0.899505     0.880747     0.331417    Uiso  ? N
   N34        1.0     0.779925     0.760294     0.095967    Uiso  ? N
   N35        1.0     0.564595     0.858002     0.855443    Uiso  ? N
   N36        1.0     0.427290     0.767157     0.596863    Uiso  ? N
