
#======================================================================
# CRYSTAL DATA
#----------------------------------------------------------------------
data_VESTA_phase_1

_chemical_name_common                  'Al   Hf   Mg   N                      '
_cell_length_a                         9.702209
_cell_length_b                         9.692801
_cell_length_c                         9.590841
_cell_angle_alpha                      89.994591
_cell_angle_beta                       89.979172
_cell_angle_gamma                      60.051758
_cell_volume                           781.508045
_space_group_name_H-M_alt              'P 1'
_space_group_IT_number                 1

loop_
_space_group_symop_operation_xyz
   'x, y, z'

loop_
   _atom_site_label
   _atom_site_occupancy
   _atom_site_fract_x
   _atom_site_fract_y
   _atom_site_fract_z
   _atom_site_adp_type
   _atom_site_U_iso_or_equiv
   _atom_site_type_symbol
   Al1        1.0     0.109701     0.093324     0.330359    Uiso  ? Al
   Al2        1.0     0.211294     0.210186     0.084669    Uiso  ? Al
   Al3        1.0     0.780398     0.097926     0.827525    Uiso  ? Al
   Al4        1.0     0.889360     0.207054     0.578263    Uiso  ? Al
   Al5        1.0     0.439395     0.098975     0.322076    Uiso  ? Al
   Al6        1.0     0.559327     0.211606     0.086529    Uiso  ? Al
   Al7        1.0     0.105547     0.094229     0.825449    Uiso  ? Al
   Al8        1.0     0.220335     0.207330     0.575138    Uiso  ? Al
   Al9        1.0     0.780282     0.098264     0.328429    Uiso  ? Al
   Al10       1.0     0.890314     0.204494     0.077997    Uiso  ? Al
   Al11       1.0     0.552912     0.208974     0.573855    Uiso  ? Al
   Al12       1.0     0.115369     0.424778     0.328056    Uiso  ? Al
   Al13       1.0     0.222625     0.538896     0.078284    Uiso  ? Al
   Al14       1.0     0.777950     0.426347     0.829581    Uiso  ? Al
   Al15       1.0     0.897610     0.525332     0.584252    Uiso  ? Al
   Al16       1.0     0.443157     0.431618     0.330985    Uiso  ? Al
   Al17       1.0     0.554363     0.539206     0.083460    Uiso  ? Al
   Al18       1.0     0.107932     0.431948     0.827006    Uiso  ? Al
   Al19       1.0     0.222521     0.538640     0.579505    Uiso  ? Al
   Al20       1.0     0.777527     0.422551     0.325807    Uiso  ? Al
   Al21       1.0     0.890483     0.537176     0.075092    Uiso  ? Al
   Al22       1.0     0.444973     0.432382     0.823683    Uiso  ? Al
   Al23       1.0     0.115126     0.762103     0.326197    Uiso  ? Al
   Al24       1.0     0.221435     0.873386     0.078995    Uiso  ? Al
   Al25       1.0     0.783810     0.754782     0.819681    Uiso  ? Al
   Al26       1.0     0.895853     0.875763     0.586380    Uiso  ? Al
   Al27       1.0     0.438744     0.759959     0.330468    Uiso  ? Al
   Al28       1.0     0.557989     0.863493     0.085389    Uiso  ? Al
   Al29       1.0     0.113702     0.760480     0.829696    Uiso  ? Al
   Al30       1.0     0.221087     0.871732     0.578207    Uiso  ? Al
   Al31       1.0     0.889767     0.872915     0.073935    Uiso  ? Al
   Al32       1.0     0.441577     0.755193     0.823818    Uiso  ? Al
   Hf1        1.0     0.443065     0.097202     0.845596    Uiso  ? Hf
   Hf2        1.0     0.779713     0.760035     0.351847    Uiso  ? Hf
   Mg1        1.0     0.557860     0.537093     0.580945    Uiso  ? Mg
   Mg2        1.0     0.546221     0.875135     0.586200    Uiso  ? Mg
   N1         1.0     0.222484     0.205303     0.374200    Uiso  ? N
   N2         1.0     0.109167     0.093835     0.132214    Uiso  ? N
   N3         1.0     0.889875     0.203871     0.880766    Uiso  ? N
   N4         1.0     0.775167     0.097676     0.628943    Uiso  ? N
   N5         1.0     0.556025     0.203975     0.372016    Uiso  ? N
   N6         1.0     0.442533     0.096314     0.114628    Uiso  ? N
   N7         1.0     0.199992     0.215924     0.885409    Uiso  ? N
   N8         1.0     0.110499     0.094795     0.626209    Uiso  ? N
   N9         1.0     0.888937     0.205669     0.378901    Uiso  ? N
   N10        1.0     0.780605     0.092541     0.130096    Uiso  ? N
   N11        1.0     0.566064     0.216375     0.887208    Uiso  ? N
   N12        1.0     0.435765     0.111074     0.630594    Uiso  ? N
   N13        1.0     0.219127     0.541635     0.378733    Uiso  ? N
   N14        1.0     0.109760     0.430324     0.129872    Uiso  ? N
   N15        1.0     0.889762     0.539787     0.877124    Uiso  ? N
   N16        1.0     0.792901     0.418070     0.634955    Uiso  ? N
   N17        1.0     0.558021     0.538222     0.364097    Uiso  ? N
   N18        1.0     0.440845     0.429938     0.131842    Uiso  ? N
   N19        1.0     0.222896     0.538033     0.879681    Uiso  ? N
   N20        1.0     0.114650     0.425500     0.629290    Uiso  ? N
   N21        1.0     0.900140     0.516111     0.382628    Uiso  ? N
   N22        1.0     0.780736     0.426336     0.125639    Uiso  ? N
   N23        1.0     0.556041     0.537694     0.881503    Uiso  ? N
   N24        1.0     0.437476     0.420828     0.628137    Uiso  ? N
   N25        1.0     0.219763     0.873102     0.377876    Uiso  ? N
   N26        1.0     0.109662     0.761552     0.126807    Uiso  ? N
   N27        1.0     0.887095     0.873214     0.874189    Uiso  ? N
   N28        1.0     0.793628     0.752345     0.614898    Uiso  ? N
   N29        1.0     0.537395     0.882907     0.364948    Uiso  ? N
   N30        1.0     0.440656     0.761634     0.129149    Uiso  ? N
   N31        1.0     0.219802     0.875000     0.881718    Uiso  ? N
   N32        1.0     0.112647     0.760372     0.632062    Uiso  ? N
   N33        1.0     0.900031     0.883420     0.384780    Uiso  ? N
   N34        1.0     0.782078     0.759117     0.128844    Uiso  ? N
   N35        1.0     0.567432     0.851916     0.880312    Uiso  ? N
   N36        1.0     0.427815     0.766404     0.632467    Uiso  ? N
