
#======================================================================
# CRYSTAL DATA
#----------------------------------------------------------------------
data_VESTA_phase_1

_chemical_name_common                  'Al   Hf   Mg   N                      '
_cell_length_a                         9.535771
_cell_length_b                         9.517416
_cell_length_c                         10.074920
_cell_angle_alpha                      90.023842
_cell_angle_beta                       89.959297
_cell_angle_gamma                      60.037380
_cell_volume                           792.155218
_space_group_name_H-M_alt              'P 1'
_space_group_IT_number                 1

loop_
_space_group_symop_operation_xyz
   'x, y, z'

loop_
   _atom_site_label
   _atom_site_occupancy
   _atom_site_fract_x
   _atom_site_fract_y
   _atom_site_fract_z
   _atom_site_adp_type
   _atom_site_U_iso_or_equiv
   _atom_site_type_symbol
   Al1        1.0     0.110199     0.092907     0.398879    Uiso  ? Al
   Al2        1.0     0.218775     0.207112     0.152643    Uiso  ? Al
   Al3        1.0     0.782055     0.096630     0.897852    Uiso  ? Al
   Al4        1.0     0.889984     0.206630     0.647444    Uiso  ? Al
   Al5        1.0     0.438541     0.100331     0.405819    Uiso  ? Al
   Al6        1.0     0.556789     0.207203     0.152901    Uiso  ? Al
   Al7        1.0     0.105033     0.094639     0.898155    Uiso  ? Al
   Al8        1.0     0.214633     0.209297     0.641955    Uiso  ? Al
   Al9        1.0     0.779227     0.099046     0.399416    Uiso  ? Al
   Al10       1.0     0.888929     0.205889     0.148498    Uiso  ? Al
   Al11       1.0     0.555188     0.212009     0.641361    Uiso  ? Al
   Al12       1.0     0.115930     0.423999     0.400569    Uiso  ? Al
   Al13       1.0     0.222028     0.539147     0.148260    Uiso  ? Al
   Al14       1.0     0.775529     0.428191     0.898610    Uiso  ? Al
   Al15       1.0     0.893233     0.533831     0.650954    Uiso  ? Al
   Al16       1.0     0.443264     0.429208     0.399053    Uiso  ? Al
   Al17       1.0     0.556284     0.537785     0.147274    Uiso  ? Al
   Al18       1.0     0.106856     0.432562     0.897791    Uiso  ? Al
   Al19       1.0     0.223914     0.537632     0.646379    Uiso  ? Al
   Al20       1.0     0.779576     0.421371     0.400313    Uiso  ? Al
   Al21       1.0     0.893159     0.530673     0.143875    Uiso  ? Al
   Al22       1.0     0.445409     0.433612     0.900202    Uiso  ? Al
   Al23       1.0     0.116520     0.761747     0.400800    Uiso  ? Al
   Al24       1.0     0.220705     0.872524     0.147834    Uiso  ? Al
   Al25       1.0     0.782766     0.756061     0.903378    Uiso  ? Al
   Al26       1.0     0.891887     0.872562     0.651714    Uiso  ? Al
   Al27       1.0     0.435641     0.761573     0.399532    Uiso  ? Al
   Al28       1.0     0.549630     0.873081     0.146489    Uiso  ? Al
   Al29       1.0     0.113350     0.760035     0.896752    Uiso  ? Al
   Al30       1.0     0.223033     0.872026     0.646952    Uiso  ? Al
   Al31       1.0     0.893256     0.875311     0.143525    Uiso  ? Al
   Al32       1.0     0.444226     0.754955     0.901893    Uiso  ? Al
   Hf1        1.0     0.442672     0.097345     0.887243    Uiso  ? Hf
   Hf2        1.0     0.779862     0.759431     0.390083    Uiso  ? Hf
   Mg1        1.0     0.554574     0.539532     0.646574    Uiso  ? Mg
   Mg2        1.0     0.554914     0.865123     0.646181    Uiso  ? Mg
   N1         1.0     0.221542     0.205260     0.342241    Uiso  ? N
   N2         1.0     0.110809     0.095207     0.089457    Uiso  ? N
   N3         1.0     0.888689     0.206235     0.839171    Uiso  ? N
   N4         1.0     0.779245     0.093520     0.589360    Uiso  ? N
   N5         1.0     0.557178     0.203284     0.342024    Uiso  ? N
   N6         1.0     0.442265     0.097851     0.095805    Uiso  ? N
   N7         1.0     0.200896     0.215476     0.833989    Uiso  ? N
   N8         1.0     0.108844     0.093694     0.588458    Uiso  ? N
   N9         1.0     0.889902     0.204175     0.337769    Uiso  ? N
   N10        1.0     0.776458     0.096363     0.088430    Uiso  ? N
   N11        1.0     0.566033     0.215611     0.834450    Uiso  ? N
   N12        1.0     0.437179     0.107267     0.597399    Uiso  ? N
   N13        1.0     0.219815     0.540756     0.338572    Uiso  ? N
   N14        1.0     0.113568     0.425979     0.088211    Uiso  ? N
   N15        1.0     0.888805     0.538890     0.843349    Uiso  ? N
   N16        1.0     0.793385     0.420730     0.586558    Uiso  ? N
   N17        1.0     0.557763     0.537529     0.338368    Uiso  ? N
   N18        1.0     0.443482     0.426249     0.092158    Uiso  ? N
   N19        1.0     0.223431     0.537276     0.839841    Uiso  ? N
   N20        1.0     0.110303     0.429801     0.589448    Uiso  ? N
   N21        1.0     0.900179     0.518692     0.332799    Uiso  ? N
   N22        1.0     0.778991     0.425568     0.089578    Uiso  ? N
   N23        1.0     0.556343     0.538726     0.853158    Uiso  ? N
   N24        1.0     0.435992     0.423715     0.583545    Uiso  ? N
   N25        1.0     0.218571     0.874107     0.335905    Uiso  ? N
   N26        1.0     0.112560     0.759893     0.086934    Uiso  ? N
   N27        1.0     0.888576     0.872691     0.843933    Uiso  ? N
   N28        1.0     0.795084     0.752611     0.592624    Uiso  ? N
   N29        1.0     0.536988     0.882755     0.337207    Uiso  ? N
   N30        1.0     0.441417     0.761352     0.092889    Uiso  ? N
   N31        1.0     0.222221     0.873266     0.840844    Uiso  ? N
   N32        1.0     0.109674     0.762053     0.591404    Uiso  ? N
   N33        1.0     0.899010     0.881648     0.333838    Uiso  ? N
   N34        1.0     0.779339     0.760148     0.100443    Uiso  ? N
   N35        1.0     0.565111     0.855048     0.853598    Uiso  ? N
   N36        1.0     0.427928     0.767557     0.580605    Uiso  ? N
