
#======================================================================
# CRYSTAL DATA
#----------------------------------------------------------------------
data_VESTA_phase_1

_chemical_name_common                  'Al   Hf   Mg   N                      '
_cell_length_a                         9.528545
_cell_length_b                         9.520364
_cell_length_c                         10.078713
_cell_angle_alpha                      90.027626
_cell_angle_beta                       89.967041
_cell_angle_gamma                      60.042919
_cell_volume                           792.142470
_space_group_name_H-M_alt              'P 1'
_space_group_IT_number                 1

loop_
_space_group_symop_operation_xyz
   'x, y, z'

loop_
   _atom_site_label
   _atom_site_occupancy
   _atom_site_fract_x
   _atom_site_fract_y
   _atom_site_fract_z
   _atom_site_adp_type
   _atom_site_U_iso_or_equiv
   _atom_site_type_symbol
   Al1        1.0     0.110537     0.093397     0.307920    Uiso  ? Al
   Al2        1.0     0.214295     0.208916     0.060399    Uiso  ? Al
   Al3        1.0     0.781806     0.096494     0.804965    Uiso  ? Al
   Al4        1.0     0.889136     0.207408     0.556980    Uiso  ? Al
   Al5        1.0     0.439518     0.099602     0.301215    Uiso  ? Al
   Al6        1.0     0.558330     0.209483     0.060407    Uiso  ? Al
   Al7        1.0     0.105040     0.094162     0.803871    Uiso  ? Al
   Al8        1.0     0.219457     0.207450     0.553312    Uiso  ? Al
   Al9        1.0     0.778889     0.099769     0.306581    Uiso  ? Al
   Al10       1.0     0.889849     0.204845     0.055981    Uiso  ? Al
   Al11       1.0     0.553447     0.210286     0.553135    Uiso  ? Al
   Al12       1.0     0.116002     0.423589     0.306521    Uiso  ? Al
   Al13       1.0     0.221892     0.539257     0.056056    Uiso  ? Al
   Al14       1.0     0.778281     0.426486     0.806121    Uiso  ? Al
   Al15       1.0     0.895013     0.529299     0.562229    Uiso  ? Al
   Al16       1.0     0.444038     0.430701     0.305401    Uiso  ? Al
   Al17       1.0     0.555238     0.538151     0.057442    Uiso  ? Al
   Al18       1.0     0.106941     0.432694     0.804001    Uiso  ? Al
   Al19       1.0     0.223524     0.537966     0.558137    Uiso  ? Al
   Al20       1.0     0.776772     0.422743     0.304112    Uiso  ? Al
   Al21       1.0     0.891148     0.535267     0.051880    Uiso  ? Al
   Al22       1.0     0.444339     0.432906     0.803354    Uiso  ? Al
   Al23       1.0     0.116670     0.761667     0.306595    Uiso  ? Al
   Al24       1.0     0.220184     0.873463     0.056147    Uiso  ? Al
   Al25       1.0     0.784409     0.754640     0.799824    Uiso  ? Al
   Al26       1.0     0.893982     0.874284     0.562285    Uiso  ? Al
   Al27       1.0     0.439104     0.759865     0.302386    Uiso  ? Al
   Al28       1.0     0.555759     0.867082     0.057935    Uiso  ? Al
   Al29       1.0     0.112811     0.760840     0.805448    Uiso  ? Al
   Al30       1.0     0.223441     0.871192     0.558214    Uiso  ? Al
   Al31       1.0     0.890980     0.873706     0.051835    Uiso  ? Al
   Al32       1.0     0.441718     0.755591     0.805275    Uiso  ? Al
   Hf1        1.0     0.442991     0.096214     0.812567    Uiso  ? Hf
   Hf2        1.0     0.780442     0.759446     0.316556    Uiso  ? Hf
   Mg1        1.0     0.555535     0.539785     0.557428    Uiso  ? Mg
   Mg2        1.0     0.549505     0.870928     0.557891    Uiso  ? Mg
   N1         1.0     0.222281     0.205092     0.361718    Uiso  ? N
   N2         1.0     0.109623     0.094091     0.117450    Uiso  ? N
   N3         1.0     0.889205     0.204656     0.866874    Uiso  ? N
   N4         1.0     0.776032     0.096720     0.615054    Uiso  ? N
   N5         1.0     0.555656     0.205565     0.360136    Uiso  ? N
   N6         1.0     0.442827     0.096220     0.104312    Uiso  ? N
   N7         1.0     0.201725     0.215339     0.870350    Uiso  ? N
   N8         1.0     0.110297     0.094864     0.613359    Uiso  ? N
   N9         1.0     0.889323     0.205720     0.365256    Uiso  ? N
   N10        1.0     0.779433     0.093257     0.116088    Uiso  ? N
   N11        1.0     0.565577     0.214283     0.871087    Uiso  ? N
   N12        1.0     0.437042     0.108965     0.610597    Uiso  ? N
   N13        1.0     0.220813     0.540060     0.364740    Uiso  ? N
   N14        1.0     0.109856     0.429639     0.116148    Uiso  ? N
   N15        1.0     0.889744     0.538702     0.863761    Uiso  ? N
   N16        1.0     0.792083     0.419055     0.620804    Uiso  ? N
   N17        1.0     0.556521     0.539507     0.350168    Uiso  ? N
   N18        1.0     0.441817     0.428876     0.114794    Uiso  ? N
   N19        1.0     0.221677     0.538887     0.865710    Uiso  ? N
   N20        1.0     0.113925     0.425936     0.615059    Uiso  ? N
   N21        1.0     0.899166     0.517691     0.369456    Uiso  ? N
   N22        1.0     0.779970     0.426723     0.112438    Uiso  ? N
   N23        1.0     0.556856     0.537050     0.866985    Uiso  ? N
   N24        1.0     0.437526     0.421180     0.617872    Uiso  ? N
   N25        1.0     0.222152     0.872769     0.364938    Uiso  ? N
   N26        1.0     0.109947     0.761382     0.115180    Uiso  ? N
   N27        1.0     0.888209     0.873180     0.861795    Uiso  ? N
   N28        1.0     0.793243     0.752932     0.607944    Uiso  ? N
   N29        1.0     0.538465     0.881412     0.350511    Uiso  ? N
   N30        1.0     0.441162     0.761485     0.111331    Uiso  ? N
   N31        1.0     0.218744     0.874855     0.867699    Uiso  ? N
   N32        1.0     0.112147     0.760775     0.616222    Uiso  ? N
   N33        1.0     0.898812     0.883053     0.370242    Uiso  ? N
   N34        1.0     0.780982     0.759572     0.108405    Uiso  ? N
   N35        1.0     0.566713     0.853462     0.867351    Uiso  ? N
   N36        1.0     0.428267     0.767948     0.624594    Uiso  ? N
