
#======================================================================
# CRYSTAL DATA
#----------------------------------------------------------------------
data_VESTA_phase_1

_chemical_name_common                  'Al   Hf   Mg   N                      '
_cell_length_a                         9.808442
_cell_length_b                         9.781052
_cell_length_c                         9.299264
_cell_angle_alpha                      90.021751
_cell_angle_beta                       90.020653
_cell_angle_gamma                      60.049767
_cell_volume                           773.005037
_space_group_name_H-M_alt              'P 1'
_space_group_IT_number                 1

loop_
_space_group_symop_operation_xyz
   'x, y, z'

loop_
   _atom_site_label
   _atom_site_occupancy
   _atom_site_fract_x
   _atom_site_fract_y
   _atom_site_fract_z
   _atom_site_adp_type
   _atom_site_U_iso_or_equiv
   _atom_site_type_symbol
   Al1        1.0     0.109534     0.091756     0.374073    Uiso  ? Al
   Al2        1.0     0.220510     0.206607     0.132245    Uiso  ? Al
   Al3        1.0     0.780124     0.098396     0.876773    Uiso  ? Al
   Al4        1.0     0.891959     0.204589     0.626821    Uiso  ? Al
   Al5        1.0     0.439524     0.098828     0.383800    Uiso  ? Al
   Al6        1.0     0.555687     0.207032     0.131520    Uiso  ? Al
   Al7        1.0     0.104810     0.095977     0.880187    Uiso  ? Al
   Al8        1.0     0.210728     0.210828     0.616797    Uiso  ? Al
   Al9        1.0     0.780962     0.097178     0.376840    Uiso  ? Al
   Al10       1.0     0.887433     0.207692     0.127061    Uiso  ? Al
   Al11       1.0     0.557030     0.212462     0.616344    Uiso  ? Al
   Al12       1.0     0.114004     0.426323     0.377400    Uiso  ? Al
   Al13       1.0     0.222506     0.539188     0.126129    Uiso  ? Al
   Al14       1.0     0.775510     0.426649     0.873028    Uiso  ? Al
   Al15       1.0     0.894760     0.534418     0.632753    Uiso  ? Al
   Al16       1.0     0.442435     0.430978     0.375763    Uiso  ? Al
   Al17       1.0     0.556016     0.539496     0.119242    Uiso  ? Al
   Al18       1.0     0.109870     0.430417     0.876976    Uiso  ? Al
   Al19       1.0     0.222982     0.537938     0.625525    Uiso  ? Al
   Al20       1.0     0.779592     0.422894     0.380430    Uiso  ? Al
   Al21       1.0     0.894085     0.527840     0.115983    Uiso  ? Al
   Al22       1.0     0.445428     0.432205     0.877343    Uiso  ? Al
   Al23       1.0     0.115452     0.762522     0.379121    Uiso  ? Al
   Al24       1.0     0.223227     0.870796     0.123733    Uiso  ? Al
   Al25       1.0     0.782283     0.756937     0.880388    Uiso  ? Al
   Al26       1.0     0.891980     0.872247     0.632308    Uiso  ? Al
   Al27       1.0     0.435605     0.761071     0.384419    Uiso  ? Al
   Al28       1.0     0.546800     0.873650     0.115987    Uiso  ? Al
   Al29       1.0     0.113945     0.759374     0.874660    Uiso  ? Al
   Al30       1.0     0.218360     0.875130     0.629396    Uiso  ? Al
   Al31       1.0     0.894649     0.876681     0.116314    Uiso  ? Al
   Al32       1.0     0.443570     0.755217     0.868668    Uiso  ? Al
   Hf1        1.0     0.442516     0.097114     0.852505    Uiso  ? Hf
   Hf2        1.0     0.781344     0.759045     0.357794    Uiso  ? Hf
   Mg1        1.0     0.556084     0.536220     0.621224    Uiso  ? Mg
   Mg2        1.0     0.558547     0.863874     0.616411    Uiso  ? Mg
   N1         1.0     0.221862     0.205478     0.338182    Uiso  ? N
   N2         1.0     0.110329     0.096171     0.085941    Uiso  ? N
   N3         1.0     0.889807     0.204335     0.832698    Uiso  ? N
   N4         1.0     0.780479     0.092557     0.582429    Uiso  ? N
   N5         1.0     0.557564     0.202483     0.337225    Uiso  ? N
   N6         1.0     0.441170     0.099150     0.084737    Uiso  ? N
   N7         1.0     0.199799     0.215341     0.826427    Uiso  ? N
   N8         1.0     0.108426     0.093150     0.578856    Uiso  ? N
   N9         1.0     0.888549     0.205541     0.331183    Uiso  ? N
   N10        1.0     0.775290     0.098163     0.081760    Uiso  ? N
   N11        1.0     0.566035     0.215508     0.827007    Uiso  ? N
   N12        1.0     0.436425     0.107869     0.595117    Uiso  ? N
   N13        1.0     0.218846     0.542050     0.331254    Uiso  ? N
   N14        1.0     0.115320     0.424891     0.081810    Uiso  ? N
   N15        1.0     0.890355     0.538770     0.840880    Uiso  ? N
   N16        1.0     0.794749     0.420460     0.584399    Uiso  ? N
   N17        1.0     0.557855     0.538946     0.331067    Uiso  ? N
   N18        1.0     0.443227     0.426035     0.085859    Uiso  ? N
   N19        1.0     0.223477     0.537217     0.832848    Uiso  ? N
   N20        1.0     0.109753     0.430717     0.582069    Uiso  ? N
   N21        1.0     0.899934     0.517949     0.323104    Uiso  ? N
   N22        1.0     0.778813     0.424897     0.079377    Uiso  ? N
   N23        1.0     0.556515     0.536768     0.846524    Uiso  ? N
   N24        1.0     0.434863     0.424159     0.576855    Uiso  ? N
   N25        1.0     0.220454     0.872230     0.328284    Uiso  ? N
   N26        1.0     0.113668     0.759129     0.078659    Uiso  ? N
   N27        1.0     0.888132     0.873383     0.840315    Uiso  ? N
   N28        1.0     0.797125     0.751475     0.583297    Uiso  ? N
   N29        1.0     0.537194     0.881224     0.332343    Uiso  ? N
   N30        1.0     0.440600     0.761620     0.079063    Uiso  ? N
   N31        1.0     0.218177     0.876239     0.835995    Uiso  ? N
   N32        1.0     0.109188     0.762553     0.585987    Uiso  ? N
   N33        1.0     0.900334     0.881900     0.324342    Uiso  ? N
   N34        1.0     0.779640     0.760343     0.094899    Uiso  ? N
   N35        1.0     0.566257     0.855568     0.847683    Uiso  ? N
   N36        1.0     0.426729     0.767484     0.585155    Uiso  ? N
