
#======================================================================
# CRYSTAL DATA
#----------------------------------------------------------------------
data_VESTA_phase_1

_chemical_name_common                  'Al   Hf   Mg   N                      '
_cell_length_a                         9.536654
_cell_length_b                         9.518227
_cell_length_c                         10.072456
_cell_angle_alpha                      90.023079
_cell_angle_beta                       89.961151
_cell_angle_gamma                      60.038609
_cell_volume                           792.112168
_space_group_name_H-M_alt              'P 1'
_space_group_IT_number                 1

loop_
_space_group_symop_operation_xyz
   'x, y, z'

loop_
   _atom_site_label
   _atom_site_occupancy
   _atom_site_fract_x
   _atom_site_fract_y
   _atom_site_fract_z
   _atom_site_adp_type
   _atom_site_U_iso_or_equiv
   _atom_site_type_symbol
   Al1        1.0     0.110216     0.092903     0.387677    Uiso  ? Al
   Al2        1.0     0.218828     0.207094     0.141436    Uiso  ? Al
   Al3        1.0     0.782069     0.096622     0.886670    Uiso  ? Al
   Al4        1.0     0.890009     0.206614     0.636267    Uiso  ? Al
   Al5        1.0     0.438560     0.100320     0.394704    Uiso  ? Al
   Al6        1.0     0.556783     0.207182     0.141688    Uiso  ? Al
   Al7        1.0     0.105039     0.094639     0.886994    Uiso  ? Al
   Al8        1.0     0.214595     0.209313     0.630783    Uiso  ? Al
   Al9        1.0     0.779242     0.099043     0.388224    Uiso  ? Al
   Al10       1.0     0.888935     0.205895     0.137314    Uiso  ? Al
   Al11       1.0     0.555229     0.212022     0.630189    Uiso  ? Al
   Al12       1.0     0.115955     0.423991     0.389375    Uiso  ? Al
   Al13       1.0     0.222042     0.539150     0.137072    Uiso  ? Al
   Al14       1.0     0.775541     0.428185     0.887399    Uiso  ? Al
   Al15       1.0     0.893257     0.533838     0.639753    Uiso  ? Al
   Al16       1.0     0.443277     0.429201     0.387847    Uiso  ? Al
   Al17       1.0     0.556306     0.537784     0.136082    Uiso  ? Al
   Al18       1.0     0.106877     0.432552     0.886611    Uiso  ? Al
   Al19       1.0     0.223934     0.537623     0.635202    Uiso  ? Al
   Al20       1.0     0.779599     0.421363     0.389142    Uiso  ? Al
   Al21       1.0     0.893195     0.530626     0.132683    Uiso  ? Al
   Al22       1.0     0.445426     0.433600     0.889030    Uiso  ? Al
   Al23       1.0     0.116541     0.761749     0.389628    Uiso  ? Al
   Al24       1.0     0.220725     0.872519     0.136644    Uiso  ? Al
   Al25       1.0     0.782791     0.756042     0.892232    Uiso  ? Al
   Al26       1.0     0.891899     0.872543     0.640510    Uiso  ? Al
   Al27       1.0     0.435652     0.761573     0.388353    Uiso  ? Al
   Al28       1.0     0.549597     0.873126     0.135271    Uiso  ? Al
   Al29       1.0     0.113365     0.760027     0.885556    Uiso  ? Al
   Al30       1.0     0.223040     0.872032     0.635785    Uiso  ? Al
   Al31       1.0     0.893294     0.875328     0.132333    Uiso  ? Al
   Al32       1.0     0.444251     0.754933     0.890686    Uiso  ? Al
   Hf1        1.0     0.442703     0.097299     0.875875    Uiso  ? Hf
   Hf2        1.0     0.779895     0.759422     0.378760    Uiso  ? Hf
   Mg1        1.0     0.554587     0.539513     0.635371    Uiso  ? Mg
   Mg2        1.0     0.555014     0.865024     0.634943    Uiso  ? Mg
   N1         1.0     0.221591     0.205245     0.331097    Uiso  ? N
   N2         1.0     0.110816     0.095211     0.078327    Uiso  ? N
   N3         1.0     0.888708     0.206219     0.828025    Uiso  ? N
   N4         1.0     0.779261     0.093514     0.578209    Uiso  ? N
   N5         1.0     0.557182     0.203260     0.330874    Uiso  ? N
   N6         1.0     0.442271     0.097854     0.084526    Uiso  ? N
   N7         1.0     0.200865     0.215488     0.822850    Uiso  ? N
   N8         1.0     0.108852     0.093687     0.577297    Uiso  ? N
   N9         1.0     0.889911     0.204180     0.326621    Uiso  ? N
   N10        1.0     0.776466     0.096368     0.077281    Uiso  ? N
   N11        1.0     0.566064     0.215622     0.823309    Uiso  ? N
   N12        1.0     0.437194     0.107250     0.586382    Uiso  ? N
   N13        1.0     0.219822     0.540767     0.327419    Uiso  ? N
   N14        1.0     0.113588     0.425976     0.077064    Uiso  ? N
   N15        1.0     0.888826     0.538897     0.832199    Uiso  ? N
   N16        1.0     0.793405     0.420721     0.575432    Uiso  ? N
   N17        1.0     0.557787     0.537527     0.327221    Uiso  ? N
   N18        1.0     0.443494     0.426250     0.081022    Uiso  ? N
   N19        1.0     0.223453     0.537266     0.828694    Uiso  ? N
   N20        1.0     0.110325     0.429794     0.578294    Uiso  ? N
   N21        1.0     0.900220     0.518642     0.321642    Uiso  ? N
   N22        1.0     0.779001     0.425563     0.078408    Uiso  ? N
   N23        1.0     0.556353     0.538709     0.841999    Uiso  ? N
   N24        1.0     0.435998     0.423702     0.572382    Uiso  ? N
   N25        1.0     0.218591     0.874103     0.324752    Uiso  ? N
   N26        1.0     0.112577     0.759892     0.075771    Uiso  ? N
   N27        1.0     0.888579     0.872678     0.832783    Uiso  ? N
   N28        1.0     0.795137     0.752584     0.581361    Uiso  ? N
   N29        1.0     0.536971     0.882787     0.326061    Uiso  ? N
   N30        1.0     0.441427     0.761351     0.081727    Uiso  ? N
   N31        1.0     0.222230     0.873273     0.829705    Uiso  ? N
   N32        1.0     0.109693     0.762048     0.580271    Uiso  ? N
   N33        1.0     0.899055     0.881666     0.322680    Uiso  ? N
   N34        1.0     0.779355     0.760145     0.089364    Uiso  ? N
   N35        1.0     0.565178     0.854972     0.842426    Uiso  ? N
   N36        1.0     0.427928     0.767547     0.569474    Uiso  ? N
