
#======================================================================
# CRYSTAL DATA
#----------------------------------------------------------------------
data_VESTA_phase_1

_chemical_name_common                  'Al   Hf   Mg   N                      '
_cell_length_a                         10.084906
_cell_length_b                         10.064284
_cell_length_c                         8.460508
_cell_angle_alpha                      90.007286
_cell_angle_beta                       89.994469
_cell_angle_gamma                      60.022572
_cell_volume                           743.841746
_space_group_name_H-M_alt              'P 1'
_space_group_IT_number                 1

loop_
_space_group_symop_operation_xyz
   'x, y, z'

loop_
   _atom_site_label
   _atom_site_occupancy
   _atom_site_fract_x
   _atom_site_fract_y
   _atom_site_fract_z
   _atom_site_adp_type
   _atom_site_U_iso_or_equiv
   _atom_site_type_symbol
   Al1        1.0     0.108985     0.092723     0.353065    Uiso  ? Al
   Al2        1.0     0.215557     0.208148     0.111547    Uiso  ? Al
   Al3        1.0     0.779892     0.098079     0.854573    Uiso  ? Al
   Al4        1.0     0.890984     0.205381     0.604200    Uiso  ? Al
   Al5        1.0     0.440351     0.097770     0.354931    Uiso  ? Al
   Al6        1.0     0.557407     0.210588     0.111651    Uiso  ? Al
   Al7        1.0     0.106291     0.094421     0.855136    Uiso  ? Al
   Al8        1.0     0.215022     0.209244     0.595595    Uiso  ? Al
   Al9        1.0     0.780651     0.097367     0.352625    Uiso  ? Al
   Al10       1.0     0.888843     0.207012     0.103996    Uiso  ? Al
   Al11       1.0     0.555911     0.209710     0.592139    Uiso  ? Al
   Al12       1.0     0.114078     0.426482     0.353308    Uiso  ? Al
   Al13       1.0     0.223501     0.538679     0.103743    Uiso  ? Al
   Al14       1.0     0.776027     0.426522     0.852040    Uiso  ? Al
   Al15       1.0     0.896096     0.530370     0.614125    Uiso  ? Al
   Al16       1.0     0.443102     0.431814     0.355880    Uiso  ? Al
   Al17       1.0     0.555128     0.539573     0.104213    Uiso  ? Al
   Al18       1.0     0.110229     0.430570     0.855431    Uiso  ? Al
   Al19       1.0     0.221780     0.538514     0.603307    Uiso  ? Al
   Al20       1.0     0.777705     0.423970     0.357396    Uiso  ? Al
   Al21       1.0     0.892348     0.531098     0.097207    Uiso  ? Al
   Al22       1.0     0.444923     0.432290     0.848461    Uiso  ? Al
   Al23       1.0     0.114777     0.761832     0.352985    Uiso  ? Al
   Al24       1.0     0.222996     0.871966     0.103330    Uiso  ? Al
   Al25       1.0     0.782232     0.756831     0.853513    Uiso  ? Al
   Al26       1.0     0.893744     0.874339     0.613833    Uiso  ? Al
   Al27       1.0     0.438260     0.759629     0.363401    Uiso  ? Al
   Al28       1.0     0.550725     0.867422     0.103994    Uiso  ? Al
   Al29       1.0     0.113934     0.760040     0.855053    Uiso  ? Al
   Al30       1.0     0.218601     0.874108     0.605367    Uiso  ? Al
   Al31       1.0     0.892647     0.875349     0.095762    Uiso  ? Al
   Al32       1.0     0.442281     0.755618     0.845096    Uiso  ? Al
   Hf1        1.0     0.443321     0.097128     0.852140    Uiso  ? Hf
   Hf2        1.0     0.781012     0.759525     0.355468    Uiso  ? Hf
   Mg1        1.0     0.557217     0.536366     0.603058    Uiso  ? Mg
   Mg2        1.0     0.552459     0.869004     0.604067    Uiso  ? Mg
   N1         1.0     0.219153     0.206285     0.353065    Uiso  ? N
   N2         1.0     0.109674     0.095011     0.105435    Uiso  ? N
   N3         1.0     0.889473     0.204616     0.854955    Uiso  ? N
   N4         1.0     0.777584     0.095448     0.604300    Uiso  ? N
   N5         1.0     0.558581     0.204395     0.352054    Uiso  ? N
   N6         1.0     0.441427     0.098060     0.110767    Uiso  ? N
   N7         1.0     0.205670     0.212983     0.855213    Uiso  ? N
   N8         1.0     0.109784     0.094513     0.602555    Uiso  ? N
   N9         1.0     0.889272     0.205067     0.353061    Uiso  ? N
   N10        1.0     0.778421     0.095492     0.104348    Uiso  ? N
   N11        1.0     0.563659     0.213624     0.858187    Uiso  ? N
   N12        1.0     0.436700     0.108247     0.596918    Uiso  ? N
   N13        1.0     0.219299     0.541557     0.353459    Uiso  ? N
   N14        1.0     0.112648     0.427580     0.103806    Uiso  ? N
   N15        1.0     0.891269     0.536427     0.856394    Uiso  ? N
   N16        1.0     0.792077     0.420454     0.605350    Uiso  ? N
   N17        1.0     0.557856     0.538041     0.344868    Uiso  ? N
   N18        1.0     0.442026     0.428511     0.107969    Uiso  ? N
   N19        1.0     0.222746     0.538388     0.855048    Uiso  ? N
   N20        1.0     0.112207     0.427696     0.603766    Uiso  ? N
   N21        1.0     0.897677     0.522629     0.349525    Uiso  ? N
   N22        1.0     0.779713     0.425825     0.101769    Uiso  ? N
   N23        1.0     0.556511     0.537139     0.863094    Uiso  ? N
   N24        1.0     0.437042     0.422605     0.601939    Uiso  ? N
   N25        1.0     0.219010     0.873611     0.351134    Uiso  ? N
   N26        1.0     0.111664     0.760446     0.101730    Uiso  ? N
   N27        1.0     0.889223     0.874915     0.855415    Uiso  ? N
   N28        1.0     0.793787     0.752905     0.611087    Uiso  ? N
   N29        1.0     0.542904     0.877483     0.345241    Uiso  ? N
   N30        1.0     0.440368     0.761189     0.103338    Uiso  ? N
   N31        1.0     0.219019     0.874854     0.856730    Uiso  ? N
   N32        1.0     0.110828     0.761298     0.606507    Uiso  ? N
   N33        1.0     0.897682     0.880335     0.352266    Uiso  ? N
   N34        1.0     0.781599     0.759473     0.097310    Uiso  ? N
   N35        1.0     0.562529     0.858508     0.862704    Uiso  ? N
   N36        1.0     0.428695     0.766222     0.604462    Uiso  ? N
