
#======================================================================
# CRYSTAL DATA
#----------------------------------------------------------------------
data_VESTA_phase_1

_chemical_name_common                  'Al   Hf   Mg   N                      '
_cell_length_a                         9.607303
_cell_length_b                         9.584867
_cell_length_c                         9.880903
_cell_angle_alpha                      90.017624
_cell_angle_beta                       90.001640
_cell_angle_gamma                      60.055180
_cell_volume                           788.417047
_space_group_name_H-M_alt              'P 1'
_space_group_IT_number                 1

loop_
_space_group_symop_operation_xyz
   'x, y, z'

loop_
   _atom_site_label
   _atom_site_occupancy
   _atom_site_fract_x
   _atom_site_fract_y
   _atom_site_fract_z
   _atom_site_adp_type
   _atom_site_U_iso_or_equiv
   _atom_site_type_symbol
   Al1        1.0     0.110124     0.092721     0.381858    Uiso  ? Al
   Al2        1.0     0.220376     0.206541     0.135843    Uiso  ? Al
   Al3        1.0     0.781726     0.096894     0.881913    Uiso  ? Al
   Al4        1.0     0.890536     0.206065     0.631837    Uiso  ? Al
   Al5        1.0     0.438647     0.100126     0.392203    Uiso  ? Al
   Al6        1.0     0.555887     0.206576     0.135672    Uiso  ? Al
   Al7        1.0     0.104653     0.095083     0.883395    Uiso  ? Al
   Al8        1.0     0.211826     0.210567     0.625949    Uiso  ? Al
   Al9        1.0     0.779442     0.098842     0.383061    Uiso  ? Al
   Al10       1.0     0.888427     0.206484     0.132520    Uiso  ? Al
   Al11       1.0     0.556359     0.213013     0.625422    Uiso  ? Al
   Al12       1.0     0.115751     0.424336     0.384050    Uiso  ? Al
   Al13       1.0     0.222049     0.539337     0.131951    Uiso  ? Al
   Al14       1.0     0.775325     0.428054     0.881162    Uiso  ? Al
   Al15       1.0     0.893465     0.534718     0.634822    Uiso  ? Al
   Al16       1.0     0.442987     0.429393     0.381954    Uiso  ? Al
   Al17       1.0     0.556372     0.538207     0.130170    Uiso  ? Al
   Al18       1.0     0.107413     0.432214     0.881908    Uiso  ? Al
   Al19       1.0     0.223816     0.537680     0.630584    Uiso  ? Al
   Al20       1.0     0.779842     0.421532     0.384945    Uiso  ? Al
   Al21       1.0     0.894087     0.528627     0.126699    Uiso  ? Al
   Al22       1.0     0.445513     0.433346     0.884344    Uiso  ? Al
   Al23       1.0     0.116383     0.762109     0.385080    Uiso  ? Al
   Al24       1.0     0.221235     0.872216     0.131156    Uiso  ? Al
   Al25       1.0     0.782766     0.755989     0.888820    Uiso  ? Al
   Al26       1.0     0.891619     0.872038     0.635212    Uiso  ? Al
   Al27       1.0     0.435307     0.761758     0.384626    Uiso  ? Al
   Al28       1.0     0.547168     0.875152     0.128156    Uiso  ? Al
   Al29       1.0     0.113351     0.759880     0.880108    Uiso  ? Al
   Al30       1.0     0.221893     0.872890     0.632084    Uiso  ? Al
   Al31       1.0     0.894284     0.876391     0.126466    Uiso  ? Al
   Al32       1.0     0.444446     0.754581     0.883452    Uiso  ? Al
   Hf1        1.0     0.443024     0.096238     0.862319    Uiso  ? Hf
   Hf2        1.0     0.780468     0.759381     0.367269    Uiso  ? Hf
   Mg1        1.0     0.554712     0.538687     0.629174    Uiso  ? Mg
   Mg2        1.0     0.558189     0.862035     0.626968    Uiso  ? Mg
   N1         1.0     0.222594     0.204980     0.329503    Uiso  ? N
   N2         1.0     0.110530     0.095590     0.077288    Uiso  ? N
   N3         1.0     0.888958     0.205650     0.826117    Uiso  ? N
   N4         1.0     0.779472     0.093389     0.576095    Uiso  ? N
   N5         1.0     0.556846     0.202478     0.328881    Uiso  ? N
   N6         1.0     0.441742     0.098405     0.077245    Uiso  ? N
   N7         1.0     0.198987     0.216155     0.820938    Uiso  ? N
   N8         1.0     0.108508     0.093587     0.574478    Uiso  ? N
   N9         1.0     0.889442     0.204653     0.324641    Uiso  ? N
   N10        1.0     0.776106     0.096992     0.075132    Uiso  ? N
   N11        1.0     0.566659     0.216279     0.821389    Uiso  ? N
   N12        1.0     0.436880     0.107368     0.589772    Uiso  ? N
   N13        1.0     0.219316     0.541399     0.325085    Uiso  ? N
   N14        1.0     0.114084     0.425760     0.074986    Uiso  ? N
   N15        1.0     0.889058     0.539477     0.830723    Uiso  ? N
   N16        1.0     0.793940     0.420578     0.574682    Uiso  ? N
   N17        1.0     0.557994     0.537862     0.325167    Uiso  ? N
   N18        1.0     0.443392     0.426385     0.079314    Uiso  ? N
   N19        1.0     0.223646     0.537103     0.826556    Uiso  ? N
   N20        1.0     0.110220     0.430128     0.576033    Uiso  ? N
   N21        1.0     0.900919     0.517038     0.318817    Uiso  ? N
   N22        1.0     0.778804     0.425414     0.075171    Uiso  ? N
   N23        1.0     0.556225     0.538129     0.839223    Uiso  ? N
   N24        1.0     0.435453     0.423695     0.569770    Uiso  ? N
   N25        1.0     0.218931     0.873739     0.322401    Uiso  ? N
   N26        1.0     0.112891     0.759805     0.072957    Uiso  ? N
   N27        1.0     0.887985     0.872529     0.831019    Uiso  ? N
   N28        1.0     0.796589     0.751836     0.574679    Uiso  ? N
   N29        1.0     0.535632     0.883872     0.324303    Uiso  ? N
   N30        1.0     0.441170     0.761506     0.078055    Uiso  ? N
   N31        1.0     0.221303     0.874141     0.828128    Uiso  ? N
   N32        1.0     0.109589     0.762226     0.578820    Uiso  ? N
   N33        1.0     0.900152     0.882521     0.319852    Uiso  ? N
   N34        1.0     0.779327     0.760302     0.090185    Uiso  ? N
   N35        1.0     0.566898     0.853043     0.839451    Uiso  ? N
   N36        1.0     0.427081     0.767606     0.569464    Uiso  ? N
