
#======================================================================
# CRYSTAL DATA
#----------------------------------------------------------------------
data_VESTA_phase_1

_chemical_name_common                  'Al   Hf   Mg   N                      '
_cell_length_a                         9.854043
_cell_length_b                         9.826164
_cell_length_c                         9.159880
_cell_angle_alpha                      90.022072
_cell_angle_beta                       90.021103
_cell_angle_gamma                      60.047485
_cell_volume                           768.469156
_space_group_name_H-M_alt              'P 1'
_space_group_IT_number                 1

loop_
_space_group_symop_operation_xyz
   'x, y, z'

loop_
   _atom_site_label
   _atom_site_occupancy
   _atom_site_fract_x
   _atom_site_fract_y
   _atom_site_fract_z
   _atom_site_adp_type
   _atom_site_U_iso_or_equiv
   _atom_site_type_symbol
   Al1        1.0     0.109396     0.091597     0.371751    Uiso  ? Al
   Al2        1.0     0.220075     0.206807     0.130984    Uiso  ? Al
   Al3        1.0     0.779832     0.098655     0.875031    Uiso  ? Al
   Al4        1.0     0.892185     0.204309     0.625007    Uiso  ? Al
   Al5        1.0     0.439765     0.098456     0.380022    Uiso  ? Al
   Al6        1.0     0.555850     0.207408     0.130168    Uiso  ? Al
   Al7        1.0     0.104931     0.096060     0.878692    Uiso  ? Al
   Al8        1.0     0.211164     0.210555     0.613798    Uiso  ? Al
   Al9        1.0     0.781250     0.096867     0.374691    Uiso  ? Al
   Al10       1.0     0.887272     0.207947     0.125181    Uiso  ? Al
   Al11       1.0     0.556934     0.211988     0.613233    Uiso  ? Al
   Al12       1.0     0.113667     0.426726     0.375152    Uiso  ? Al
   Al13       1.0     0.222651     0.539154     0.124218    Uiso  ? Al
   Al14       1.0     0.775610     0.426324     0.870584    Uiso  ? Al
   Al15       1.0     0.895184     0.533937     0.631818    Uiso  ? Al
   Al16       1.0     0.442387     0.431370     0.373964    Uiso  ? Al
   Al17       1.0     0.555927     0.539740     0.115951    Uiso  ? Al
   Al18       1.0     0.110365     0.430078     0.875292    Uiso  ? Al
   Al19       1.0     0.222759     0.537982     0.623682    Uiso  ? Al
   Al20       1.0     0.779389     0.423246     0.378647    Uiso  ? Al
   Al21       1.0     0.893728     0.528281     0.112786    Uiso  ? Al
   Al22       1.0     0.445348     0.432006     0.874654    Uiso  ? Al
   Al23       1.0     0.115305     0.762540     0.376942    Uiso  ? Al
   Al24       1.0     0.223626     0.870519     0.121363    Uiso  ? Al
   Al25       1.0     0.782183     0.757158     0.876372    Uiso  ? Al
   Al26       1.0     0.892207     0.872564     0.631213    Uiso  ? Al
   Al27       1.0     0.435852     0.760833     0.383512    Uiso  ? Al
   Al28       1.0     0.547445     0.872586     0.112598    Uiso  ? Al
   Al29       1.0     0.114085     0.759298     0.872971    Uiso  ? Al
   Al30       1.0     0.217729     0.875540     0.628081    Uiso  ? Al
   Al31       1.0     0.894431     0.876425     0.113243    Uiso  ? Al
   Al32       1.0     0.443306     0.755430     0.864388    Uiso  ? Al
   Hf1        1.0     0.442357     0.097480     0.851689    Uiso  ? Hf
   Hf2        1.0     0.781456     0.758963     0.356693    Uiso  ? Hf
   Mg1        1.0     0.556375     0.535831     0.618885    Uiso  ? Mg
   Mg2        1.0     0.557845     0.864929     0.613856    Uiso  ? Mg
   N1         1.0     0.221440     0.205667     0.340653    Uiso  ? N
   N2         1.0     0.110266     0.096248     0.088342    Uiso  ? N
   N3         1.0     0.889960     0.204098     0.834734    Uiso  ? N
   N4         1.0     0.780592     0.092481     0.584366    Uiso  ? N
   N5         1.0     0.557803     0.202721     0.339730    Uiso  ? N
   N6         1.0     0.441173     0.099112     0.088413    Uiso  ? N
   N7         1.0     0.200432     0.214999     0.828374    Uiso  ? N
   N8         1.0     0.108501     0.093111     0.580477    Uiso  ? N
   N9         1.0     0.888423     0.205713     0.333207    Uiso  ? N
   N10        1.0     0.775259     0.098243     0.083932    Uiso  ? N
   N11        1.0     0.565740     0.215114     0.829044    Uiso  ? N
   N12        1.0     0.436413     0.107860     0.595369    Uiso  ? N
   N13        1.0     0.218877     0.542096     0.333293    Uiso  ? N
   N14        1.0     0.115393     0.424869     0.084020    Uiso  ? N
   N15        1.0     0.890706     0.538374     0.843712    Uiso  ? N
   N16        1.0     0.794665     0.420493     0.587163    Uiso  ? N
   N17        1.0     0.557802     0.539121     0.332954    Uiso  ? N
   N18        1.0     0.443171     0.426049     0.087839    Uiso  ? N
   N19        1.0     0.223337     0.537319     0.834828    Uiso  ? N
   N20        1.0     0.109761     0.430673     0.583935    Uiso  ? N
   N21        1.0     0.899488     0.518603     0.324873    Uiso  ? N
   N22        1.0     0.778840     0.424883     0.081033    Uiso  ? N
   N23        1.0     0.556589     0.536591     0.849033    Uiso  ? N
   N24        1.0     0.434925     0.424220     0.579369    Uiso  ? N
   N25        1.0     0.220745     0.871992     0.330171    Uiso  ? N
   N26        1.0     0.113695     0.759045     0.080644    Uiso  ? N
   N27        1.0     0.888328     0.873703     0.842970    Uiso  ? N
   N28        1.0     0.796804     0.751613     0.587505    Uiso  ? N
   N29        1.0     0.538000     0.880253     0.334739    Uiso  ? N
   N30        1.0     0.440543     0.761598     0.080136    Uiso  ? N
   N31        1.0     0.217619     0.876572     0.838365    Uiso  ? N
   N32        1.0     0.109200     0.762568     0.588055    Uiso  ? N
   N33        1.0     0.900119     0.881521     0.326176    Uiso  ? N
   N34        1.0     0.779726     0.760340     0.095309    Uiso  ? N
   N35        1.0     0.565717     0.856484     0.850384    Uiso  ? N
   N36        1.0     0.426870     0.767386     0.589368    Uiso  ? N
