
#======================================================================
# CRYSTAL DATA
#----------------------------------------------------------------------
data_VESTA_phase_1

_chemical_name_common                  'Al   Hf   Mg   N                      '
_cell_length_a                         9.528596
_cell_length_b                         9.520411
_cell_length_c                         10.078568
_cell_angle_alpha                      90.027451
_cell_angle_beta                       89.967316
_cell_angle_gamma                      60.043068
_cell_volume                           792.140359
_space_group_name_H-M_alt              'P 1'
_space_group_IT_number                 1

loop_
_space_group_symop_operation_xyz
   'x, y, z'

loop_
   _atom_site_label
   _atom_site_occupancy
   _atom_site_fract_x
   _atom_site_fract_y
   _atom_site_fract_z
   _atom_site_adp_type
   _atom_site_U_iso_or_equiv
   _atom_site_type_symbol
   Al1        1.0     0.110520     0.093405     0.318853    Uiso  ? Al
   Al2        1.0     0.214276     0.208925     0.071336    Uiso  ? Al
   Al3        1.0     0.781789     0.096502     0.815904    Uiso  ? Al
   Al4        1.0     0.889120     0.207414     0.567914    Uiso  ? Al
   Al5        1.0     0.439500     0.099609     0.312147    Uiso  ? Al
   Al6        1.0     0.558314     0.209492     0.071347    Uiso  ? Al
   Al7        1.0     0.105022     0.094169     0.814809    Uiso  ? Al
   Al8        1.0     0.219440     0.207458     0.564252    Uiso  ? Al
   Al9        1.0     0.778872     0.099775     0.317516    Uiso  ? Al
   Al10       1.0     0.889831     0.204853     0.066916    Uiso  ? Al
   Al11       1.0     0.553429     0.210294     0.564074    Uiso  ? Al
   Al12       1.0     0.115985     0.423596     0.317456    Uiso  ? Al
   Al13       1.0     0.221876     0.539264     0.066993    Uiso  ? Al
   Al14       1.0     0.778264     0.426493     0.817055    Uiso  ? Al
   Al15       1.0     0.894999     0.529303     0.573167    Uiso  ? Al
   Al16       1.0     0.444021     0.430709     0.316340    Uiso  ? Al
   Al17       1.0     0.555222     0.538159     0.068376    Uiso  ? Al
   Al18       1.0     0.106924     0.432702     0.814943    Uiso  ? Al
   Al19       1.0     0.223507     0.537973     0.569071    Uiso  ? Al
   Al20       1.0     0.776755     0.422750     0.315051    Uiso  ? Al
   Al21       1.0     0.891129     0.535276     0.062820    Uiso  ? Al
   Al22       1.0     0.444322     0.432914     0.814292    Uiso  ? Al
   Al23       1.0     0.116652     0.761674     0.317528    Uiso  ? Al
   Al24       1.0     0.220169     0.873470     0.067080    Uiso  ? Al
   Al25       1.0     0.784391     0.754647     0.810754    Uiso  ? Al
   Al26       1.0     0.893966     0.874293     0.573224    Uiso  ? Al
   Al27       1.0     0.439086     0.759872     0.313323    Uiso  ? Al
   Al28       1.0     0.555745     0.867085     0.068870    Uiso  ? Al
   Al29       1.0     0.112794     0.760847     0.816384    Uiso  ? Al
   Al30       1.0     0.223423     0.871200     0.569145    Uiso  ? Al
   Al31       1.0     0.890962     0.873712     0.062772    Uiso  ? Al
   Al32       1.0     0.441701     0.755598     0.816206    Uiso  ? Al
   Hf1        1.0     0.442973     0.096223     0.823513    Uiso  ? Hf
   Hf2        1.0     0.780423     0.759453     0.327504    Uiso  ? Hf
   Mg1        1.0     0.555519     0.539791     0.568365    Uiso  ? Mg
   Mg2        1.0     0.549483     0.870941     0.568830    Uiso  ? Mg
   N1         1.0     0.222264     0.205099     0.372653    Uiso  ? N
   N2         1.0     0.109606     0.094098     0.128383    Uiso  ? N
   N3         1.0     0.889188     0.204663     0.877808    Uiso  ? N
   N4         1.0     0.776015     0.096728     0.625990    Uiso  ? N
   N5         1.0     0.555639     0.205571     0.371072    Uiso  ? N
   N6         1.0     0.442810     0.096226     0.115241    Uiso  ? N
   N7         1.0     0.201705     0.215347     0.881286    Uiso  ? N
   N8         1.0     0.110280     0.094870     0.624295    Uiso  ? N
   N9         1.0     0.889307     0.205725     0.376190    Uiso  ? N
   N10        1.0     0.779417     0.093263     0.127023    Uiso  ? N
   N11        1.0     0.565562     0.214292     0.882024    Uiso  ? N
   N12        1.0     0.437024     0.108974     0.621539    Uiso  ? N
   N13        1.0     0.220796     0.540068     0.375674    Uiso  ? N
   N14        1.0     0.109839     0.429647     0.127082    Uiso  ? N
   N15        1.0     0.889725     0.538712     0.874696    Uiso  ? N
   N16        1.0     0.792068     0.419060     0.631737    Uiso  ? N
   N17        1.0     0.556505     0.539514     0.361104    Uiso  ? N
   N18        1.0     0.441801     0.428884     0.125730    Uiso  ? N
   N19        1.0     0.221661     0.538895     0.876646    Uiso  ? N
   N20        1.0     0.113909     0.425944     0.625997    Uiso  ? N
   N21        1.0     0.899151     0.517696     0.380391    Uiso  ? N
   N22        1.0     0.779952     0.426730     0.123374    Uiso  ? N
   N23        1.0     0.556840     0.537058     0.877916    Uiso  ? N
   N24        1.0     0.437508     0.421188     0.628807    Uiso  ? N
   N25        1.0     0.222134     0.872777     0.375869    Uiso  ? N
   N26        1.0     0.109930     0.761389     0.126113    Uiso  ? N
   N27        1.0     0.888191     0.873186     0.872729    Uiso  ? N
   N28        1.0     0.793225     0.752939     0.618870    Uiso  ? N
   N29        1.0     0.538444     0.881422     0.361446    Uiso  ? N
   N30        1.0     0.441145     0.761492     0.122264    Uiso  ? N
   N31        1.0     0.218728     0.874862     0.878632    Uiso  ? N
   N32        1.0     0.112130     0.760782     0.627156    Uiso  ? N
   N33        1.0     0.898796     0.883061     0.381178    Uiso  ? N
   N34        1.0     0.780965     0.759579     0.119347    Uiso  ? N
   N35        1.0     0.566698     0.853468     0.878282    Uiso  ? N
   N36        1.0     0.428249     0.767955     0.635523    Uiso  ? N
