
#======================================================================
# CRYSTAL DATA
#----------------------------------------------------------------------
data_VESTA_phase_1

_chemical_name_common                  'Al   Hf   Mg   N                      '
_cell_length_a                         9.535833
_cell_length_b                         9.517474
_cell_length_c                         10.074727
_cell_angle_alpha                      90.023720
_cell_angle_beta                       89.959595
_cell_angle_gamma                      60.037628
_cell_volume                           792.152046
_space_group_name_H-M_alt              'P 1'
_space_group_IT_number                 1

loop_
_space_group_symop_operation_xyz
   'x, y, z'

loop_
   _atom_site_label
   _atom_site_occupancy
   _atom_site_fract_x
   _atom_site_fract_y
   _atom_site_fract_z
   _atom_site_adp_type
   _atom_site_U_iso_or_equiv
   _atom_site_type_symbol
   Al1        1.0     0.110211     0.092902     0.391520    Uiso  ? Al
   Al2        1.0     0.218790     0.207106     0.145283    Uiso  ? Al
   Al3        1.0     0.782066     0.096625     0.890495    Uiso  ? Al
   Al4        1.0     0.889997     0.206625     0.640087    Uiso  ? Al
   Al5        1.0     0.438553     0.100326     0.398467    Uiso  ? Al
   Al6        1.0     0.556798     0.207197     0.145540    Uiso  ? Al
   Al7        1.0     0.105044     0.094635     0.890800    Uiso  ? Al
   Al8        1.0     0.214641     0.209294     0.634597    Uiso  ? Al
   Al9        1.0     0.779239     0.099041     0.392057    Uiso  ? Al
   Al10       1.0     0.888940     0.205885     0.141141    Uiso  ? Al
   Al11       1.0     0.555202     0.212005     0.634004    Uiso  ? Al
   Al12       1.0     0.115942     0.423993     0.393209    Uiso  ? Al
   Al13       1.0     0.222040     0.539143     0.140902    Uiso  ? Al
   Al14       1.0     0.775540     0.428186     0.891251    Uiso  ? Al
   Al15       1.0     0.893246     0.533827     0.643594    Uiso  ? Al
   Al16       1.0     0.443276     0.429203     0.391694    Uiso  ? Al
   Al17       1.0     0.556296     0.537781     0.139916    Uiso  ? Al
   Al18       1.0     0.106868     0.432557     0.890434    Uiso  ? Al
   Al19       1.0     0.223926     0.537627     0.639022    Uiso  ? Al
   Al20       1.0     0.779588     0.421365     0.392956    Uiso  ? Al
   Al21       1.0     0.893172     0.530665     0.136516    Uiso  ? Al
   Al22       1.0     0.445421     0.433607     0.892844    Uiso  ? Al
   Al23       1.0     0.116532     0.761743     0.393443    Uiso  ? Al
   Al24       1.0     0.220717     0.872519     0.140477    Uiso  ? Al
   Al25       1.0     0.782779     0.756055     0.896023    Uiso  ? Al
   Al26       1.0     0.891898     0.872556     0.644354    Uiso  ? Al
   Al27       1.0     0.435652     0.761568     0.392175    Uiso  ? Al
   Al28       1.0     0.549638     0.873081     0.139129    Uiso  ? Al
   Al29       1.0     0.113361     0.760030     0.889394    Uiso  ? Al
   Al30       1.0     0.223043     0.872023     0.639596    Uiso  ? Al
   Al31       1.0     0.893269     0.875308     0.136165    Uiso  ? Al
   Al32       1.0     0.444238     0.754949     0.894532    Uiso  ? Al
   Hf1        1.0     0.442685     0.097337     0.879870    Uiso  ? Hf
   Hf2        1.0     0.779876     0.759426     0.382714    Uiso  ? Hf
   Mg1        1.0     0.554586     0.539526     0.639215    Uiso  ? Mg
   Mg2        1.0     0.554933     0.865111     0.638819    Uiso  ? Mg
   N1         1.0     0.221556     0.205254     0.334886    Uiso  ? N
   N2         1.0     0.110820     0.095203     0.082104    Uiso  ? N
   N3         1.0     0.888701     0.206230     0.831816    Uiso  ? N
   N4         1.0     0.779257     0.093515     0.582004    Uiso  ? N
   N5         1.0     0.557189     0.203278     0.334669    Uiso  ? N
   N6         1.0     0.442276     0.097847     0.088439    Uiso  ? N
   N7         1.0     0.200904     0.215473     0.826635    Uiso  ? N
   N8         1.0     0.108855     0.093689     0.581102    Uiso  ? N
   N9         1.0     0.889914     0.204171     0.330414    Uiso  ? N
   N10        1.0     0.776469     0.096359     0.081075    Uiso  ? N
   N11        1.0     0.566046     0.215607     0.827095    Uiso  ? N
   N12        1.0     0.437191     0.107262     0.590054    Uiso  ? N
   N13        1.0     0.219826     0.540753     0.331216    Uiso  ? N
   N14        1.0     0.113580     0.425975     0.080856    Uiso  ? N
   N15        1.0     0.888817     0.538887     0.835993    Uiso  ? N
   N16        1.0     0.793397     0.420725     0.579204    Uiso  ? N
   N17        1.0     0.557775     0.537525     0.331013    Uiso  ? N
   N18        1.0     0.443494     0.426245     0.084803    Uiso  ? N
   N19        1.0     0.223443     0.537271     0.832486    Uiso  ? N
   N20        1.0     0.110315     0.429796     0.582092    Uiso  ? N
   N21        1.0     0.900193     0.518684     0.325442    Uiso  ? N
   N22        1.0     0.779002     0.425563     0.082221    Uiso  ? N
   N23        1.0     0.556354     0.538721     0.845802    Uiso  ? N
   N24        1.0     0.436003     0.423710     0.576189    Uiso  ? N
   N25        1.0     0.218583     0.874103     0.328550    Uiso  ? N
   N26        1.0     0.112572     0.759888     0.079578    Uiso  ? N
   N27        1.0     0.888587     0.872686     0.836577    Uiso  ? N
   N28        1.0     0.795099     0.752604     0.585259    Uiso  ? N
   N29        1.0     0.536997     0.882754     0.329852    Uiso  ? N
   N30        1.0     0.441428     0.761348     0.085532    Uiso  ? N
   N31        1.0     0.222232     0.873262     0.833490    Uiso  ? N
   N32        1.0     0.109686     0.762048     0.584050    Uiso  ? N
   N33        1.0     0.899024     0.881645     0.326481    Uiso  ? N
   N34        1.0     0.779350     0.760143     0.093093    Uiso  ? N
   N35        1.0     0.565127     0.855038     0.846240    Uiso  ? N
   N36        1.0     0.427938     0.767552     0.573252    Uiso  ? N
