
#======================================================================
# CRYSTAL DATA
#----------------------------------------------------------------------
data_VESTA_phase_1

_chemical_name_common                  'Al   Hf   Mg   N                      '
_cell_length_a                         9.930933
_cell_length_b                         9.918517
_cell_length_c                         8.896577
_cell_angle_alpha                      89.991524
_cell_angle_beta                       89.972725
_cell_angle_gamma                      60.043060
_cell_volume                           759.239149
_space_group_name_H-M_alt              'P 1'
_space_group_IT_number                 1

loop_
_space_group_symop_operation_xyz
   'x, y, z'

loop_
   _atom_site_label
   _atom_site_occupancy
   _atom_site_fract_x
   _atom_site_fract_y
   _atom_site_fract_z
   _atom_site_adp_type
   _atom_site_U_iso_or_equiv
   _atom_site_type_symbol
   Al1        1.0     0.108510     0.093001     0.338591    Uiso  ? Al
   Al2        1.0     0.213657     0.208766     0.099263    Uiso  ? Al
   Al3        1.0     0.778681     0.099508     0.838392    Uiso  ? Al
   Al4        1.0     0.889878     0.206240     0.587540    Uiso  ? Al
   Al5        1.0     0.440283     0.097877     0.341870    Uiso  ? Al
   Al6        1.0     0.557759     0.211568     0.102569    Uiso  ? Al
   Al7        1.0     0.106664     0.094116     0.836677    Uiso  ? Al
   Al8        1.0     0.217443     0.208708     0.581572    Uiso  ? Al
   Al9        1.0     0.781939     0.096407     0.337389    Uiso  ? Al
   Al10       1.0     0.890130     0.205248     0.087702    Uiso  ? Al
   Al11       1.0     0.554967     0.208625     0.578720    Uiso  ? Al
   Al12       1.0     0.114056     0.426729     0.336951    Uiso  ? Al
   Al13       1.0     0.223883     0.538141     0.088203    Uiso  ? Al
   Al14       1.0     0.776657     0.426157     0.838701    Uiso  ? Al
   Al15       1.0     0.896980     0.527723     0.598375    Uiso  ? Al
   Al16       1.0     0.442323     0.432575     0.344421    Uiso  ? Al
   Al17       1.0     0.553682     0.540259     0.098832    Uiso  ? Al
   Al18       1.0     0.109981     0.430415     0.838617    Uiso  ? Al
   Al19       1.0     0.220946     0.539454     0.588504    Uiso  ? Al
   Al20       1.0     0.778241     0.423064     0.338469    Uiso  ? Al
   Al21       1.0     0.891272     0.534505     0.083133    Uiso  ? Al
   Al22       1.0     0.445249     0.431848     0.831961    Uiso  ? Al
   Al23       1.0     0.113850     0.762253     0.334003    Uiso  ? Al
   Al24       1.0     0.223416     0.872757     0.089785    Uiso  ? Al
   Al25       1.0     0.782170     0.755906     0.838141    Uiso  ? Al
   Al26       1.0     0.895006     0.874837     0.601860    Uiso  ? Al
   Al27       1.0     0.438732     0.759803     0.350809    Uiso  ? Al
   Al28       1.0     0.553365     0.865974     0.101010    Uiso  ? Al
   Al29       1.0     0.115138     0.759914     0.841528    Uiso  ? Al
   Al30       1.0     0.218040     0.873239     0.586353    Uiso  ? Al
   Al31       1.0     0.890453     0.874298     0.080410    Uiso  ? Al
   Al32       1.0     0.441524     0.755458     0.828982    Uiso  ? Al
   Hf1        1.0     0.443075     0.097740     0.851887    Uiso  ? Hf
   Hf2        1.0     0.781633     0.759519     0.356583    Uiso  ? Hf
   Mg1        1.0     0.558879     0.535402     0.592120    Uiso  ? Mg
   Mg2        1.0     0.550717     0.872108     0.598812    Uiso  ? Mg
   N1         1.0     0.220229     0.206232     0.361311    Uiso  ? N
   N2         1.0     0.109100     0.093909     0.121448    Uiso  ? N
   N3         1.0     0.889977     0.204002     0.870454    Uiso  ? N
   N4         1.0     0.774933     0.097977     0.619030    Uiso  ? N
   N5         1.0     0.558075     0.203638     0.358819    Uiso  ? N
   N6         1.0     0.442151     0.096723     0.111939    Uiso  ? N
   N7         1.0     0.203405     0.214014     0.875332    Uiso  ? N
   N8         1.0     0.110459     0.095018     0.616367    Uiso  ? N
   N9         1.0     0.889113     0.205099     0.368507    Uiso  ? N
   N10        1.0     0.780806     0.092647     0.119189    Uiso  ? N
   N11        1.0     0.563949     0.216062     0.877794    Uiso  ? N
   N12        1.0     0.436076     0.109906     0.610779    Uiso  ? N
   N13        1.0     0.217761     0.542829     0.368425    Uiso  ? N
   N14        1.0     0.110272     0.430103     0.118677    Uiso  ? N
   N15        1.0     0.890673     0.537672     0.865507    Uiso  ? N
   N16        1.0     0.792298     0.418681     0.622250    Uiso  ? N
   N17        1.0     0.558926     0.537168     0.352785    Uiso  ? N
   N18        1.0     0.440548     0.430138     0.124553    Uiso  ? N
   N19        1.0     0.223959     0.537415     0.869506    Uiso  ? N
   N20        1.0     0.114532     0.425555     0.619556    Uiso  ? N
   N21        1.0     0.899041     0.519677     0.371064    Uiso  ? N
   N22        1.0     0.780932     0.426044     0.115846    Uiso  ? N
   N23        1.0     0.555360     0.538234     0.871839    Uiso  ? N
   N24        1.0     0.437439     0.421107     0.613146    Uiso  ? N
   N25        1.0     0.217465     0.873919     0.366346    Uiso  ? N
   N26        1.0     0.109712     0.761490     0.114199    Uiso  ? N
   N27        1.0     0.887697     0.874652     0.862162    Uiso  ? N
   N28        1.0     0.793475     0.752500     0.612568    Uiso  ? N
   N29        1.0     0.542004     0.879922     0.352270    Uiso  ? N
   N30        1.0     0.440231     0.761557     0.122717    Uiso  ? N
   N31        1.0     0.221167     0.874579     0.871598    Uiso  ? N
   N32        1.0     0.112671     0.760282     0.623884    Uiso  ? N
   N33        1.0     0.899300     0.881527     0.374534    Uiso  ? N
   N34        1.0     0.782166     0.759270     0.111274    Uiso  ? N
   N35        1.0     0.563345     0.855482     0.868932    Uiso  ? N
   N36        1.0     0.428375     0.766145     0.612646    Uiso  ? N
