
#======================================================================
# CRYSTAL DATA
#----------------------------------------------------------------------
data_VESTA_phase_1

_chemical_name_common                  'Al   Hf   Mg   N                      '
_cell_length_a                         9.972240
_cell_length_b                         9.958775
_cell_length_c                         8.770369
_cell_angle_alpha                      89.993202
_cell_angle_beta                       89.974670
_cell_angle_gamma                      60.040123
_cell_volume                           754.609938
_space_group_name_H-M_alt              'P 1'
_space_group_IT_number                 1

loop_
_space_group_symop_operation_xyz
   'x, y, z'

loop_
   _atom_site_label
   _atom_site_occupancy
   _atom_site_fract_x
   _atom_site_fract_y
   _atom_site_fract_z
   _atom_site_adp_type
   _atom_site_U_iso_or_equiv
   _atom_site_type_symbol
   Al1        1.0     0.108480     0.092984     0.341104    Uiso  ? Al
   Al2        1.0     0.214320     0.208436     0.102393    Uiso  ? Al
   Al3        1.0     0.778734     0.099379     0.841604    Uiso  ? Al
   Al4        1.0     0.890085     0.205985     0.590507    Uiso  ? Al
   Al5        1.0     0.440443     0.097682     0.346465    Uiso  ? Al
   Al6        1.0     0.557468     0.211398     0.105357    Uiso  ? Al
   Al7        1.0     0.106764     0.094060     0.840152    Uiso  ? Al
   Al8        1.0     0.216772     0.208941     0.584082    Uiso  ? Al
   Al9        1.0     0.781789     0.096450     0.340140    Uiso  ? Al
   Al10       1.0     0.889914     0.205604     0.090671    Uiso  ? Al
   Al11       1.0     0.555360     0.208770     0.580941    Uiso  ? Al
   Al12       1.0     0.114012     0.426802     0.339898    Uiso  ? Al
   Al13       1.0     0.223988     0.538148     0.091199    Uiso  ? Al
   Al14       1.0     0.776455     0.426195     0.841289    Uiso  ? Al
   Al15       1.0     0.896680     0.528540     0.602253    Uiso  ? Al
   Al16       1.0     0.442427     0.432537     0.347302    Uiso  ? Al
   Al17       1.0     0.553858     0.540212     0.101118    Uiso  ? Al
   Al18       1.0     0.110193     0.430333     0.842075    Uiso  ? Al
   Al19       1.0     0.220905     0.539421     0.591231    Uiso  ? Al
   Al20       1.0     0.778113     0.423263     0.342675    Uiso  ? Al
   Al21       1.0     0.891496     0.533662     0.086047    Uiso  ? Al
   Al22       1.0     0.445175     0.431930     0.834922    Uiso  ? Al
   Al23       1.0     0.113897     0.762167     0.337084    Uiso  ? Al
   Al24       1.0     0.223518     0.872615     0.092701    Uiso  ? Al
   Al25       1.0     0.781965     0.756169     0.843023    Uiso  ? Al
   Al26       1.0     0.894657     0.874616     0.605033    Uiso  ? Al
   Al27       1.0     0.438798     0.759729     0.354443    Uiso  ? Al
   Al28       1.0     0.552395     0.866567     0.102786    Uiso  ? Al
   Al29       1.0     0.115100     0.759923     0.844315    Uiso  ? Al
   Al30       1.0     0.217957     0.873436     0.589365    Uiso  ? Al
   Al31       1.0     0.890851     0.874615     0.083076    Uiso  ? Al
   Al32       1.0     0.441599     0.755571     0.831924    Uiso  ? Al
   Hf1        1.0     0.443112     0.097678     0.852367    Uiso  ? Hf
   Hf2        1.0     0.781712     0.759468     0.356681    Uiso  ? Hf
   Mg1        1.0     0.558626     0.535535     0.594844    Uiso  ? Mg
   Mg2        1.0     0.551456     0.871243     0.600714    Uiso  ? Mg
   N1         1.0     0.219902     0.206306     0.358803    Uiso  ? N
   N2         1.0     0.109196     0.094069     0.118284    Uiso  ? N
   N3         1.0     0.889896     0.204156     0.867472    Uiso  ? N
   N4         1.0     0.775256     0.097637     0.616236    Uiso  ? N
   N5         1.0     0.558340     0.203701     0.356615    Uiso  ? N
   N6         1.0     0.442089     0.096854     0.111621    Uiso  ? N
   N7         1.0     0.204192     0.213617     0.871709    Uiso  ? N
   N8         1.0     0.110407     0.094968     0.613724    Uiso  ? N
   N9         1.0     0.889188     0.204968     0.365529    Uiso  ? N
   N10        1.0     0.780441     0.093067     0.116121    Uiso  ? N
   N11        1.0     0.563599     0.215708     0.874251    Uiso  ? N
   N12        1.0     0.436243     0.109463     0.606225    Uiso  ? N
   N13        1.0     0.217872     0.542740     0.365419    Uiso  ? N
   N14        1.0     0.110669     0.429702     0.115518    Uiso  ? N
   N15        1.0     0.890809     0.537244     0.862880    Uiso  ? N
   N16        1.0     0.792128     0.419032     0.618409    Uiso  ? N
   N17        1.0     0.558792     0.537266     0.350660    Uiso  ? N
   N18        1.0     0.440840     0.429923     0.121714    Uiso  ? N
   N19        1.0     0.223928     0.537521     0.866692    Uiso  ? N
   N20        1.0     0.114220     0.425838     0.616592    Uiso  ? N
   N21        1.0     0.898718     0.520545     0.366872    Uiso  ? N
   N22        1.0     0.780657     0.426028     0.113086    Uiso  ? N
   N23        1.0     0.555470     0.538124     0.869437    Uiso  ? N
   N24        1.0     0.437395     0.421351     0.610094    Uiso  ? N
   N25        1.0     0.217551     0.873938     0.363261    Uiso  ? N
   N26        1.0     0.109969     0.761363     0.111424    Uiso  ? N
   N27        1.0     0.887991     0.874833     0.860033    Uiso  ? N
   N28        1.0     0.793392     0.752645     0.612335    Uiso  ? N
   N29        1.0     0.542587     0.879305     0.350153    Uiso  ? N
   N30        1.0     0.440350     0.761417     0.119392    Uiso  ? N
   N31        1.0     0.221042     0.874530     0.868743    Uiso  ? N
   N32        1.0     0.112392     0.760422     0.620888    Uiso  ? N
   N33        1.0     0.898930     0.881159     0.370562    Uiso  ? N
   N34        1.0     0.782013     0.759340     0.106874    Uiso  ? N
   N35        1.0     0.562739     0.856292     0.866942    Uiso  ? N
   N36        1.0     0.428520     0.766179     0.609602    Uiso  ? N
