
#======================================================================
# CRYSTAL DATA
#----------------------------------------------------------------------
data_VESTA_phase_1

_chemical_name_common                  'Al   Hf   Mg   N                      '
_cell_length_a                         10.055543
_cell_length_b                         10.030022
_cell_length_c                         8.541931
_cell_angle_alpha                      90.015854
_cell_angle_beta                       90.006805
_cell_angle_gamma                      60.035343
_cell_volume                           746.360485
_space_group_name_H-M_alt              'P 1'
_space_group_IT_number                 1

loop_
_space_group_symop_operation_xyz
   'x, y, z'

loop_
   _atom_site_label
   _atom_site_occupancy
   _atom_site_fract_x
   _atom_site_fract_y
   _atom_site_fract_z
   _atom_site_adp_type
   _atom_site_U_iso_or_equiv
   _atom_site_type_symbol
   Al1        1.0     0.109089     0.092146     0.357806    Uiso  ? Al
   Al2        1.0     0.216501     0.207897     0.116773    Uiso  ? Al
   Al3        1.0     0.779847     0.098145     0.859981    Uiso  ? Al
   Al4        1.0     0.891488     0.204798     0.609891    Uiso  ? Al
   Al5        1.0     0.440359     0.097558     0.357715    Uiso  ? Al
   Al6        1.0     0.557061     0.210054     0.115179    Uiso  ? Al
   Al7        1.0     0.105803     0.095087     0.862202    Uiso  ? Al
   Al8        1.0     0.214348     0.209279     0.598789    Uiso  ? Al
   Al9        1.0     0.780864     0.097083     0.357500    Uiso  ? Al
   Al10       1.0     0.888134     0.207675     0.109671    Uiso  ? Al
   Al11       1.0     0.556109     0.209653     0.595268    Uiso  ? Al
   Al12       1.0     0.113700     0.426778     0.358403    Uiso  ? Al
   Al13       1.0     0.223609     0.538678     0.108556    Uiso  ? Al
   Al14       1.0     0.775879     0.426314     0.855867    Uiso  ? Al
   Al15       1.0     0.896186     0.531099     0.619510    Uiso  ? Al
   Al16       1.0     0.443091     0.431886     0.359282    Uiso  ? Al
   Al17       1.0     0.555346     0.539732     0.104556    Uiso  ? Al
   Al18       1.0     0.110584     0.430283     0.860678    Uiso  ? Al
   Al19       1.0     0.221783     0.538446     0.607866    Uiso  ? Al
   Al20       1.0     0.777939     0.424178     0.362644    Uiso  ? Al
   Al21       1.0     0.892285     0.530775     0.099442    Uiso  ? Al
   Al22       1.0     0.444978     0.432182     0.852079    Uiso  ? Al
   Al23       1.0     0.115055     0.762047     0.358933    Uiso  ? Al
   Al24       1.0     0.223559     0.871259     0.107030    Uiso  ? Al
   Al25       1.0     0.782022     0.757296     0.855921    Uiso  ? Al
   Al26       1.0     0.893479     0.874108     0.618604    Uiso  ? Al
   Al27       1.0     0.437671     0.759911     0.368913    Uiso  ? Al
   Al28       1.0     0.550551     0.867776     0.103830    Uiso  ? Al
   Al29       1.0     0.113892     0.759714     0.859950    Uiso  ? Al
   Al30       1.0     0.217964     0.874861     0.613026    Uiso  ? Al
   Al31       1.0     0.892992     0.875269     0.099057    Uiso  ? Al
   Al32       1.0     0.442648     0.755704     0.848170    Uiso  ? Al
   Hf1        1.0     0.442798     0.097517     0.851395    Uiso  ? Hf
   Hf2        1.0     0.781139     0.759226     0.354963    Uiso  ? Hf
   Mg1        1.0     0.557202     0.536239     0.605657    Uiso  ? Mg
   Mg2        1.0     0.553322     0.868713     0.604950    Uiso  ? Mg
   N1         1.0     0.219441     0.206187     0.351519    Uiso  ? N
   N2         1.0     0.109765     0.095556     0.101559    Uiso  ? N
   N3         1.0     0.889605     0.204351     0.850116    Uiso  ? N
   N4         1.0     0.778658     0.094295     0.599539    Uiso  ? N
   N5         1.0     0.558507     0.204147     0.350932    Uiso  ? N
   N6         1.0     0.441341     0.098230     0.108420    Uiso  ? N
   N7         1.0     0.204733     0.213296     0.848112    Uiso  ? N
   N8         1.0     0.109378     0.094021     0.596689    Uiso  ? N
   N9         1.0     0.888921     0.205502     0.348140    Uiso  ? N
   N10        1.0     0.777395     0.096405     0.099953    Uiso  ? N
   N11        1.0     0.563969     0.213465     0.851638    Uiso  ? N
   N12        1.0     0.436640     0.107938     0.596323    Uiso  ? N
   N13        1.0     0.219439     0.541623     0.349201    Uiso  ? N
   N14        1.0     0.113590     0.426681     0.099530    Uiso  ? N
   N15        1.0     0.891412     0.536783     0.855045    Uiso  ? N
   N16        1.0     0.792768     0.420647     0.602107    Uiso  ? N
   N17        1.0     0.557781     0.538751     0.343351    Uiso  ? N
   N18        1.0     0.442535     0.427877     0.104067    Uiso  ? N
   N19        1.0     0.222760     0.538152     0.850403    Uiso  ? N
   N20        1.0     0.111297     0.428637     0.598772    Uiso  ? N
   N21        1.0     0.897707     0.522188     0.342695    Uiso  ? N
   N22        1.0     0.779145     0.425771     0.096477    Uiso  ? N
   N23        1.0     0.556642     0.536811     0.860826    Uiso  ? N
   N24        1.0     0.436718     0.423104     0.598276    Uiso  ? N
   N25        1.0     0.220024     0.872896     0.345400    Uiso  ? N
   N26        1.0     0.112387     0.759850     0.096689    Uiso  ? N
   N27        1.0     0.889172     0.874744     0.854175    Uiso  ? N
   N28        1.0     0.794341     0.752722     0.608621    Uiso  ? N
   N29        1.0     0.542115     0.877233     0.344054    Uiso  ? N
   N30        1.0     0.440657     0.761163     0.096277    Uiso  ? N
   N31        1.0     0.218083     0.875629     0.852832    Uiso  ? N
   N32        1.0     0.110199     0.761860     0.602165    Uiso  ? N
   N33        1.0     0.898200     0.880109     0.344960    Uiso  ? N
   N34        1.0     0.780813     0.759865     0.096777    Uiso  ? N
   N35        1.0     0.563160     0.858829     0.860945    Uiso  ? N
   N36        1.0     0.428219     0.766638     0.603549    Uiso  ? N
