
#======================================================================
# CRYSTAL DATA
#----------------------------------------------------------------------
data_VESTA_phase_1

_chemical_name_common                  'Al   Hf   Mg   N                      '
_cell_length_a                         9.798638
_cell_length_b                         9.788334
_cell_length_c                         9.303235
_cell_angle_alpha                      89.990974
_cell_angle_beta                       89.974388
_cell_angle_gamma                      60.049210
_cell_volume                           773.133024
_space_group_name_H-M_alt              'P 1'
_space_group_IT_number                 1

loop_
_space_group_symop_operation_xyz
   'x, y, z'

loop_
   _atom_site_label
   _atom_site_occupancy
   _atom_site_fract_x
   _atom_site_fract_y
   _atom_site_fract_z
   _atom_site_adp_type
   _atom_site_U_iso_or_equiv
   _atom_site_type_symbol
   Al1        1.0     0.109093     0.093175     0.333091    Uiso  ? Al
   Al2        1.0     0.211754     0.209849     0.089954    Uiso  ? Al
   Al3        1.0     0.779405     0.098888     0.831058    Uiso  ? Al
   Al4        1.0     0.889502     0.206814     0.581195    Uiso  ? Al
   Al5        1.0     0.439698     0.098563     0.328027    Uiso  ? Al
   Al6        1.0     0.558864     0.211843     0.092788    Uiso  ? Al
   Al7        1.0     0.106060     0.094231     0.828981    Uiso  ? Al
   Al8        1.0     0.219510     0.207778     0.576924    Uiso  ? Al
   Al9        1.0     0.781306     0.097207     0.331352    Uiso  ? Al
   Al10       1.0     0.890381     0.204608     0.081149    Uiso  ? Al
   Al11       1.0     0.553542     0.208623     0.574949    Uiso  ? Al
   Al12       1.0     0.114701     0.425762     0.330849    Uiso  ? Al
   Al13       1.0     0.223156     0.538542     0.081499    Uiso  ? Al
   Al14       1.0     0.777381     0.426251     0.832816    Uiso  ? Al
   Al15       1.0     0.897666     0.525714     0.588862    Uiso  ? Al
   Al16       1.0     0.442604     0.432163     0.335978    Uiso  ? Al
   Al17       1.0     0.553872     0.539815     0.089716    Uiso  ? Al
   Al18       1.0     0.108861     0.431183     0.830795    Uiso  ? Al
   Al19       1.0     0.221761     0.539052     0.582417    Uiso  ? Al
   Al20       1.0     0.778051     0.422663     0.329579    Uiso  ? Al
   Al21       1.0     0.890692     0.536541     0.077539    Uiso  ? Al
   Al22       1.0     0.445222     0.431997     0.826052    Uiso  ? Al
   Al23       1.0     0.114357     0.762271     0.328297    Uiso  ? Al
   Al24       1.0     0.222388     0.873139     0.082643    Uiso  ? Al
   Al25       1.0     0.783135     0.755151     0.825255    Uiso  ? Al
   Al26       1.0     0.895766     0.875553     0.592105    Uiso  ? Al
   Al27       1.0     0.438649     0.759942     0.338264    Uiso  ? Al
   Al28       1.0     0.556535     0.864051     0.092045    Uiso  ? Al
   Al29       1.0     0.114468     0.760176     0.833992    Uiso  ? Al
   Al30       1.0     0.219519     0.872411     0.580500    Uiso  ? Al
   Al31       1.0     0.889801     0.873324     0.075669    Uiso  ? Al
   Al32       1.0     0.441513     0.755200     0.824458    Uiso  ? Al
   Hf1        1.0     0.443081     0.097547     0.849079    Uiso  ? Hf
   Hf2        1.0     0.780581     0.759850     0.354908    Uiso  ? Hf
   Mg1        1.0     0.558647     0.535981     0.584812    Uiso  ? Mg
   Mg2        1.0     0.547831     0.874452     0.591494    Uiso  ? Mg
   N1         1.0     0.221630     0.205704     0.369301    Uiso  ? N
   N2         1.0     0.109051     0.093749     0.128698    Uiso  ? N
   N3         1.0     0.890006     0.203785     0.877281    Uiso  ? N
   N4         1.0     0.774777     0.098101     0.625534    Uiso  ? N
   N5         1.0     0.556854     0.203685     0.366737    Uiso  ? N
   N6         1.0     0.442320     0.096494     0.113146    Uiso  ? N
   N7         1.0     0.201095     0.215258     0.882516    Uiso  ? N
   N8         1.0     0.110500     0.094957     0.622703    Uiso  ? N
   N9         1.0     0.888953     0.205492     0.375370    Uiso  ? N
   N10        1.0     0.781022     0.092270     0.126459    Uiso  ? N
   N11        1.0     0.565293     0.216520     0.884753    Uiso  ? N
   N12        1.0     0.435723     0.110967     0.624447    Uiso  ? N
   N13        1.0     0.218308     0.542352     0.375311    Uiso  ? N
   N14        1.0     0.109747     0.430514     0.126112    Uiso  ? N
   N15        1.0     0.890128     0.539093     0.872936    Uiso  ? N
   N16        1.0     0.792754     0.418116     0.630913    Uiso  ? N
   N17        1.0     0.558652     0.537535     0.359793    Uiso  ? N
   N18        1.0     0.440405     0.430241     0.129909    Uiso  ? N
   N19        1.0     0.223464     0.537630     0.876188    Uiso  ? N
   N20        1.0     0.114806     0.425319     0.626045    Uiso  ? N
   N21        1.0     0.899815     0.517282     0.379141    Uiso  ? N
   N22        1.0     0.781080     0.426171     0.122206    Uiso  ? N
   N23        1.0     0.555567     0.538079     0.878321    Uiso  ? N
   N24        1.0     0.437490     0.420746     0.622450    Uiso  ? N
   N25        1.0     0.218440     0.873527     0.373878    Uiso  ? N
   N26        1.0     0.109507     0.761613     0.122088    Uiso  ? N
   N27        1.0     0.887146     0.873799     0.869472    Uiso  ? N
   N28        1.0     0.793705     0.752253     0.613375    Uiso  ? N
   N29        1.0     0.539322     0.881899     0.360051    Uiso  ? N
   N30        1.0     0.440275     0.761736     0.128071    Uiso  ? N
   N31        1.0     0.220594     0.874830     0.878268    Uiso  ? N
   N32        1.0     0.112854     0.760224     0.629669    Uiso  ? N
   N33        1.0     0.899945     0.882728     0.381986    Uiso  ? N
   N34        1.0     0.782368     0.759090     0.123418    Uiso  ? N
   N35        1.0     0.565869     0.853087     0.876014    Uiso  ? N
   N36        1.0     0.427980     0.766159     0.624397    Uiso  ? N
