
#======================================================================
# CRYSTAL DATA
#----------------------------------------------------------------------
data_VESTA_phase_1

_chemical_name_common                  'Al   Hf   Mg   N                      '
_cell_length_a                         9.547885
_cell_length_b                         9.539633
_cell_length_c                         10.025550
_cell_angle_alpha                      90.015717
_cell_angle_beta                       89.977982
_cell_angle_gamma                      60.048775
_cell_volume                           791.208263
_space_group_name_H-M_alt              'P 1'
_space_group_IT_number                 1

loop_
_space_group_symop_operation_xyz
   'x, y, z'

loop_
   _atom_site_label
   _atom_site_occupancy
   _atom_site_fract_x
   _atom_site_fract_y
   _atom_site_fract_z
   _atom_site_adp_type
   _atom_site_U_iso_or_equiv
   _atom_site_type_symbol
   Al1        1.0     0.110469     0.093407     0.326747    Uiso  ? Al
   Al2        1.0     0.213523     0.209256     0.079124    Uiso  ? Al
   Al3        1.0     0.781743     0.096557     0.823653    Uiso  ? Al
   Al4        1.0     0.889148     0.207359     0.575445    Uiso  ? Al
   Al5        1.0     0.439326     0.099619     0.319193    Uiso  ? Al
   Al6        1.0     0.558634     0.209937     0.079352    Uiso  ? Al
   Al7        1.0     0.105016     0.094175     0.822285    Uiso  ? Al
   Al8        1.0     0.219756     0.207405     0.572288    Uiso  ? Al
   Al9        1.0     0.778911     0.099695     0.325163    Uiso  ? Al
   Al10       1.0     0.889952     0.204735     0.074560    Uiso  ? Al
   Al11       1.0     0.553222     0.210067     0.572000    Uiso  ? Al
   Al12       1.0     0.116016     0.423635     0.325062    Uiso  ? Al
   Al13       1.0     0.222017     0.539209     0.074687    Uiso  ? Al
   Al14       1.0     0.778362     0.426476     0.825038    Uiso  ? Al
   Al15       1.0     0.895574     0.528315     0.580526    Uiso  ? Al
   Al16       1.0     0.443965     0.430775     0.324528    Uiso  ? Al
   Al17       1.0     0.555162     0.538239     0.076353    Uiso  ? Al
   Al18       1.0     0.106915     0.432771     0.822759    Uiso  ? Al
   Al19       1.0     0.223420     0.538086     0.576624    Uiso  ? Al
   Al20       1.0     0.776822     0.422625     0.322501    Uiso  ? Al
   Al21       1.0     0.890932     0.535868     0.070991    Uiso  ? Al
   Al22       1.0     0.444429     0.432944     0.821669    Uiso  ? Al
   Al23       1.0     0.116475     0.761709     0.324775    Uiso  ? Al
   Al24       1.0     0.220273     0.873521     0.074844    Uiso  ? Al
   Al25       1.0     0.784352     0.754618     0.817362    Uiso  ? Al
   Al26       1.0     0.894401     0.874679     0.580809    Uiso  ? Al
   Al27       1.0     0.438949     0.759894     0.321567    Uiso  ? Al
   Al28       1.0     0.556574     0.866143     0.077265    Uiso  ? Al
   Al29       1.0     0.112808     0.760834     0.824381    Uiso  ? Al
   Al30       1.0     0.223197     0.871131     0.576543    Uiso  ? Al
   Al31       1.0     0.890650     0.873414     0.070856    Uiso  ? Al
   Al32       1.0     0.441704     0.755510     0.823678    Uiso  ? Al
   Hf1        1.0     0.442957     0.096407     0.833779    Uiso  ? Hf
   Hf2        1.0     0.779916     0.759656     0.338346    Uiso  ? Hf
   Mg1        1.0     0.555944     0.539473     0.576230    Uiso  ? Mg
   Mg2        1.0     0.548110     0.872232     0.577592    Uiso  ? Mg
   N1         1.0     0.222485     0.205083     0.379656    Uiso  ? N
   N2         1.0     0.109554     0.094052     0.135575    Uiso  ? N
   N3         1.0     0.889349     0.204477     0.884748    Uiso  ? N
   N4         1.0     0.775964     0.096795     0.632951    Uiso  ? N
   N5         1.0     0.555545     0.205228     0.378000    Uiso  ? N
   N6         1.0     0.442800     0.096206     0.120996    Uiso  ? N
   N7         1.0     0.200939     0.215702     0.888385    Uiso  ? N
   N8         1.0     0.110343     0.094773     0.631000    Uiso  ? N
   N9         1.0     0.889205     0.205724     0.383089    Uiso  ? N
   N10        1.0     0.779574     0.093183     0.134010    Uiso  ? N
   N11        1.0     0.565888     0.214818     0.889236    Uiso  ? N
   N12        1.0     0.436707     0.109526     0.630612    Uiso  ? N
   N13        1.0     0.220587     0.540279     0.382618    Uiso  ? N
   N14        1.0     0.109899     0.429708     0.134031    Uiso  ? N
   N15        1.0     0.889624     0.539206     0.881692    Uiso  ? N
   N16        1.0     0.792341     0.418794     0.638848    Uiso  ? N
   N17        1.0     0.556751     0.539372     0.368171    Uiso  ? N
   N18        1.0     0.441745     0.429022     0.133124    Uiso  ? N
   N19        1.0     0.221891     0.538765     0.883606    Uiso  ? N
   N20        1.0     0.114004     0.425962     0.633018    Uiso  ? N
   N21        1.0     0.899526     0.516921     0.387129    Uiso  ? N
   N22        1.0     0.780066     0.426632     0.130118    Uiso  ? N
   N23        1.0     0.556814     0.537099     0.884908    Uiso  ? N
   N24        1.0     0.437517     0.421224     0.635278    Uiso  ? N
   N25        1.0     0.221847     0.872720     0.382709    Uiso  ? N
   N26        1.0     0.109955     0.761378     0.132731    Uiso  ? N
   N27        1.0     0.887886     0.873014     0.879617    Uiso  ? N
   N28        1.0     0.793174     0.752860     0.623676    Uiso  ? N
   N29        1.0     0.537478     0.882120     0.368841    Uiso  ? N
   N30        1.0     0.441143     0.761449     0.129588    Uiso  ? N
   N31        1.0     0.218799     0.874948     0.885609    Uiso  ? N
   N32        1.0     0.112144     0.760728     0.634373    Uiso  ? N
   N33        1.0     0.899138     0.883318     0.388050    Uiso  ? N
   N34        1.0     0.781126     0.759468     0.128477    Uiso  ? N
   N35        1.0     0.567307     0.852767     0.885225    Uiso  ? N
   N36        1.0     0.428076     0.767620     0.642036    Uiso  ? N
