
#======================================================================
# CRYSTAL DATA
#----------------------------------------------------------------------
data_VESTA_phase_1

_chemical_name_common                  'Al   Hf   Mg   N                      '
_cell_length_a                         9.529690
_cell_length_b                         9.521534
_cell_length_c                         10.075459
_cell_angle_alpha                      90.026237
_cell_angle_beta                       89.968704
_cell_angle_gamma                      60.043774
_cell_volume                           792.085954
_space_group_name_H-M_alt              'P 1'
_space_group_IT_number                 1

loop_
_space_group_symop_operation_xyz
   'x, y, z'

loop_
   _atom_site_label
   _atom_site_occupancy
   _atom_site_fract_x
   _atom_site_fract_y
   _atom_site_fract_z
   _atom_site_adp_type
   _atom_site_U_iso_or_equiv
   _atom_site_type_symbol
   Al1        1.0     0.110513     0.093406     0.322727    Uiso  ? Al
   Al2        1.0     0.214225     0.208947     0.075196    Uiso  ? Al
   Al3        1.0     0.781784     0.096504     0.819760    Uiso  ? Al
   Al4        1.0     0.889116     0.207414     0.571760    Uiso  ? Al
   Al5        1.0     0.439481     0.099616     0.315966    Uiso  ? Al
   Al6        1.0     0.558330     0.209520     0.075215    Uiso  ? Al
   Al7        1.0     0.105015     0.094173     0.818649    Uiso  ? Al
   Al8        1.0     0.219453     0.207460     0.568131    Uiso  ? Al
   Al9        1.0     0.778866     0.099775     0.321370    Uiso  ? Al
   Al10       1.0     0.889835     0.204845     0.070769    Uiso  ? Al
   Al11       1.0     0.553411     0.210285     0.567948    Uiso  ? Al
   Al12       1.0     0.115983     0.423600     0.321307    Uiso  ? Al
   Al13       1.0     0.221880     0.539262     0.070847    Uiso  ? Al
   Al14       1.0     0.778267     0.426494     0.820930    Uiso  ? Al
   Al15       1.0     0.895026     0.529247     0.576997    Uiso  ? Al
   Al16       1.0     0.444014     0.430713     0.320222    Uiso  ? Al
   Al17       1.0     0.555215     0.538163     0.072249    Uiso  ? Al
   Al18       1.0     0.106915     0.432712     0.818802    Uiso  ? Al
   Al19       1.0     0.223498     0.537983     0.572919    Uiso  ? Al
   Al20       1.0     0.776754     0.422742     0.318888    Uiso  ? Al
   Al21       1.0     0.891113     0.535314     0.066706    Uiso  ? Al
   Al22       1.0     0.444325     0.432921     0.818126    Uiso  ? Al
   Al23       1.0     0.116637     0.761677     0.321358    Uiso  ? Al
   Al24       1.0     0.220167     0.873477     0.070941    Uiso  ? Al
   Al25       1.0     0.784383     0.754649     0.814542    Uiso  ? Al
   Al26       1.0     0.893985     0.874318     0.577065    Uiso  ? Al
   Al27       1.0     0.439070     0.759876     0.317208    Uiso  ? Al
   Al28       1.0     0.555790     0.867032     0.072772    Uiso  ? Al
   Al29       1.0     0.112787     0.760850     0.820257    Uiso  ? Al
   Al30       1.0     0.223405     0.871196     0.572989    Uiso  ? Al
   Al31       1.0     0.890938     0.873695     0.066656    Uiso  ? Al
   Al32       1.0     0.441697     0.755596     0.820059    Uiso  ? Al
   Hf1        1.0     0.442964     0.096238     0.827527    Uiso  ? Hf
   Hf2        1.0     0.780379     0.759470     0.331551    Uiso  ? Hf
   Mg1        1.0     0.555539     0.539780     0.572230    Uiso  ? Mg
   Mg2        1.0     0.549386     0.871027     0.572750    Uiso  ? Mg
   N1         1.0     0.222273     0.205101     0.376476    Uiso  ? N
   N2         1.0     0.109599     0.094096     0.132216    Uiso  ? N
   N3         1.0     0.889194     0.204652     0.881622    Uiso  ? N
   N4         1.0     0.776009     0.096731     0.629803    Uiso  ? N
   N5         1.0     0.555628     0.205553     0.374889    Uiso  ? N
   N6         1.0     0.442804     0.096229     0.118985    Uiso  ? N
   N7         1.0     0.201649     0.215375     0.885109    Uiso  ? N
   N8         1.0     0.110279     0.094867     0.628094    Uiso  ? N
   N9         1.0     0.889296     0.205726     0.380002    Uiso  ? N
   N10        1.0     0.779421     0.093260     0.130840    Uiso  ? N
   N11        1.0     0.565579     0.214326     0.885851    Uiso  ? N
   N12        1.0     0.436998     0.109013     0.625489    Uiso  ? N
   N13        1.0     0.220782     0.540081     0.379489    Uiso  ? N
   N14        1.0     0.109841     0.429650     0.130897    Uiso  ? N
   N15        1.0     0.889714     0.538746     0.878516    Uiso  ? N
   N16        1.0     0.792080     0.419046     0.635563    Uiso  ? N
   N17        1.0     0.556516     0.539507     0.364924    Uiso  ? N
   N18        1.0     0.441795     0.428892     0.129569    Uiso  ? N
   N19        1.0     0.221672     0.538889     0.880459    Uiso  ? N
   N20        1.0     0.113907     0.425951     0.629814    Uiso  ? N
   N21        1.0     0.899171     0.517646     0.384191    Uiso  ? N
   N22        1.0     0.779956     0.426723     0.127174    Uiso  ? N
   N23        1.0     0.556837     0.537061     0.881736    Uiso  ? N
   N24        1.0     0.437505     0.421195     0.632592    Uiso  ? N
   N25        1.0     0.222113     0.872772     0.379682    Uiso  ? N
   N26        1.0     0.109929     0.761388     0.129909    Uiso  ? N
   N27        1.0     0.888168     0.873176     0.876544    Uiso  ? N
   N28        1.0     0.793214     0.752937     0.622553    Uiso  ? N
   N29        1.0     0.538371     0.881470     0.365291    Uiso  ? N
   N30        1.0     0.441140     0.761490     0.126099    Uiso  ? N
   N31        1.0     0.218725     0.874871     0.882450    Uiso  ? N
   N32        1.0     0.112123     0.760781     0.630986    Uiso  ? N
   N33        1.0     0.898812     0.883078     0.384983    Uiso  ? N
   N34        1.0     0.780969     0.759573     0.123301    Uiso  ? N
   N35        1.0     0.566734     0.853426     0.882103    Uiso  ? N
   N36        1.0     0.428232     0.767938     0.639323    Uiso  ? N
