
#======================================================================
# CRYSTAL DATA
#----------------------------------------------------------------------
data_VESTA_phase_1

_chemical_name_common                  'Al   Hf   Mg   N                      '
_cell_length_a                         9.535780
_cell_length_b                         9.517427
_cell_length_c                         10.074894
_cell_angle_alpha                      90.023849
_cell_angle_beta                       89.959282
_cell_angle_gamma                      60.037392
_cell_volume                           792.154950
_space_group_name_H-M_alt              'P 1'
_space_group_IT_number                 1

loop_
_space_group_symop_operation_xyz
   'x, y, z'

loop_
   _atom_site_label
   _atom_site_occupancy
   _atom_site_fract_x
   _atom_site_fract_y
   _atom_site_fract_z
   _atom_site_adp_type
   _atom_site_U_iso_or_equiv
   _atom_site_type_symbol
   Al1        1.0     0.110193     0.092909     0.402433    Uiso  ? Al
   Al2        1.0     0.218769     0.207114     0.156200    Uiso  ? Al
   Al3        1.0     0.782048     0.096633     0.901408    Uiso  ? Al
   Al4        1.0     0.889979     0.206632     0.650999    Uiso  ? Al
   Al5        1.0     0.438535     0.100333     0.409374    Uiso  ? Al
   Al6        1.0     0.556782     0.207206     0.156459    Uiso  ? Al
   Al7        1.0     0.105028     0.094642     0.901710    Uiso  ? Al
   Al8        1.0     0.214628     0.209300     0.645506    Uiso  ? Al
   Al9        1.0     0.779223     0.099048     0.402969    Uiso  ? Al
   Al10       1.0     0.888923     0.205891     0.152051    Uiso  ? Al
   Al11       1.0     0.555183     0.212010     0.644913    Uiso  ? Al
   Al12       1.0     0.115924     0.424002     0.404122    Uiso  ? Al
   Al13       1.0     0.222024     0.539148     0.151815    Uiso  ? Al
   Al14       1.0     0.775523     0.428194     0.902164    Uiso  ? Al
   Al15       1.0     0.893228     0.533833     0.654509    Uiso  ? Al
   Al16       1.0     0.443258     0.429211     0.402610    Uiso  ? Al
   Al17       1.0     0.556278     0.537787     0.150831    Uiso  ? Al
   Al18       1.0     0.106850     0.432563     0.901347    Uiso  ? Al
   Al19       1.0     0.223907     0.537635     0.649938    Uiso  ? Al
   Al20       1.0     0.779571     0.421372     0.403866    Uiso  ? Al
   Al21       1.0     0.893153     0.530676     0.147430    Uiso  ? Al
   Al22       1.0     0.445404     0.433614     0.903755    Uiso  ? Al
   Al23       1.0     0.116515     0.761749     0.404355    Uiso  ? Al
   Al24       1.0     0.220700     0.872527     0.151393    Uiso  ? Al
   Al25       1.0     0.782760     0.756063     0.906937    Uiso  ? Al
   Al26       1.0     0.891882     0.872564     0.655271    Uiso  ? Al
   Al27       1.0     0.435635     0.761575     0.403091    Uiso  ? Al
   Al28       1.0     0.549624     0.873084     0.150050    Uiso  ? Al
   Al29       1.0     0.113344     0.760037     0.900312    Uiso  ? Al
   Al30       1.0     0.223026     0.872028     0.650509    Uiso  ? Al
   Al31       1.0     0.893250     0.875313     0.147080    Uiso  ? Al
   Al32       1.0     0.444220     0.754958     0.905451    Uiso  ? Al
   Hf1        1.0     0.442666     0.097348     0.890799    Uiso  ? Hf
   Hf2        1.0     0.779858     0.759433     0.393640    Uiso  ? Hf
   Mg1        1.0     0.554569     0.539534     0.650130    Uiso  ? Mg
   Mg2        1.0     0.554909     0.865126     0.649738    Uiso  ? Mg
   N1         1.0     0.221536     0.205262     0.345798    Uiso  ? N
   N2         1.0     0.110804     0.095209     0.093013    Uiso  ? N
   N3         1.0     0.888683     0.206237     0.842726    Uiso  ? N
   N4         1.0     0.779240     0.093521     0.592914    Uiso  ? N
   N5         1.0     0.557172     0.203287     0.345582    Uiso  ? N
   N6         1.0     0.442260     0.097853     0.099363    Uiso  ? N
   N7         1.0     0.200891     0.215478     0.837544    Uiso  ? N
   N8         1.0     0.108838     0.093695     0.592013    Uiso  ? N
   N9         1.0     0.889897     0.204177     0.341322    Uiso  ? N
   N10        1.0     0.776451     0.096366     0.091987    Uiso  ? N
   N11        1.0     0.566027     0.215613     0.838004    Uiso  ? N
   N12        1.0     0.437174     0.107269     0.600953    Uiso  ? N
   N13        1.0     0.219810     0.540758     0.342127    Uiso  ? N
   N14        1.0     0.113563     0.425981     0.091767    Uiso  ? N
   N15        1.0     0.888799     0.538893     0.846906    Uiso  ? N
   N16        1.0     0.793380     0.420732     0.590113    Uiso  ? N
   N17        1.0     0.557757     0.537531     0.341925    Uiso  ? N
   N18        1.0     0.443478     0.426251     0.095713    Uiso  ? N
   N19        1.0     0.223425     0.537279     0.843399    Uiso  ? N
   N20        1.0     0.110298     0.429804     0.593002    Uiso  ? N
   N21        1.0     0.900174     0.518695     0.336354    Uiso  ? N
   N22        1.0     0.778985     0.425571     0.093133    Uiso  ? N
   N23        1.0     0.556337     0.538729     0.856715    Uiso  ? N
   N24        1.0     0.435985     0.423718     0.587102    Uiso  ? N
   N25        1.0     0.218566     0.874109     0.339463    Uiso  ? N
   N26        1.0     0.112554     0.759896     0.090493    Uiso  ? N
   N27        1.0     0.888571     0.872693     0.847492    Uiso  ? N
   N28        1.0     0.795079     0.752613     0.596182    Uiso  ? N
   N29        1.0     0.536983     0.882757     0.340767    Uiso  ? N
   N30        1.0     0.441411     0.761355     0.096448    Uiso  ? N
   N31        1.0     0.222215     0.873268     0.844402    Uiso  ? N
   N32        1.0     0.109669     0.762055     0.594961    Uiso  ? N
   N33        1.0     0.899005     0.881650     0.337394    Uiso  ? N
   N34        1.0     0.779333     0.760151     0.104002    Uiso  ? N
   N35        1.0     0.565105     0.855051     0.857156    Uiso  ? N
   N36        1.0     0.427923     0.767559     0.584164    Uiso  ? N
