
#======================================================================
# CRYSTAL DATA
#----------------------------------------------------------------------
data_VESTA_phase_1

_chemical_name_common                  'Al   Hf   Mg   N                      '
_cell_length_a                         9.751345
_cell_length_b                         9.741532
_cell_length_c                         9.445743
_cell_angle_alpha                      89.992340
_cell_angle_beta                       89.976601
_cell_angle_gamma                      60.050602
_cell_volume                           777.462956
_space_group_name_H-M_alt              'P 1'
_space_group_IT_number                 1

loop_
_space_group_symop_operation_xyz
   'x, y, z'

loop_
   _atom_site_label
   _atom_site_occupancy
   _atom_site_fract_x
   _atom_site_fract_y
   _atom_site_fract_z
   _atom_site_adp_type
   _atom_site_U_iso_or_equiv
   _atom_site_type_symbol
   Al1        1.0     0.109389     0.093253     0.331662    Uiso  ? Al
   Al2        1.0     0.211397     0.210082     0.087184    Uiso  ? Al
   Al3        1.0     0.779871     0.098439     0.829181    Uiso  ? Al
   Al4        1.0     0.889425     0.206944     0.579625    Uiso  ? Al
   Al5        1.0     0.439535     0.098767     0.324661    Uiso  ? Al
   Al6        1.0     0.559151     0.211783     0.089559    Uiso  ? Al
   Al7        1.0     0.105805     0.094236     0.827080    Uiso  ? Al
   Al8        1.0     0.220008     0.207518     0.575959    Uiso  ? Al
   Al9        1.0     0.780826     0.097706     0.329809    Uiso  ? Al
   Al10       1.0     0.890365     0.204524     0.079479    Uiso  ? Al
   Al11       1.0     0.553168     0.208766     0.574321    Uiso  ? Al
   Al12       1.0     0.115028     0.425282     0.329362    Uiso  ? Al
   Al13       1.0     0.222880     0.538726     0.079795    Uiso  ? Al
   Al14       1.0     0.777664     0.426301     0.831157    Uiso  ? Al
   Al15       1.0     0.897714     0.525384     0.586385    Uiso  ? Al
   Al16       1.0     0.442859     0.431906     0.333402    Uiso  ? Al
   Al17       1.0     0.554096     0.539530     0.086504    Uiso  ? Al
   Al18       1.0     0.108400     0.431554     0.828786    Uiso  ? Al
   Al19       1.0     0.222140     0.538847     0.580864    Uiso  ? Al
   Al20       1.0     0.777811     0.422596     0.327527    Uiso  ? Al
   Al21       1.0     0.890561     0.536950     0.076257    Uiso  ? Al
   Al22       1.0     0.445117     0.432168     0.824752    Uiso  ? Al
   Al23       1.0     0.114708     0.762202     0.327126    Uiso  ? Al
   Al24       1.0     0.221915     0.873266     0.080722    Uiso  ? Al
   Al25       1.0     0.783484     0.754950     0.822151    Uiso  ? Al
   Al26       1.0     0.895868     0.875707     0.589111    Uiso  ? Al
   Al27       1.0     0.438690     0.759958     0.334214    Uiso  ? Al
   Al28       1.0     0.557388     0.863638     0.088629    Uiso  ? Al
   Al29       1.0     0.114095     0.760325     0.831764    Uiso  ? Al
   Al30       1.0     0.220280     0.872073     0.579228    Uiso  ? Al
   Al31       1.0     0.889745     0.873080     0.074732    Uiso  ? Al
   Al32       1.0     0.441541     0.755178     0.823989    Uiso  ? Al
   Hf1        1.0     0.443079     0.097392     0.847573    Uiso  ? Hf
   Hf2        1.0     0.780122     0.759961     0.353677    Uiso  ? Hf
   Mg1        1.0     0.558302     0.536476     0.582783    Uiso  ? Mg
   Mg2        1.0     0.546922     0.874931     0.588853    Uiso  ? Mg
   N1         1.0     0.222097     0.205494     0.371824    Uiso  ? N
   N2         1.0     0.109096     0.093779     0.130566    Uiso  ? N
   N3         1.0     0.889954     0.203805     0.879104    Uiso  ? N
   N4         1.0     0.774936     0.097924     0.627304    Uiso  ? N
   N5         1.0     0.556418     0.203796     0.369436    Uiso  ? N
   N6         1.0     0.442419     0.096406     0.113747    Uiso  ? N
   N7         1.0     0.200468     0.215623     0.884082    Uiso  ? N
   N8         1.0     0.110502     0.094882     0.624499    Uiso  ? N
   N9         1.0     0.888934     0.205591     0.377210    Uiso  ? N
   N10        1.0     0.780856     0.092369     0.128378    Uiso  ? N
   N11        1.0     0.565715     0.216498     0.886132    Uiso  ? N
   N12        1.0     0.435706     0.111100     0.627926    Uiso  ? N
   N13        1.0     0.218689     0.542020     0.377108    Uiso  ? N
   N14        1.0     0.109728     0.430454     0.128088    Uiso  ? N
   N15        1.0     0.889937     0.539488     0.875116    Uiso  ? N
   N16        1.0     0.792851     0.418059     0.633072    Uiso  ? N
   N17        1.0     0.558366     0.537850     0.362045    Uiso  ? N
   N18        1.0     0.440585     0.430123     0.130991    Uiso  ? N
   N19        1.0     0.223191     0.537817     0.878013    Uiso  ? N
   N20        1.0     0.114756     0.425384     0.627739    Uiso  ? N
   N21        1.0     0.900004     0.516631     0.380981    Uiso  ? N
   N22        1.0     0.780937     0.426249     0.123975    Uiso  ? N
   N23        1.0     0.555780     0.537905     0.880026    Uiso  ? N
   N24        1.0     0.437484     0.420755     0.625370    Uiso  ? N
   N25        1.0     0.219065     0.873319     0.375955    Uiso  ? N
   N26        1.0     0.109566     0.761593     0.124512    Uiso  ? N
   N27        1.0     0.887086     0.873493     0.871892    Uiso  ? N
   N28        1.0     0.793699     0.752272     0.613947    Uiso  ? N
   N29        1.0     0.538316     0.882469     0.362634    Uiso  ? N
   N30        1.0     0.440445     0.761703     0.128761    Uiso  ? N
   N31        1.0     0.220213     0.874922     0.880071    Uiso  ? N
   N32        1.0     0.112772     0.760286     0.630958    Uiso  ? N
   N33        1.0     0.900024     0.883101     0.383508    Uiso  ? N
   N34        1.0     0.782267     0.759085     0.126467    Uiso  ? N
   N35        1.0     0.566710     0.852426     0.878257    Uiso  ? N
   N36        1.0     0.427882     0.766248     0.628513    Uiso  ? N
