
#======================================================================
# CRYSTAL DATA
#----------------------------------------------------------------------
data_VESTA_phase_1

_chemical_name_common                  'Al   Hf   Mg   N                      '
_cell_length_a                         9.760971
_cell_length_b                         9.734324
_cell_length_c                         9.441831
_cell_angle_alpha                      90.021103
_cell_angle_beta                       90.019012
_cell_angle_gamma                      60.051941
_cell_volume                           777.343038
_space_group_name_H-M_alt              'P 1'
_space_group_IT_number                 1

loop_
_space_group_symop_operation_xyz
   'x, y, z'

loop_
   _atom_site_label
   _atom_site_occupancy
   _atom_site_fract_x
   _atom_site_fract_y
   _atom_site_fract_z
   _atom_site_adp_type
   _atom_site_U_iso_or_equiv
   _atom_site_type_symbol
   Al1        1.0     0.109685     0.091965     0.376262    Uiso  ? Al
   Al2        1.0     0.220798     0.206456     0.133261    Uiso  ? Al
   Al3        1.0     0.780490     0.098052     0.878312    Uiso  ? Al
   Al4        1.0     0.891663     0.204923     0.628409    Uiso  ? Al
   Al5        1.0     0.439273     0.099206     0.386943    Uiso  ? Al
   Al6        1.0     0.555581     0.206742     0.132628    Uiso  ? Al
   Al7        1.0     0.104711     0.095826     0.881369    Uiso  ? Al
   Al8        1.0     0.210483     0.211020     0.619588    Uiso  ? Al
   Al9        1.0     0.780603     0.097568     0.378726    Uiso  ? Al
   Al10       1.0     0.887644     0.207406     0.128715    Uiso  ? Al
   Al11       1.0     0.557056     0.212853     0.619177    Uiso  ? Al
   Al12       1.0     0.114416     0.425842     0.379394    Uiso  ? Al
   Al13       1.0     0.222375     0.539222     0.127833    Uiso  ? Al
   Al14       1.0     0.775409     0.427028     0.875291    Uiso  ? Al
   Al15       1.0     0.894353     0.534770     0.633433    Uiso  ? Al
   Al16       1.0     0.442526     0.430548     0.377427    Uiso  ? Al
   Al17       1.0     0.556114     0.539199     0.122434    Uiso  ? Al
   Al18       1.0     0.109282     0.430839     0.878459    Uiso  ? Al
   Al19       1.0     0.223203     0.537891     0.627125    Uiso  ? Al
   Al20       1.0     0.779752     0.422519     0.381924    Uiso  ? Al
   Al21       1.0     0.894339     0.527579     0.119059    Uiso  ? Al
   Al22       1.0     0.445494     0.432470     0.879599    Uiso  ? Al
   Al23       1.0     0.115646     0.762470     0.381010    Uiso  ? Al
   Al24       1.0     0.222755     0.871135     0.125895    Uiso  ? Al
   Al25       1.0     0.782379     0.756696     0.883655    Uiso  ? Al
   Al26       1.0     0.891796     0.872013     0.633167    Uiso  ? Al
   Al27       1.0     0.435410     0.761306     0.384852    Uiso  ? Al
   Al28       1.0     0.546344     0.874551     0.119410    Uiso  ? Al
   Al29       1.0     0.113776     0.759482     0.876193    Uiso  ? Al
   Al30       1.0     0.219141     0.874622     0.630428    Uiso  ? Al
   Al31       1.0     0.894775     0.876846     0.119243    Uiso  ? Al
   Al32       1.0     0.443863     0.754995     0.872844    Uiso  ? Al
   Hf1        1.0     0.442697     0.096730     0.853717    Uiso  ? Hf
   Hf2        1.0     0.781188     0.759138     0.359236    Uiso  ? Hf
   Mg1        1.0     0.555753     0.536742     0.623391    Uiso  ? Mg
   Mg2        1.0     0.559035     0.862897     0.619010    Uiso  ? Mg
   N1         1.0     0.222231     0.205293     0.335792    Uiso  ? N
   N2         1.0     0.110379     0.096060     0.083629    Uiso  ? N
   N3         1.0     0.889615     0.204622     0.830853    Uiso  ? N
   N4         1.0     0.780280     0.092716     0.580663    Uiso  ? N
   N5         1.0     0.557322     0.202316     0.334843    Uiso  ? N
   N6         1.0     0.441220     0.099088     0.081629    Uiso  ? N
   N7         1.0     0.199271     0.215663     0.824824    Uiso  ? N
   N8         1.0     0.108383     0.093227     0.577508    Uiso  ? N
   N9         1.0     0.888724     0.205339     0.329336    Uiso  ? N
   N10        1.0     0.775417     0.097978     0.079822    Uiso  ? N
   N11        1.0     0.566305     0.215850     0.825356    Uiso  ? N
   N12        1.0     0.436471     0.107831     0.594658    Uiso  ? N
   N13        1.0     0.218869     0.541958     0.329439    Uiso  ? N
   N14        1.0     0.115133     0.425011     0.079824    Uiso  ? N
   N15        1.0     0.889989     0.539123     0.838099    Uiso  ? N
   N16        1.0     0.794722     0.420445     0.581775    Uiso  ? N
   N17        1.0     0.557915     0.538710     0.329381    Uiso  ? N
   N18        1.0     0.443280     0.426094     0.084052    Uiso  ? N
   N19        1.0     0.223583     0.537145     0.831063    Uiso  ? N
   N20        1.0     0.109811     0.430676     0.580377    Uiso  ? N
   N21        1.0     0.900345     0.517393     0.321709    Uiso  ? N
   N22        1.0     0.778782     0.424974     0.078002    Uiso  ? N
   N23        1.0     0.556427     0.537036     0.844206    Uiso  ? N
   N24        1.0     0.434889     0.424057     0.574672    Uiso  ? N
   N25        1.0     0.220092     0.872553     0.326587    Uiso  ? N
   N26        1.0     0.113560     0.759264     0.076919    Uiso  ? N
   N27        1.0     0.887970     0.873080     0.837734    Uiso  ? N
   N28        1.0     0.797298     0.751412     0.579753    Uiso  ? N
   N29        1.0     0.536481     0.882165     0.330075    Uiso  ? N
   N30        1.0     0.440711     0.761617     0.078463    Uiso  ? N
   N31        1.0     0.218881     0.875795     0.833802    Uiso  ? N
   N32        1.0     0.109230     0.762505     0.584056    Uiso  ? N
   N33        1.0     0.900476     0.882235     0.322885    Uiso  ? N
   N34        1.0     0.779548     0.760344     0.094337    Uiso  ? N
   N35        1.0     0.566721     0.854635     0.845103    Uiso  ? N
   N36        1.0     0.426655     0.767564     0.580917    Uiso  ? N
