
#======================================================================
# CRYSTAL DATA
#----------------------------------------------------------------------
data_VESTA_phase_1

_chemical_name_common                  'Al   Hf   Mg   N                      '
_cell_length_a                         9.711519
_cell_length_b                         9.685890
_cell_length_c                         9.586988
_cell_angle_alpha                      90.020103
_cell_angle_beta                       90.015930
_cell_angle_gamma                      60.053974
_cell_volume                           781.403711
_space_group_name_H-M_alt              'P 1'
_space_group_IT_number                 1

loop_
_space_group_symop_operation_xyz
   'x, y, z'

loop_
   _atom_site_label
   _atom_site_occupancy
   _atom_site_fract_x
   _atom_site_fract_y
   _atom_site_fract_z
   _atom_site_adp_type
   _atom_site_U_iso_or_equiv
   _atom_site_type_symbol
   Al1        1.0     0.109841     0.092208     0.378304    Uiso  ? Al
   Al2        1.0     0.220914     0.206373     0.134129    Uiso  ? Al
   Al3        1.0     0.780903     0.097659     0.879682    Uiso  ? Al
   Al4        1.0     0.891317     0.205290     0.629786    Uiso  ? Al
   Al5        1.0     0.439027     0.099568     0.389455    Uiso  ? Al
   Al6        1.0     0.555553     0.206547     0.133607    Uiso  ? Al
   Al7        1.0     0.104638     0.095619     0.882296    Uiso  ? Al
   Al8        1.0     0.210497     0.211087     0.622106    Uiso  ? Al
   Al9        1.0     0.780203     0.098007     0.380382    Uiso  ? Al
   Al10       1.0     0.887885     0.207105     0.130173    Uiso  ? Al
   Al11       1.0     0.556986     0.213121     0.621686    Uiso  ? Al
   Al12       1.0     0.114874     0.425319     0.381161    Uiso  ? Al
   Al13       1.0     0.222254     0.539263     0.129365    Uiso  ? Al
   Al14       1.0     0.775327     0.427421     0.877391    Uiso  ? Al
   Al15       1.0     0.893988     0.534964     0.633942    Uiso  ? Al
   Al16       1.0     0.442649     0.430114     0.378994    Uiso  ? Al
   Al17       1.0     0.556216     0.538870     0.125392    Uiso  ? Al
   Al18       1.0     0.108641     0.431309     0.879773    Uiso  ? Al
   Al19       1.0     0.223421     0.537835     0.628503    Uiso  ? Al
   Al20       1.0     0.779860     0.422142     0.383173    Uiso  ? Al
   Al21       1.0     0.894454     0.527565     0.121925    Uiso  ? Al
   Al22       1.0     0.445538     0.432773     0.881503    Uiso  ? Al
   Al23       1.0     0.115879     0.762385     0.382639    Uiso  ? Al
   Al24       1.0     0.222241     0.871506     0.127856    Uiso  ? Al
   Al25       1.0     0.782485     0.756445     0.886161    Uiso  ? Al
   Al26       1.0     0.891664     0.871884     0.633874    Uiso  ? Al
   Al27       1.0     0.435278     0.761519     0.384941    Uiso  ? Al
   Al28       1.0     0.546169     0.875198     0.122647    Uiso  ? Al
   Al29       1.0     0.113602     0.759610     0.877599    Uiso  ? Al
   Al30       1.0     0.220024     0.874058     0.631221    Uiso  ? Al
   Al31       1.0     0.894784     0.876883     0.121959    Uiso  ? Al
   Al32       1.0     0.444141     0.754788     0.876769    Uiso  ? Al
   Hf1        1.0     0.442868     0.096396     0.855511    Uiso  ? Hf
   Hf2        1.0     0.780993     0.759232     0.361143    Uiso  ? Hf
   Mg1        1.0     0.555395     0.537359     0.625416    Uiso  ? Mg
   Mg2        1.0     0.559236     0.862115     0.621621    Uiso  ? Mg
   N1         1.0     0.222518     0.205129     0.333527    Uiso  ? N
   N2         1.0     0.110420     0.095924     0.081418    Uiso  ? N
   N3         1.0     0.889400     0.204943     0.829161    Uiso  ? N
   N4         1.0     0.780025     0.092930     0.579030    Uiso  ? N
   N5         1.0     0.557097     0.202238     0.332631    Uiso  ? N
   N6         1.0     0.441330     0.098933     0.079183    Uiso  ? N
   N7         1.0     0.198885     0.215943     0.823444    Uiso  ? N
   N8         1.0     0.108377     0.093332     0.576360    Uiso  ? N
   N9         1.0     0.888936     0.205121     0.327641    Uiso  ? N
   N10        1.0     0.775612     0.097709     0.078085    Uiso  ? N
   N11        1.0     0.566533     0.216125     0.823944    Uiso  ? N
   N12        1.0     0.436557     0.107734     0.593836    Uiso  ? N
   N13        1.0     0.218950     0.541823     0.327816    Uiso  ? N
   N14        1.0     0.114848     0.425213     0.078036    Uiso  ? N
   N15        1.0     0.889633     0.539395     0.835436    Uiso  ? N
   N16        1.0     0.794579     0.420454     0.579291    Uiso  ? N
   N17        1.0     0.557971     0.538433     0.327870    Uiso  ? N
   N18        1.0     0.443327     0.426196     0.082378    Uiso  ? N
   N19        1.0     0.223651     0.537099     0.829433    Uiso  ? N
   N20        1.0     0.109919     0.430559     0.578818    Uiso  ? N
   N21        1.0     0.900688     0.516984     0.320585    Uiso  ? N
   N22        1.0     0.778759     0.425098     0.076860    Uiso  ? N
   N23        1.0     0.556338     0.537371     0.842172    Uiso  ? N
   N24        1.0     0.434995     0.423933     0.572772    Uiso  ? N
   N25        1.0     0.219691     0.872935     0.325052    Uiso  ? N
   N26        1.0     0.113383     0.759435     0.075393    Uiso  ? N
   N27        1.0     0.887866     0.872817     0.835284    Uiso  ? N
   N28        1.0     0.797297     0.751436     0.576993    Uiso  ? N
   N29        1.0     0.535910     0.883006     0.327988    Uiso  ? N
   N30        1.0     0.440857     0.761594     0.078192    Uiso  ? N
   N31        1.0     0.219676     0.875275     0.831772    Uiso  ? N
   N32        1.0     0.109320     0.762432     0.582237    Uiso  ? N
   N33        1.0     0.900525     0.882492     0.321705    Uiso  ? N
   N34        1.0     0.779455     0.760343     0.093495    Uiso  ? N
   N35        1.0     0.567053     0.853781     0.842795    Uiso  ? N
   N36        1.0     0.426666     0.767616     0.576807    Uiso  ? N
