
#======================================================================
# CRYSTAL DATA
#----------------------------------------------------------------------
data_VESTA_phase_1

_chemical_name_common                  'Al   Hf   Mg   N                      '
_cell_length_a                         9.528559
_cell_length_b                         9.520362
_cell_length_c                         10.078694
_cell_angle_alpha                      90.027542
_cell_angle_beta                       89.967178
_cell_angle_gamma                      60.042946
_cell_volume                           792.142139
_space_group_name_H-M_alt              'P 1'
_space_group_IT_number                 1

loop_
_space_group_symop_operation_xyz
   'x, y, z'

loop_
   _atom_site_label
   _atom_site_occupancy
   _atom_site_fract_x
   _atom_site_fract_y
   _atom_site_fract_z
   _atom_site_adp_type
   _atom_site_U_iso_or_equiv
   _atom_site_type_symbol
   Al1        1.0     0.110526     0.093402     0.315143    Uiso  ? Al
   Al2        1.0     0.214284     0.208921     0.067623    Uiso  ? Al
   Al3        1.0     0.781795     0.096499     0.812188    Uiso  ? Al
   Al4        1.0     0.889125     0.207412     0.564202    Uiso  ? Al
   Al5        1.0     0.439506     0.099607     0.308438    Uiso  ? Al
   Al6        1.0     0.558319     0.209488     0.067630    Uiso  ? Al
   Al7        1.0     0.105028     0.094167     0.811093    Uiso  ? Al
   Al8        1.0     0.219446     0.207455     0.560535    Uiso  ? Al
   Al9        1.0     0.778878     0.099774     0.313803    Uiso  ? Al
   Al10       1.0     0.889837     0.204850     0.063203    Uiso  ? Al
   Al11       1.0     0.553435     0.210291     0.560358    Uiso  ? Al
   Al12       1.0     0.115991     0.423594     0.313743    Uiso  ? Al
   Al13       1.0     0.221881     0.539262     0.063278    Uiso  ? Al
   Al14       1.0     0.778269     0.426491     0.813344    Uiso  ? Al
   Al15       1.0     0.895002     0.529303     0.569452    Uiso  ? Al
   Al16       1.0     0.444026     0.430706     0.312623    Uiso  ? Al
   Al17       1.0     0.555227     0.538156     0.064665    Uiso  ? Al
   Al18       1.0     0.106930     0.432699     0.811225    Uiso  ? Al
   Al19       1.0     0.223513     0.537970     0.565359    Uiso  ? Al
   Al20       1.0     0.776761     0.422747     0.311335    Uiso  ? Al
   Al21       1.0     0.891136     0.535272     0.059104    Uiso  ? Al
   Al22       1.0     0.444328     0.432911     0.810577    Uiso  ? Al
   Al23       1.0     0.116659     0.761672     0.313817    Uiso  ? Al
   Al24       1.0     0.220173     0.873468     0.063369    Uiso  ? Al
   Al25       1.0     0.784398     0.754645     0.807046    Uiso  ? Al
   Al26       1.0     0.893970     0.874289     0.569508    Uiso  ? Al
   Al27       1.0     0.439092     0.759870     0.309610    Uiso  ? Al
   Al28       1.0     0.555748     0.867086     0.065159    Uiso  ? Al
   Al29       1.0     0.112800     0.760845     0.812670    Uiso  ? Al
   Al30       1.0     0.223430     0.871197     0.565436    Uiso  ? Al
   Al31       1.0     0.890969     0.873711     0.059058    Uiso  ? Al
   Al32       1.0     0.441707     0.755596     0.812497    Uiso  ? Al
   Hf1        1.0     0.442979     0.096219     0.819791    Uiso  ? Hf
   Hf2        1.0     0.780430     0.759451     0.323781    Uiso  ? Hf
   Mg1        1.0     0.555524     0.539789     0.564651    Uiso  ? Mg
   Mg2        1.0     0.549494     0.870933     0.565115    Uiso  ? Mg
   N1         1.0     0.222270     0.205097     0.368941    Uiso  ? N
   N2         1.0     0.109612     0.094096     0.124673    Uiso  ? N
   N3         1.0     0.889194     0.204660     0.874096    Uiso  ? N
   N4         1.0     0.776021     0.096725     0.622276    Uiso  ? N
   N5         1.0     0.555645     0.205570     0.367359    Uiso  ? N
   N6         1.0     0.442816     0.096225     0.111535    Uiso  ? N
   N7         1.0     0.201713     0.215344     0.877573    Uiso  ? N
   N8         1.0     0.110286     0.094869     0.620582    Uiso  ? N
   N9         1.0     0.889312     0.205724     0.372479    Uiso  ? N
   N10        1.0     0.779422     0.093261     0.123311    Uiso  ? N
   N11        1.0     0.565566     0.214288     0.878310    Uiso  ? N
   N12        1.0     0.437031     0.108970     0.617821    Uiso  ? N
   N13        1.0     0.220802     0.540065     0.371963    Uiso  ? N
   N14        1.0     0.109845     0.429644     0.123371    Uiso  ? N
   N15        1.0     0.889732     0.538707     0.870985    Uiso  ? N
   N16        1.0     0.792072     0.419059     0.628027    Uiso  ? N
   N17        1.0     0.556510     0.539511     0.357391    Uiso  ? N
   N18        1.0     0.441806     0.428881     0.122016    Uiso  ? N
   N19        1.0     0.221666     0.538892     0.872932    Uiso  ? N
   N20        1.0     0.113914     0.425941     0.622282    Uiso  ? N
   N21        1.0     0.899155     0.517695     0.376678    Uiso  ? N
   N22        1.0     0.779958     0.426727     0.119661    Uiso  ? N
   N23        1.0     0.556845     0.537055     0.874207    Uiso  ? N
   N24        1.0     0.437515     0.421185     0.625094    Uiso  ? N
   N25        1.0     0.222141     0.872774     0.372161    Uiso  ? N
   N26        1.0     0.109936     0.761387     0.122402    Uiso  ? N
   N27        1.0     0.888198     0.873184     0.869018    Uiso  ? N
   N28        1.0     0.793232     0.752937     0.615166    Uiso  ? N
   N29        1.0     0.538453     0.881417     0.357734    Uiso  ? N
   N30        1.0     0.441150     0.761490     0.118554    Uiso  ? N
   N31        1.0     0.218733     0.874860     0.874922    Uiso  ? N
   N32        1.0     0.112136     0.760780     0.623444    Uiso  ? N
   N33        1.0     0.898801     0.883058     0.377465    Uiso  ? N
   N34        1.0     0.780970     0.759577     0.115630    Uiso  ? N
   N35        1.0     0.566702     0.853467     0.874574    Uiso  ? N
   N36        1.0     0.428256     0.767953     0.631816    Uiso  ? N
