
#======================================================================
# CRYSTAL DATA
#----------------------------------------------------------------------
data_VESTA_phase_1

_chemical_name_common                  'Al   Hf   Mg   N                      '
_cell_length_a                         9.888295
_cell_length_b                         9.876722
_cell_length_c                         9.028119
_cell_angle_alpha                      89.990562
_cell_angle_beta                       89.972221
_cell_angle_gamma                      60.045544
_cell_volume                           763.943521
_space_group_name_H-M_alt              'P 1'
_space_group_IT_number                 1

loop_
_space_group_symop_operation_xyz
   'x, y, z'

loop_
   _atom_site_label
   _atom_site_occupancy
   _atom_site_fract_x
   _atom_site_fract_y
   _atom_site_fract_z
   _atom_site_adp_type
   _atom_site_U_iso_or_equiv
   _atom_site_type_symbol
   Al1        1.0     0.108634     0.093040     0.336486    Uiso  ? Al
   Al2        1.0     0.212956     0.209147     0.096070    Uiso  ? Al
   Al3        1.0     0.778785     0.099455     0.835608    Uiso  ? Al
   Al4        1.0     0.889718     0.206466     0.585081    Uiso  ? Al
   Al5        1.0     0.440085     0.098110     0.336897    Uiso  ? Al
   Al6        1.0     0.558123     0.211713     0.099436    Uiso  ? Al
   Al7        1.0     0.106503     0.094170     0.833717    Uiso  ? Al
   Al8        1.0     0.218171     0.208408     0.579622    Uiso  ? Al
   Al9        1.0     0.781899     0.096529     0.335074    Uiso  ? Al
   Al10       1.0     0.890273     0.204965     0.085195    Uiso  ? Al
   Al11       1.0     0.554492     0.208550     0.577047    Uiso  ? Al
   Al12       1.0     0.114194     0.426517     0.334552    Uiso  ? Al
   Al13       1.0     0.223686     0.538223     0.085641    Uiso  ? Al
   Al14       1.0     0.776875     0.426165     0.836514    Uiso  ? Al
   Al15       1.0     0.897268     0.526937     0.594845    Uiso  ? Al
   Al16       1.0     0.442319     0.432516     0.341532    Uiso  ? Al
   Al17       1.0     0.553640     0.540199     0.096057    Uiso  ? Al
   Al18       1.0     0.109674     0.430594     0.835644    Uiso  ? Al
   Al19       1.0     0.221128     0.539383     0.586184    Uiso  ? Al
   Al20       1.0     0.778280     0.422894     0.334950    Uiso  ? Al
   Al21       1.0     0.891056     0.535293     0.080849    Uiso  ? Al
   Al22       1.0     0.445288     0.431829     0.829568    Uiso  ? Al
   Al23       1.0     0.113916     0.762300     0.331622    Uiso  ? Al
   Al24       1.0     0.223174     0.872886     0.087151    Uiso  ? Al
   Al25       1.0     0.782455     0.755637     0.833344    Uiso  ? Al
   Al26       1.0     0.895318     0.875088     0.598575    Uiso  ? Al
   Al27       1.0     0.438670     0.759865     0.346765    Uiso  ? Al
   Al28       1.0     0.554438     0.865303     0.098501    Uiso  ? Al
   Al29       1.0     0.115024     0.759957     0.838884    Uiso  ? Al
   Al30       1.0     0.218348     0.873004     0.583970    Uiso  ? Al
   Al31       1.0     0.890147     0.873958     0.078383    Uiso  ? Al
   Al32       1.0     0.441496     0.755347     0.826820    Uiso  ? Al
   Hf1        1.0     0.443068     0.097731     0.851178    Uiso  ? Hf
   Hf2        1.0     0.781392     0.759609     0.356274    Uiso  ? Hf
   Mg1        1.0     0.558959     0.535430     0.589501    Uiso  ? Mg
   Mg2        1.0     0.549816     0.872976     0.596571    Uiso  ? Mg
   N1         1.0     0.220647     0.206097     0.363971    Uiso  ? N
   N2         1.0     0.109047     0.093807     0.124190    Uiso  ? N
   N3         1.0     0.890021     0.203884     0.873018    Uiso  ? N
   N4         1.0     0.774756     0.098153     0.621453    Uiso  ? N
   N5         1.0     0.557718     0.203615     0.361317    Uiso  ? N
   N6         1.0     0.442194     0.096640     0.112303    Uiso  ? N
   N7         1.0     0.202600     0.214434     0.878260    Uiso  ? N
   N8         1.0     0.110484     0.095032     0.618692    Uiso  ? N
   N9         1.0     0.889045     0.205241     0.371080    Uiso  ? N
   N10        1.0     0.781018     0.092385     0.121904    Uiso  ? N
   N11        1.0     0.564375     0.216306     0.880681    Uiso  ? N
   N12        1.0     0.435922     0.110336     0.615622    Uiso  ? N
   N13        1.0     0.217815     0.542779     0.371028    Uiso  ? N
   N14        1.0     0.109999     0.430360     0.121455    Uiso  ? N
   N15        1.0     0.890509     0.538148     0.868104    Uiso  ? N
   N16        1.0     0.792469     0.418419     0.625570    Uiso  ? N
   N17        1.0     0.558948     0.537179     0.355064    Uiso  ? N
   N18        1.0     0.440373     0.430258     0.126787    Uiso  ? N
   N19        1.0     0.223872     0.537410     0.871978    Uiso  ? N
   N20        1.0     0.114713     0.425389     0.622036    Uiso  ? N
   N21        1.0     0.899332     0.518826     0.374362    Uiso  ? N
   N22        1.0     0.781095     0.426068     0.118208    Uiso  ? N
   N23        1.0     0.555345     0.538258     0.874183    Uiso  ? N
   N24        1.0     0.437469     0.420924     0.616278    Uiso  ? N
   N25        1.0     0.217599     0.873841     0.369113    Uiso  ? N
   N26        1.0     0.109562     0.761568     0.116911    Uiso  ? N
   N27        1.0     0.887456     0.874402     0.864515    Uiso  ? N
   N28        1.0     0.793575     0.752372     0.612778    Uiso  ? N
   N29        1.0     0.541231     0.880580     0.354702    Uiso  ? N
   N30        1.0     0.440163     0.761663     0.125195    Uiso  ? N
   N31        1.0     0.221110     0.874650     0.874081    Uiso  ? N
   N32        1.0     0.112826     0.760210     0.626245    Uiso  ? N
   N33        1.0     0.899590     0.881922     0.377656    Uiso  ? N
   N34        1.0     0.782299     0.759194     0.115688    Uiso  ? N
   N35        1.0     0.564118     0.854654     0.871211    Uiso  ? N
   N36        1.0     0.428233     0.766120     0.616261    Uiso  ? N
