
#======================================================================
# CRYSTAL DATA
#----------------------------------------------------------------------
data_VESTA_phase_1

_chemical_name_common                  'Al   Hf   Mg   N                      '
_cell_length_a                         9.528550
_cell_length_b                         9.520369
_cell_length_c                         10.078712
_cell_angle_alpha                      90.027657
_cell_angle_beta                       89.967026
_cell_angle_gamma                      60.042953
_cell_volume                           792.143387
_space_group_name_H-M_alt              'P 1'
_space_group_IT_number                 1

loop_
_space_group_symop_operation_xyz
   'x, y, z'

loop_
   _atom_site_label
   _atom_site_occupancy
   _atom_site_fract_x
   _atom_site_fract_y
   _atom_site_fract_z
   _atom_site_adp_type
   _atom_site_U_iso_or_equiv
   _atom_site_type_symbol
   Al1        1.0     0.110548     0.093393     0.300963    Uiso  ? Al
   Al2        1.0     0.214307     0.208912     0.053442    Uiso  ? Al
   Al3        1.0     0.781817     0.096490     0.798011    Uiso  ? Al
   Al4        1.0     0.889147     0.207403     0.550024    Uiso  ? Al
   Al5        1.0     0.439529     0.099597     0.294258    Uiso  ? Al
   Al6        1.0     0.558340     0.209479     0.053451    Uiso  ? Al
   Al7        1.0     0.105051     0.094157     0.796916    Uiso  ? Al
   Al8        1.0     0.219468     0.207445     0.546356    Uiso  ? Al
   Al9        1.0     0.778900     0.099765     0.299625    Uiso  ? Al
   Al10       1.0     0.889859     0.204842     0.049026    Uiso  ? Al
   Al11       1.0     0.553458     0.210281     0.546178    Uiso  ? Al
   Al12       1.0     0.116012     0.423584     0.299565    Uiso  ? Al
   Al13       1.0     0.221902     0.539253     0.049102    Uiso  ? Al
   Al14       1.0     0.778291     0.426481     0.799165    Uiso  ? Al
   Al15       1.0     0.895024     0.529295     0.555274    Uiso  ? Al
   Al16       1.0     0.444048     0.430697     0.298446    Uiso  ? Al
   Al17       1.0     0.555249     0.538147     0.050486    Uiso  ? Al
   Al18       1.0     0.106953     0.432689     0.797047    Uiso  ? Al
   Al19       1.0     0.223534     0.537961     0.551181    Uiso  ? Al
   Al20       1.0     0.776782     0.422739     0.297157    Uiso  ? Al
   Al21       1.0     0.891158     0.535263     0.044923    Uiso  ? Al
   Al22       1.0     0.444350     0.432902     0.796399    Uiso  ? Al
   Al23       1.0     0.116681     0.761663     0.299640    Uiso  ? Al
   Al24       1.0     0.220195     0.873459     0.049191    Uiso  ? Al
   Al25       1.0     0.784420     0.754636     0.792868    Uiso  ? Al
   Al26       1.0     0.893992     0.874279     0.555331    Uiso  ? Al
   Al27       1.0     0.439115     0.759861     0.295429    Uiso  ? Al
   Al28       1.0     0.555770     0.867077     0.050978    Uiso  ? Al
   Al29       1.0     0.112822     0.760836     0.798493    Uiso  ? Al
   Al30       1.0     0.223452     0.871187     0.551257    Uiso  ? Al
   Al31       1.0     0.890991     0.873702     0.044878    Uiso  ? Al
   Al32       1.0     0.441729     0.755586     0.798318    Uiso  ? Al
   Hf1        1.0     0.443002     0.096209     0.805609    Uiso  ? Hf
   Hf2        1.0     0.780454     0.759441     0.309599    Uiso  ? Hf
   Mg1        1.0     0.555546     0.539780     0.550472    Uiso  ? Mg
   Mg2        1.0     0.549517     0.870921     0.550933    Uiso  ? Mg
   N1         1.0     0.222292     0.205088     0.354762    Uiso  ? N
   N2         1.0     0.109634     0.094087     0.110494    Uiso  ? N
   N3         1.0     0.889216     0.204652     0.859919    Uiso  ? N
   N4         1.0     0.776043     0.096716     0.608099    Uiso  ? N
   N5         1.0     0.555667     0.205561     0.353180    Uiso  ? N
   N6         1.0     0.442838     0.096216     0.097356    Uiso  ? N
   N7         1.0     0.201737     0.215334     0.863393    Uiso  ? N
   N8         1.0     0.110308     0.094859     0.606404    Uiso  ? N
   N9         1.0     0.889334     0.205715     0.358301    Uiso  ? N
   N10        1.0     0.779443     0.093253     0.109133    Uiso  ? N
   N11        1.0     0.565587     0.214278     0.864131    Uiso  ? N
   N12        1.0     0.437054     0.108959     0.603638    Uiso  ? N
   N13        1.0     0.220823     0.540056     0.357785    Uiso  ? N
   N14        1.0     0.109867     0.429634     0.109192    Uiso  ? N
   N15        1.0     0.889754     0.538698     0.856805    Uiso  ? N
   N16        1.0     0.792094     0.419050     0.613848    Uiso  ? N
   N17        1.0     0.556531     0.539503     0.343213    Uiso  ? N
   N18        1.0     0.441828     0.428872     0.107839    Uiso  ? N
   N19        1.0     0.221688     0.538883     0.858756    Uiso  ? N
   N20        1.0     0.113936     0.425931     0.608104    Uiso  ? N
   N21        1.0     0.899176     0.517687     0.362500    Uiso  ? N
   N22        1.0     0.779980     0.426719     0.105483    Uiso  ? N
   N23        1.0     0.556867     0.537046     0.860029    Uiso  ? N
   N24        1.0     0.437536     0.421175     0.610916    Uiso  ? N
   N25        1.0     0.222163     0.872765     0.357982    Uiso  ? N
   N26        1.0     0.109957     0.761378     0.108225    Uiso  ? N
   N27        1.0     0.888220     0.873176     0.854839    Uiso  ? N
   N28        1.0     0.793254     0.752927     0.600989    Uiso  ? N
   N29        1.0     0.538477     0.881406     0.343553    Uiso  ? N
   N30        1.0     0.441173     0.761481     0.104374    Uiso  ? N
   N31        1.0     0.218755     0.874851     0.860744    Uiso  ? N
   N32        1.0     0.112158     0.760770     0.609267    Uiso  ? N
   N33        1.0     0.898823     0.883049     0.363287    Uiso  ? N
   N34        1.0     0.780993     0.759568     0.101448    Uiso  ? N
   N35        1.0     0.566724     0.853458     0.860394    Uiso  ? N
   N36        1.0     0.428278     0.767944     0.617637    Uiso  ? N
