
#======================================================================
# CRYSTAL DATA
#----------------------------------------------------------------------
data_VESTA_phase_1

_chemical_name_common                  'Al   Hf   Mg   N                      '
_cell_length_a                         9.660162
_cell_length_b                         9.635898
_cell_length_c                         9.733784
_cell_angle_alpha                      90.018906
_cell_angle_beta                       90.010826
_cell_angle_gamma                      60.055447
_cell_volume                           785.111363
_space_group_name_H-M_alt              'P 1'
_space_group_IT_number                 1

loop_
_space_group_symop_operation_xyz
   'x, y, z'

loop_
   _atom_site_label
   _atom_site_occupancy
   _atom_site_fract_x
   _atom_site_fract_y
   _atom_site_fract_z
   _atom_site_adp_type
   _atom_site_U_iso_or_equiv
   _atom_site_type_symbol
   Al1        1.0     0.109991     0.092469     0.380174    Uiso  ? Al
   Al2        1.0     0.220811     0.206385     0.134947    Uiso  ? Al
   Al3        1.0     0.781330     0.097257     0.880891    Uiso  ? Al
   Al4        1.0     0.890937     0.205673     0.630944    Uiso  ? Al
   Al5        1.0     0.438809     0.099884     0.391275    Uiso  ? Al
   Al6        1.0     0.555631     0.206475     0.134571    Uiso  ? Al
   Al7        1.0     0.104606     0.095368     0.882987    Uiso  ? Al
   Al8        1.0     0.210879     0.210970     0.624267    Uiso  ? Al
   Al9        1.0     0.779799     0.098451     0.381826    Uiso  ? Al
   Al10       1.0     0.888145     0.206801     0.131448    Uiso  ? Al
   Al11       1.0     0.556779     0.213208     0.623803    Uiso  ? Al
   Al12       1.0     0.115338     0.424799     0.382711    Uiso  ? Al
   Al13       1.0     0.222144     0.539307     0.130739    Uiso  ? Al
   Al14       1.0     0.775290     0.427779     0.879338    Uiso  ? Al
   Al15       1.0     0.893687     0.534966     0.634368    Uiso  ? Al
   Al16       1.0     0.442802     0.429715     0.380493    Uiso  ? Al
   Al17       1.0     0.556310     0.538533     0.127996    Uiso  ? Al
   Al18       1.0     0.107999     0.431785     0.880932    Uiso  ? Al
   Al19       1.0     0.223630     0.537764     0.629664    Uiso  ? Al
   Al20       1.0     0.779897     0.421800     0.384190    Uiso  ? Al
   Al21       1.0     0.894387     0.527877     0.124497    Uiso  ? Al
   Al22       1.0     0.445547     0.433078     0.883089    Uiso  ? Al
   Al23       1.0     0.116135     0.762267     0.384009    Uiso  ? Al
   Al24       1.0     0.221724     0.871875     0.129613    Uiso  ? Al
   Al25       1.0     0.782617     0.756197     0.887900    Uiso  ? Al
   Al26       1.0     0.891596     0.871883     0.634517    Uiso  ? Al
   Al27       1.0     0.435233     0.761683     0.384827    Uiso  ? Al
   Al28       1.0     0.546388     0.875466     0.125560    Uiso  ? Al
   Al29       1.0     0.113451     0.759747     0.878898    Uiso  ? Al
   Al30       1.0     0.220955     0.873475     0.631784    Uiso  ? Al
   Al31       1.0     0.894638     0.876751     0.124390    Uiso  ? Al
   Al32       1.0     0.444354     0.754632     0.880322    Uiso  ? Al
   Hf1        1.0     0.442993     0.096190     0.858187    Uiso  ? Hf
   Hf2        1.0     0.780757     0.759316     0.363703    Uiso  ? Hf
   Mg1        1.0     0.555035     0.538021     0.627329    Uiso  ? Mg
   Mg2        1.0     0.559034     0.861716     0.624242    Uiso  ? Mg
   N1         1.0     0.222672     0.205011     0.331426    Uiso  ? N
   N2         1.0     0.110463     0.095769     0.079314    Uiso  ? N
   N3         1.0     0.889177     0.205285     0.827593    Uiso  ? N
   N4         1.0     0.779745     0.093167     0.577511    Uiso  ? N
   N5         1.0     0.556919     0.202273     0.330634    Uiso  ? N
   N6         1.0     0.441499     0.098703     0.077582    Uiso  ? N
   N7         1.0     0.198723     0.216140     0.822186    Uiso  ? N
   N8         1.0     0.108412     0.093456     0.575362    Uiso  ? N
   N9         1.0     0.889175     0.204895     0.326084    Uiso  ? N
   N10        1.0     0.775849     0.097376     0.076530    Uiso  ? N
   N11        1.0     0.566679     0.216295     0.822659    Uiso  ? N
   N12        1.0     0.436691     0.107575     0.592386    Uiso  ? N
   N13        1.0     0.219094     0.541644     0.326370    Uiso  ? N
   N14        1.0     0.114491     0.425474     0.076431    Uiso  ? N
   N15        1.0     0.889315     0.539536     0.832959    Uiso  ? N
   N16        1.0     0.794318     0.420497     0.576941    Uiso  ? N
   N17        1.0     0.558006     0.538142     0.326489    Uiso  ? N
   N18        1.0     0.443364     0.426307     0.080813    Uiso  ? N
   N19        1.0     0.223675     0.537082     0.827937    Uiso  ? N
   N20        1.0     0.110063     0.430375     0.577373    Uiso  ? N
   N21        1.0     0.900910     0.516809     0.319645    Uiso  ? N
   N22        1.0     0.778760     0.425250     0.075918    Uiso  ? N
   N23        1.0     0.556262     0.537743     0.840497    Uiso  ? N
   N24        1.0     0.435180     0.423805     0.571135    Uiso  ? N
   N25        1.0     0.219292     0.873342     0.323661    Uiso  ? N
   N26        1.0     0.113154     0.759623     0.074069    Uiso  ? N
   N27        1.0     0.887854     0.872622     0.833028    Uiso  ? N
   N28        1.0     0.797085     0.751567     0.575190    Uiso  ? N
   N29        1.0     0.535571     0.883638     0.326079    Uiso  ? N
   N30        1.0     0.441014     0.761558     0.078097    Uiso  ? N
   N31        1.0     0.220500     0.874719     0.829891    Uiso  ? N
   N32        1.0     0.109447     0.762337     0.580507    Uiso  ? N
   N33        1.0     0.900444     0.882618     0.320716    Uiso  ? N
   N34        1.0     0.779375     0.760334     0.092204    Uiso  ? N
   N35        1.0     0.567167     0.853157     0.840885    Uiso  ? N
   N36        1.0     0.426790     0.767633     0.572961    Uiso  ? N
