
#======================================================================
# CRYSTAL DATA
#----------------------------------------------------------------------
data_VESTA_phase_1

_chemical_name_common                  'Al   Hf   Mg   N                      '
_cell_length_a                         9.555559
_cell_length_b                         9.535764
_cell_length_c                         10.021485
_cell_angle_alpha                      90.018745
_cell_angle_beta                       89.980118
_cell_angle_gamma                      60.048058
_cell_volume                           791.196439
_space_group_name_H-M_alt              'P 1'
_space_group_IT_number                 1

loop_
_space_group_symop_operation_xyz
   'x, y, z'

loop_
   _atom_site_label
   _atom_site_occupancy
   _atom_site_fract_x
   _atom_site_fract_y
   _atom_site_fract_z
   _atom_site_adp_type
   _atom_site_U_iso_or_equiv
   _atom_site_type_symbol
   Al1        1.0     0.110210     0.092892     0.383557    Uiso  ? Al
   Al2        1.0     0.219404     0.206901     0.137247    Uiso  ? Al
   Al3        1.0     0.782010     0.096654     0.882882    Uiso  ? Al
   Al4        1.0     0.890151     0.206457     0.632589    Uiso  ? Al
   Al5        1.0     0.438571     0.100276     0.391896    Uiso  ? Al
   Al6        1.0     0.556445     0.206949     0.137364    Uiso  ? Al
   Al7        1.0     0.104870     0.094769     0.883589    Uiso  ? Al
   Al8        1.0     0.213626     0.209747     0.627102    Uiso  ? Al
   Al9        1.0     0.779243     0.099053     0.384295    Uiso  ? Al
   Al10       1.0     0.888765     0.206101     0.133526    Uiso  ? Al
   Al11       1.0     0.555621     0.212392     0.626517    Uiso  ? Al
   Al12       1.0     0.115979     0.424031     0.385394    Uiso  ? Al
   Al13       1.0     0.222014     0.539262     0.133170    Uiso  ? Al
   Al14       1.0     0.775458     0.428183     0.883127    Uiso  ? Al
   Al15       1.0     0.893321     0.534145     0.635740    Uiso  ? Al
   Al16       1.0     0.443197     0.429218     0.383652    Uiso  ? Al
   Al17       1.0     0.556350     0.537907     0.132020    Uiso  ? Al
   Al18       1.0     0.106983     0.432499     0.882839    Uiso  ? Al
   Al19       1.0     0.223935     0.537619     0.631441    Uiso  ? Al
   Al20       1.0     0.779687     0.421384     0.385543    Uiso  ? Al
   Al21       1.0     0.893505     0.529945     0.128602    Uiso  ? Al
   Al22       1.0     0.445447     0.433538     0.885333    Uiso  ? Al
   Al23       1.0     0.116543     0.761880     0.385942    Uiso  ? Al
   Al24       1.0     0.220838     0.872471     0.132646    Uiso  ? Al
   Al25       1.0     0.782841     0.755946     0.888975    Uiso  ? Al
   Al26       1.0     0.891789     0.872365     0.636396    Uiso  ? Al
   Al27       1.0     0.435530     0.761672     0.384733    Uiso  ? Al
   Al28       1.0     0.548733     0.873925     0.130756    Uiso  ? Al
   Al29       1.0     0.113340     0.759993     0.881496    Uiso  ? Al
   Al30       1.0     0.222756     0.872288     0.632291    Uiso  ? Al
   Al31       1.0     0.893643     0.875711     0.128273    Uiso  ? Al
   Al32       1.0     0.444352     0.754751     0.886253    Uiso  ? Al
   Hf1        1.0     0.442862     0.096810     0.868983    Uiso  ? Hf
   Hf2        1.0     0.780099     0.759413     0.372600    Uiso  ? Hf
   Mg1        1.0     0.554561     0.539288     0.631146    Uiso  ? Mg
   Mg2        1.0     0.556243     0.863749     0.630115    Uiso  ? Mg
   N1         1.0     0.222035     0.205120     0.328045    Uiso  ? N
   N2         1.0     0.110690     0.095351     0.075513    Uiso  ? N
   N3         1.0     0.888766     0.206048     0.824941    Uiso  ? N
   N4         1.0     0.779284     0.093514     0.575041    Uiso  ? N
   N5         1.0     0.557011     0.202965     0.327691    Uiso  ? N
   N6         1.0     0.442090     0.098031     0.079322    Uiso  ? N
   N7         1.0     0.200090     0.215788     0.819811    Uiso  ? N
   N8         1.0     0.108718     0.093680     0.573937    Uiso  ? N
   N9         1.0     0.889760     0.204350     0.323518    Uiso  ? N
   N10        1.0     0.776359     0.096563     0.074111    Uiso  ? N
   N11        1.0     0.566317     0.215907     0.820257    Uiso  ? N
   N12        1.0     0.437110     0.107223     0.585321    Uiso  ? N
   N13        1.0     0.219652     0.541009     0.324194    Uiso  ? N
   N14        1.0     0.113700     0.425967     0.073917    Uiso  ? N
   N15        1.0     0.888883     0.539123     0.829121    Uiso  ? N
   N16        1.0     0.793532     0.420680     0.572689    Uiso  ? N
   N17        1.0     0.557880     0.537621     0.324099    Uiso  ? N
   N18        1.0     0.443443     0.426340     0.078032    Uiso  ? N
   N19        1.0     0.223532     0.537197     0.825528    Uiso  ? N
   N20        1.0     0.110330     0.429865     0.575073    Uiso  ? N
   N21        1.0     0.900539     0.517983     0.318289    Uiso  ? N
   N22        1.0     0.778920     0.425546     0.074896    Uiso  ? N
   N23        1.0     0.556283     0.538528     0.838605    Uiso  ? N
   N24        1.0     0.435826     0.423662     0.569008    Uiso  ? N
   N25        1.0     0.218666     0.874047     0.321518    Uiso  ? N
   N26        1.0     0.112647     0.759910     0.072364    Uiso  ? N
   N27        1.0     0.888349     0.872594     0.829634    Uiso  ? N
   N28        1.0     0.795676     0.752306     0.576394    Uiso  ? N
   N29        1.0     0.536404     0.883326     0.322951    Uiso  ? N
   N30        1.0     0.441338     0.761416     0.078175    Uiso  ? N
   N31        1.0     0.222002     0.873537     0.826704    Uiso  ? N
   N32        1.0     0.109691     0.762101     0.577343    Uiso  ? N
   N33        1.0     0.899482     0.882028     0.319315    Uiso  ? N
   N34        1.0     0.779335     0.760211     0.087304    Uiso  ? N
   N35        1.0     0.565898     0.854051     0.838880    Uiso  ? N
   N36        1.0     0.427626     0.767551     0.566774    Uiso  ? N
