
#======================================================================
# CRYSTAL DATA
#----------------------------------------------------------------------
data_VESTA_phase_1

_chemical_name_common                  'Al   Hf   Mg   N                      '
_cell_length_a                         10.049564
_cell_length_b                         10.033254
_cell_length_c                         8.545123
_cell_angle_alpha                      89.998581
_cell_angle_beta                       89.983650
_cell_angle_gamma                      60.032104
_cell_volume                           746.411579
_space_group_name_H-M_alt              'P 1'
_space_group_IT_number                 1

loop_
_space_group_symop_operation_xyz
   'x, y, z'

loop_
   _atom_site_label
   _atom_site_occupancy
   _atom_site_fract_x
   _atom_site_fract_y
   _atom_site_fract_z
   _atom_site_adp_type
   _atom_site_U_iso_or_equiv
   _atom_site_type_symbol
   Al1        1.0     0.108729     0.092948     0.348007    Uiso  ? Al
   Al2        1.0     0.215271     0.208125     0.108203    Uiso  ? Al
   Al3        1.0     0.779314     0.098606     0.849544    Uiso  ? Al
   Al4        1.0     0.890631     0.205508     0.598739    Uiso  ? Al
   Al5        1.0     0.440497     0.097597     0.352722    Uiso  ? Al
   Al6        1.0     0.557280     0.210988     0.109564    Uiso  ? Al
   Al7        1.0     0.106675     0.094082     0.849137    Uiso  ? Al
   Al8        1.0     0.215687     0.209154     0.591095    Uiso  ? Al
   Al9        1.0     0.781042     0.096990     0.347461    Uiso  ? Al
   Al10       1.0     0.889267     0.206473     0.098630    Uiso  ? Al
   Al11       1.0     0.555749     0.209310     0.587281    Uiso  ? Al
   Al12       1.0     0.114111     0.426582     0.348095    Uiso  ? Al
   Al13       1.0     0.223778     0.538503     0.098849    Uiso  ? Al
   Al14       1.0     0.776102     0.426432     0.848281    Uiso  ? Al
   Al15       1.0     0.896211     0.529890     0.610558    Uiso  ? Al
   Al16       1.0     0.442853     0.432174     0.352744    Uiso  ? Al
   Al17       1.0     0.554624     0.539828     0.103830    Uiso  ? Al
   Al18       1.0     0.110280     0.430470     0.850734    Uiso  ? Al
   Al19       1.0     0.221344     0.538931     0.598409    Uiso  ? Al
   Al20       1.0     0.777802     0.423684     0.352827    Uiso  ? Al
   Al21       1.0     0.891984     0.531960     0.093790    Uiso  ? Al
   Al22       1.0     0.444984     0.432215     0.842971    Uiso  ? Al
   Al23       1.0     0.114336     0.761941     0.346296    Uiso  ? Al
   Al24       1.0     0.223267     0.872231     0.099394    Uiso  ? Al
   Al25       1.0     0.781976     0.756581     0.850929    Uiso  ? Al
   Al26       1.0     0.893947     0.874393     0.610723    Uiso  ? Al
   Al27       1.0     0.438714     0.759599     0.360298    Uiso  ? Al
   Al28       1.0     0.551092     0.867288     0.104171    Uiso  ? Al
   Al29       1.0     0.114484     0.760059     0.850610    Uiso  ? Al
   Al30       1.0     0.218388     0.873821     0.598226    Uiso  ? Al
   Al31       1.0     0.891908     0.875088     0.090720    Uiso  ? Al
   Al32       1.0     0.441962     0.755678     0.840028    Uiso  ? Al
   Hf1        1.0     0.443318     0.097326     0.852532    Uiso  ? Hf
   Hf2        1.0     0.781367     0.759464     0.356189    Uiso  ? Hf
   Mg1        1.0     0.557723     0.536107     0.600291    Uiso  ? Mg
   Mg2        1.0     0.552270     0.869733     0.603276    Uiso  ? Mg
   N1         1.0     0.219433     0.206306     0.354621    Uiso  ? N
   N2         1.0     0.109512     0.094565     0.110317    Uiso  ? N
   N3         1.0     0.889633     0.204478     0.859718    Uiso  ? N
   N4         1.0     0.776409     0.096441     0.609065    Uiso  ? N
   N5         1.0     0.558547     0.204071     0.353249    Uiso  ? N
   N6         1.0     0.441776     0.097430     0.111170    Uiso  ? N
   N7         1.0     0.205467     0.213052     0.861918    Uiso  ? N
   N8         1.0     0.110142     0.094753     0.607026    Uiso  ? N
   N9         1.0     0.889290     0.204898     0.357868    Uiso  ? N
   N10        1.0     0.779298     0.094393     0.108803    Uiso  ? N
   N11        1.0     0.563342     0.214589     0.865026    Uiso  ? N
   N12        1.0     0.436580     0.108653     0.599359    Uiso  ? N
   N13        1.0     0.218640     0.542098     0.357980    Uiso  ? N
   N14        1.0     0.111869     0.428460     0.107934    Uiso  ? N
   N15        1.0     0.891057     0.536624     0.858122    Uiso  ? N
   N16        1.0     0.791960     0.419956     0.609485    Uiso  ? N
   N17        1.0     0.558304     0.537679     0.346834    Uiso  ? N
   N18        1.0     0.441610     0.429212     0.113698    Uiso  ? N
   N19        1.0     0.223344     0.538073     0.859595    Uiso  ? N
   N20        1.0     0.113072     0.426843     0.608624    Uiso  ? N
   N21        1.0     0.898005     0.522071     0.355489    Uiso  ? N
   N22        1.0     0.779945     0.425919     0.105793    Uiso  ? N
   N23        1.0     0.555973     0.537650     0.864980    Uiso  ? N
   N24        1.0     0.437245     0.422030     0.604594    Uiso  ? N
   N25        1.0     0.218332     0.873837     0.355929    Uiso  ? N
   N26        1.0     0.110870     0.760925     0.105515    Uiso  ? N
   N27        1.0     0.888728     0.874940     0.856673    Uiso  ? N
   N28        1.0     0.793483     0.752818     0.611674    Uiso  ? N
   N29        1.0     0.543084     0.878169     0.346814    Uiso  ? N
   N30        1.0     0.440507     0.761170     0.110015    Uiso  ? N
   N31        1.0     0.220102     0.874564     0.861407    Uiso  ? N
   N32        1.0     0.111458     0.760922     0.612268    Uiso  ? N
   N33        1.0     0.897995     0.880580     0.359675    Uiso  ? N
   N34        1.0     0.781752     0.759431     0.099758    Uiso  ? N
   N35        1.0     0.562288     0.857765     0.863996    Uiso  ? N
   N36        1.0     0.428784     0.766198     0.605535    Uiso  ? N
