
#======================================================================
# CRYSTAL DATA
#----------------------------------------------------------------------
data_VESTA_phase_1

_chemical_name_common                  'Al   Hf   Mg   N '
_cell_length_a                         9.535689
_cell_length_b                         9.517414
_cell_length_c                         10.074970
_cell_angle_alpha                      90.023476
_cell_angle_beta                       89.958847
_cell_angle_gamma                      60.037514
_cell_volume                           792.153282
_space_group_name_H-M_alt              'P 1'
_space_group_IT_number                 1

loop_
_space_group_symop_operation_xyz
   'x, y, z'

loop_
   _atom_site_label
   _atom_site_occupancy
   _atom_site_fract_x
   _atom_site_fract_y
   _atom_site_fract_z
   _atom_site_adp_type
   _atom_site_U_iso_or_equiv
   _atom_site_type_symbol
   Al1        1.0     0.110182     0.092911     0.412779    Uiso  ? Al
   Al2        1.0     0.218755     0.207113     0.166556    Uiso  ? Al
   Al3        1.0     0.782035     0.096634     0.911765    Uiso  ? Al
   Al4        1.0     0.889962     0.206639     0.661350    Uiso  ? Al
   Al5        1.0     0.438522     0.100343     0.419725    Uiso  ? Al
   Al6        1.0     0.556770     0.207206     0.166819    Uiso  ? Al
   Al7        1.0     0.105019     0.094640     0.912068    Uiso  ? Al
   Al8        1.0     0.214620     0.209306     0.655859    Uiso  ? Al
   Al9        1.0     0.779207     0.099058     0.413322    Uiso  ? Al
   Al10       1.0     0.888906     0.205894     0.162406    Uiso  ? Al
   Al11       1.0     0.555170     0.212018     0.655268    Uiso  ? Al
   Al12       1.0     0.115901     0.424021     0.414474    Uiso  ? Al
   Al13       1.0     0.222013     0.539145     0.162167    Uiso  ? Al
   Al14       1.0     0.775511     0.428192     0.912513    Uiso  ? Al
   Al15       1.0     0.893199     0.533853     0.664859    Uiso  ? Al
   Al16       1.0     0.443247     0.429225     0.412953    Uiso  ? Al
   Al17       1.0     0.556270     0.537785     0.161182    Uiso  ? Al
   Al18       1.0     0.106829     0.432569     0.911705    Uiso  ? Al
   Al19       1.0     0.223892     0.537640     0.660283    Uiso  ? Al
   Al20       1.0     0.779548     0.421387     0.414215    Uiso  ? Al
   Al21       1.0     0.893130     0.530683     0.157795    Uiso  ? Al
   Al22       1.0     0.445393     0.433623     0.914106    Uiso  ? Al
   Al23       1.0     0.116498     0.761752     0.414705    Uiso  ? Al
   Al24       1.0     0.220690     0.872515     0.161757    Uiso  ? Al
   Al25       1.0     0.782737     0.756074     0.917281    Uiso  ? Al
   Al26       1.0     0.891857     0.872576     0.665615    Uiso  ? Al
   Al27       1.0     0.435621     0.761587     0.413446    Uiso  ? Al
   Al28       1.0     0.549605     0.873085     0.160392    Uiso  ? Al
   Al29       1.0     0.113328     0.760034     0.910669    Uiso  ? Al
   Al30       1.0     0.223013     0.872034     0.660861    Uiso  ? Al
   Al31       1.0     0.893226     0.875311     0.157436    Uiso  ? Al
   Al32       1.0     0.444196     0.754971     0.915803    Uiso  ? Al
   Hf1        1.0     0.442650     0.097370     0.901163    Uiso  ? Hf
   Hf2        1.0     0.779815     0.759452     0.403990    Uiso  ? Hf
   Mg1        1.0     0.554555     0.539549     0.660472    Uiso  ? Mg
   Mg2        1.0     0.554886     0.865146     0.660101    Uiso  ? Mg
   N1         1.0     0.221523     0.205274     0.356153    Uiso  ? N
   N2         1.0     0.110800     0.095198     0.103371    Uiso  ? N
   N3         1.0     0.888681     0.206233     0.853081    Uiso  ? N
   N4         1.0     0.779222     0.093531     0.603261    Uiso  ? N
   N5         1.0     0.557161     0.203298     0.355938    Uiso  ? N
   N6         1.0     0.442249     0.097855     0.109720    Uiso  ? N
   N7         1.0     0.200873     0.215485     0.847898    Uiso  ? N
   N8         1.0     0.108831     0.093700     0.602357    Uiso  ? N
   N9         1.0     0.889878     0.204190     0.351674    Uiso  ? N
   N10        1.0     0.776436     0.096361     0.102346    Uiso  ? N
   N11        1.0     0.566018     0.215618     0.848354    Uiso  ? N
   N12        1.0     0.437156     0.107284     0.611302    Uiso  ? N
   N13        1.0     0.219797     0.540763     0.352476    Uiso  ? N
   N14        1.0     0.113546     0.425977     0.102126    Uiso  ? N
   N15        1.0     0.888783     0.538905     0.857258    Uiso  ? N
   N16        1.0     0.793365     0.420739     0.600460    Uiso  ? N
   N17        1.0     0.557745     0.537549     0.352277    Uiso  ? N
   N18        1.0     0.443472     0.426247     0.106065    Uiso  ? N
   N19        1.0     0.223416     0.537273     0.853748    Uiso  ? N
   N20        1.0     0.110275     0.429819     0.603353    Uiso  ? N
   N21        1.0     0.900152     0.518715     0.346707    Uiso  ? N
   N22        1.0     0.778970     0.425574     0.103487    Uiso  ? N
   N23        1.0     0.556326     0.538735     0.867066    Uiso  ? N
   N24        1.0     0.435975     0.423729     0.597441    Uiso  ? N
   N25        1.0     0.218560     0.874109     0.349822    Uiso  ? N
   N26        1.0     0.112542     0.759894     0.100851    Uiso  ? N
   N27        1.0     0.888550     0.872694     0.857843    Uiso  ? N
   N28        1.0     0.795042     0.752632     0.606529    Uiso  ? N
   N29        1.0     0.536952     0.882779     0.351103    Uiso  ? N
   N30        1.0     0.441400     0.761353     0.106796    Uiso  ? N
   N31        1.0     0.222201     0.873267     0.854754    Uiso  ? N
   N32        1.0     0.109653     0.762063     0.605302    Uiso  ? N
   N33        1.0     0.898984     0.881654     0.347746    Uiso  ? N
   N34        1.0     0.779311     0.760149     0.114353    Uiso  ? N
   N35        1.0     0.565079     0.855072     0.867505    Uiso  ? N
   N36        1.0     0.427914     0.767577     0.594514    Uiso  ? N
