
#======================================================================
# CRYSTAL DATA
#----------------------------------------------------------------------
data_VESTA_phase_1

_chemical_name_common                  'Al   Hf   Mg   N                      '
_cell_length_a                         9.897911
_cell_length_b                         9.869832
_cell_length_c                         9.024142
_cell_angle_alpha                      90.022003
_cell_angle_beta                       90.020401
_cell_angle_gamma                      60.045162
_cell_volume                           763.813439
_space_group_name_H-M_alt              'P 1'
_space_group_IT_number                 1

loop_
_space_group_symop_operation_xyz
   'x, y, z'

loop_
   _atom_site_label
   _atom_site_occupancy
   _atom_site_fract_x
   _atom_site_fract_y
   _atom_site_fract_z
   _atom_site_adp_type
   _atom_site_U_iso_or_equiv
   _atom_site_type_symbol
   Al1        1.0     0.109280     0.091502     0.369309    Uiso  ? Al
   Al2        1.0     0.219508     0.207040     0.129370    Uiso  ? Al
   Al3        1.0     0.779639     0.098797     0.873024    Uiso  ? Al
   Al4        1.0     0.892322     0.204110     0.622926    Uiso  ? Al
   Al5        1.0     0.439983     0.098111     0.375640    Uiso  ? Al
   Al6        1.0     0.556058     0.207860     0.128446    Uiso  ? Al
   Al7        1.0     0.105067     0.096065     0.876804    Uiso  ? Al
   Al8        1.0     0.211735     0.210236     0.610671    Uiso  ? Al
   Al9        1.0     0.781438     0.096661     0.372225    Uiso  ? Al
   Al10       1.0     0.887184     0.208144     0.123023    Uiso  ? Al
   Al11       1.0     0.556789     0.211462     0.609889    Uiso  ? Al
   Al12       1.0     0.113429     0.427019     0.372615    Uiso  ? Al
   Al13       1.0     0.222815     0.539113     0.122043    Uiso  ? Al
   Al14       1.0     0.775696     0.426089     0.867956    Uiso  ? Al
   Al15       1.0     0.895590     0.533364     0.630528    Uiso  ? Al
   Al16       1.0     0.442393     0.431691     0.371960    Uiso  ? Al
   Al17       1.0     0.555845     0.539912     0.112757    Uiso  ? Al
   Al18       1.0     0.110730     0.429849     0.873344    Uiso  ? Al
   Al19       1.0     0.222533     0.538035     0.621542    Uiso  ? Al
   Al20       1.0     0.779149     0.423555     0.376511    Uiso  ? Al
   Al21       1.0     0.893315     0.528834     0.109586    Uiso  ? Al
   Al22       1.0     0.445264     0.431891     0.871432    Uiso  ? Al
   Al23       1.0     0.115208     0.762522     0.374419    Uiso  ? Al
   Al24       1.0     0.223917     0.870342     0.118791    Uiso  ? Al
   Al25       1.0     0.782077     0.757344     0.871752    Uiso  ? Al
   Al26       1.0     0.892463     0.872932     0.629787    Uiso  ? Al
   Al27       1.0     0.436138     0.760607     0.382006    Uiso  ? Al
   Al28       1.0     0.548188     0.871442     0.109528    Uiso  ? Al
   Al29       1.0     0.114171     0.759262     0.871087    Uiso  ? Al
   Al30       1.0     0.217300     0.875810     0.626412    Uiso  ? Al
   Al31       1.0     0.894153     0.876118     0.110121    Uiso  ? Al
   Al32       1.0     0.443101     0.755608     0.860239    Uiso  ? Al
   Hf1        1.0     0.442251     0.097771     0.851160    Uiso  ? Hf
   Hf2        1.0     0.781522     0.758904     0.355851    Uiso  ? Hf
   Mg1        1.0     0.556615     0.535610     0.616377    Uiso  ? Mg
   Mg2        1.0     0.556988     0.865973     0.611435    Uiso  ? Mg
   N1         1.0     0.220990     0.205844     0.343134    Uiso  ? N
   N2         1.0     0.110187     0.096277     0.090814    Uiso  ? N
   N3         1.0     0.890058     0.203932     0.837012    Uiso  ? N
   N4         1.0     0.780589     0.092512     0.586527    Uiso  ? N
   N5         1.0     0.558022     0.203014     0.342288    Uiso  ? N
   N6         1.0     0.441217     0.098986     0.092555    Uiso  ? N
   N7         1.0     0.201157     0.214648     0.830800    Uiso  ? N
   N8         1.0     0.108612     0.093123     0.582459    Uiso  ? N
   N9         1.0     0.888358     0.205842     0.335444    Uiso  ? N
   N10        1.0     0.775350     0.098197     0.086376    Uiso  ? N
   N11        1.0     0.565428     0.214687     0.831641    Uiso  ? N
   N12        1.0     0.436429     0.107821     0.595510    Uiso  ? N
   N13        1.0     0.218957     0.542094     0.335603    Uiso  ? N
   N14        1.0     0.115331     0.424963     0.086482    Uiso  ? N
   N15        1.0     0.891014     0.537977     0.846493    Uiso  ? N
   N16        1.0     0.794474     0.420535     0.590048    Uiso  ? N
   N17        1.0     0.557763     0.539218     0.335021    Uiso  ? N
   N18        1.0     0.443112     0.426163     0.090060    Uiso  ? N
   N19        1.0     0.223169     0.537450     0.837055    Uiso  ? N
   N20        1.0     0.109849     0.430526     0.586028    Uiso  ? N
   N21        1.0     0.899033     0.519321     0.327118    Uiso  ? N
   N22        1.0     0.778855     0.424945     0.083039    Uiso  ? N
   N23        1.0     0.556644     0.536513     0.851607    Uiso  ? N
   N24        1.0     0.435084     0.424218     0.582272    Uiso  ? N
   N25        1.0     0.220929     0.871867     0.332295    Uiso  ? N
   N26        1.0     0.113629     0.759028     0.082922    Uiso  ? N
   N27        1.0     0.888533     0.874013     0.845614    Uiso  ? N
   N28        1.0     0.796370     0.751809     0.592192    Uiso  ? N
   N29        1.0     0.538858     0.879316     0.337132    Uiso  ? N
   N30        1.0     0.440550     0.761545     0.081818    Uiso  ? N
   N31        1.0     0.217256     0.876755     0.840921    Uiso  ? N
   N32        1.0     0.109268     0.762549     0.590294    Uiso  ? N
   N33        1.0     0.899841     0.881127     0.328495    Uiso  ? N
   N34        1.0     0.779814     0.760328     0.095648    Uiso  ? N
   N35        1.0     0.565149     0.857314     0.853022    Uiso  ? N
   N36        1.0     0.427060     0.767277     0.593343    Uiso  ? N
