
#======================================================================
# CRYSTAL DATA
#----------------------------------------------------------------------
data_VESTA_phase_1

_chemical_name_common                  'Al   Hf   Mg   N                      '
_cell_length_a                         9.980791
_cell_length_b                         9.953150
_cell_length_c                         8.766681
_cell_angle_alpha                      90.020439
_cell_angle_beta                       90.015839
_cell_angle_gamma                      60.040276
_cell_volume                           754.514186
_space_group_name_H-M_alt              'P 1'
_space_group_IT_number                 1

loop_
_space_group_symop_operation_xyz
   'x, y, z'

loop_
   _atom_site_label
   _atom_site_occupancy
   _atom_site_fract_x
   _atom_site_fract_y
   _atom_site_fract_z
   _atom_site_adp_type
   _atom_site_U_iso_or_equiv
   _atom_site_type_symbol
   Al1        1.0     0.109143     0.091574     0.364034    Uiso  ? Al
   Al2        1.0     0.218081     0.207524     0.124547    Uiso  ? Al
   Al3        1.0     0.779591     0.098663     0.867803    Uiso  ? Al
   Al4        1.0     0.892228     0.204092     0.617625    Uiso  ? Al
   Al5        1.0     0.440297     0.097604     0.365861    Uiso  ? Al
   Al6        1.0     0.556546     0.208928     0.123237    Uiso  ? Al
   Al7        1.0     0.105387     0.095800     0.871299    Uiso  ? Al
   Al8        1.0     0.213089     0.209605     0.604407    Uiso  ? Al
   Al9        1.0     0.781414     0.096631     0.366007    Uiso  ? Al
   Al10       1.0     0.887347     0.208236     0.117541    Uiso  ? Al
   Al11       1.0     0.556433     0.210381     0.602687    Uiso  ? Al
   Al12       1.0     0.113306     0.427185     0.366444    Uiso  ? Al
   Al13       1.0     0.223204     0.538965     0.116515    Uiso  ? Al
   Al14       1.0     0.775802     0.425981     0.862164    Uiso  ? Al
   Al15       1.0     0.896161     0.532152     0.626415    Uiso  ? Al
   Al16       1.0     0.442620     0.432017     0.366819    Uiso  ? Al
   Al17       1.0     0.555664     0.539986     0.107452    Uiso  ? Al
   Al18       1.0     0.110966     0.429806     0.868256    Uiso  ? Al
   Al19       1.0     0.222081     0.538206     0.615979    Uiso  ? Al
   Al20       1.0     0.778571     0.424008     0.370803    Uiso  ? Al
   Al21       1.0     0.892549     0.529987     0.103763    Uiso  ? Al
   Al22       1.0     0.445099     0.431942     0.862898    Uiso  ? Al
   Al23       1.0     0.115129     0.762375     0.367978    Uiso  ? Al
   Al24       1.0     0.224076     0.870419     0.113120    Uiso  ? Al
   Al25       1.0     0.781907     0.757533     0.862326    Uiso  ? Al
   Al26       1.0     0.892993     0.873652     0.625490    Uiso  ? Al
   Al27       1.0     0.436823     0.760231     0.376868    Uiso  ? Al
   Al28       1.0     0.549651     0.869239     0.105261    Uiso  ? Al
   Al29       1.0     0.114123     0.759360     0.866458    Uiso  ? Al
   Al30       1.0     0.217173     0.875776     0.621488    Uiso  ? Al
   Al31       1.0     0.893534     0.875521     0.104172    Uiso  ? Al
   Al32       1.0     0.442877     0.755792     0.853178    Uiso  ? Al
   Hf1        1.0     0.442300     0.097951     0.850804    Uiso  ? Hf
   Hf2        1.0     0.781471     0.758922     0.354881    Uiso  ? Hf
   Mg1        1.0     0.556961     0.535698     0.611006    Uiso  ? Mg
   Mg2        1.0     0.555069     0.867740     0.607414    Uiso  ? Mg
   N1         1.0     0.220129     0.206096     0.347780    Uiso  ? N
   N2         1.0     0.109993     0.096123     0.095937    Uiso  ? N
   N3         1.0     0.890016     0.203900     0.842584    Uiso  ? N
   N4         1.0     0.780082     0.093014     0.591893    Uiso  ? N
   N5         1.0     0.558336     0.203662     0.347188    Uiso  ? N
   N6         1.0     0.441336     0.098593     0.101383    Uiso  ? N
   N7         1.0     0.202848     0.213946     0.837697    Uiso  ? N
   N8         1.0     0.108939     0.093369     0.588011    Uiso  ? N
   N9         1.0     0.888467     0.205890     0.340819    Uiso  ? N
   N10        1.0     0.776003     0.097636     0.092308    Uiso  ? N
   N11        1.0     0.564746     0.213845     0.839422    Uiso  ? N
   N12        1.0     0.436519     0.107749     0.595775    Uiso  ? N
   N13        1.0     0.219217     0.541940     0.341358    Uiso  ? N
   N14        1.0     0.114750     0.425551     0.092307    Uiso  ? N
   N15        1.0     0.891399     0.537310     0.851440    Uiso  ? N
   N16        1.0     0.793794     0.420622     0.596071    Uiso  ? N
   N17        1.0     0.557734     0.539161     0.339407    Uiso  ? N
   N18        1.0     0.442947     0.426776     0.095758    Uiso  ? N
   N19        1.0     0.222827     0.537792     0.842609    Uiso  ? N
   N20        1.0     0.110322     0.429854     0.591262    Uiso  ? N
   N21        1.0     0.898199     0.520831     0.333425    Uiso  ? N
   N22        1.0     0.778879     0.425302     0.088479    Uiso  ? N
   N23        1.0     0.556695     0.536605     0.856518    Uiso  ? N
   N24        1.0     0.435735     0.423925     0.589524    Uiso  ? N
   N25        1.0     0.220859     0.872048     0.337611    Uiso  ? N
   N26        1.0     0.113194     0.759248     0.088671    Uiso  ? N
   N27        1.0     0.888888     0.874497     0.850464    Uiso  ? N
   N28        1.0     0.795342     0.752283     0.601643    Uiso  ? N
   N29        1.0     0.540588     0.877810     0.341283    Uiso  ? N
   N30        1.0     0.440692     0.761348     0.087396    Uiso  ? N
   N31        1.0     0.217221     0.876574     0.846571    Uiso  ? N
   N32        1.0     0.109583     0.762373     0.595493    Uiso  ? N
   N33        1.0     0.899114     0.880418     0.335051    Uiso  ? N
   N34        1.0     0.780098     0.760218     0.096259    Uiso  ? N
   N35        1.0     0.564084     0.858502     0.857554    Uiso  ? N
   N36        1.0     0.427556     0.767025     0.599762    Uiso  ? N
