
#======================================================================
# CRYSTAL DATA
#----------------------------------------------------------------------
data_VESTA_phase_1

_chemical_name_common                  'Al   Hf   Mg   N                      '
_cell_length_a                         9.535783
_cell_length_b                         9.517430
_cell_length_c                         10.074880
_cell_angle_alpha                      90.023819
_cell_angle_beta                       89.959328
_cell_angle_gamma                      60.037449
_cell_volume                           792.154758
_space_group_name_H-M_alt              'P 1'
_space_group_IT_number                 1

loop_
_space_group_symop_operation_xyz
   'x, y, z'

loop_
   _atom_site_label
   _atom_site_occupancy
   _atom_site_fract_x
   _atom_site_fract_y
   _atom_site_fract_z
   _atom_site_adp_type
   _atom_site_U_iso_or_equiv
   _atom_site_type_symbol
   Al1        1.0     0.110204     0.092904     0.395271    Uiso  ? Al
   Al2        1.0     0.218781     0.207109     0.149040    Uiso  ? Al
   Al3        1.0     0.782059     0.096628     0.894247    Uiso  ? Al
   Al4        1.0     0.889990     0.206628     0.643837    Uiso  ? Al
   Al5        1.0     0.438547     0.100328     0.402214    Uiso  ? Al
   Al6        1.0     0.556794     0.207201     0.149299    Uiso  ? Al
   Al7        1.0     0.105040     0.094637     0.894548    Uiso  ? Al
   Al8        1.0     0.214639     0.209295     0.638346    Uiso  ? Al
   Al9        1.0     0.779234     0.099043     0.395808    Uiso  ? Al
   Al10       1.0     0.888935     0.205887     0.144889    Uiso  ? Al
   Al11       1.0     0.555195     0.212006     0.637753    Uiso  ? Al
   Al12       1.0     0.115936     0.423997     0.396962    Uiso  ? Al
   Al13       1.0     0.222034     0.539144     0.144654    Uiso  ? Al
   Al14       1.0     0.775535     0.428189     0.895003    Uiso  ? Al
   Al15       1.0     0.893239     0.533828     0.647349    Uiso  ? Al
   Al16       1.0     0.443269     0.429206     0.395448    Uiso  ? Al
   Al17       1.0     0.556290     0.537782     0.143670    Uiso  ? Al
   Al18       1.0     0.106861     0.432559     0.894186    Uiso  ? Al
   Al19       1.0     0.223919     0.537630     0.642776    Uiso  ? Al
   Al20       1.0     0.779582     0.421368     0.396706    Uiso  ? Al
   Al21       1.0     0.893165     0.530671     0.140270    Uiso  ? Al
   Al22       1.0     0.445415     0.433609     0.896595    Uiso  ? Al
   Al23       1.0     0.116526     0.761744     0.397195    Uiso  ? Al
   Al24       1.0     0.220710     0.872522     0.144231    Uiso  ? Al
   Al25       1.0     0.782771     0.756058     0.899776    Uiso  ? Al
   Al26       1.0     0.891893     0.872559     0.648111    Uiso  ? Al
   Al27       1.0     0.435646     0.761570     0.395929    Uiso  ? Al
   Al28       1.0     0.549635     0.873080     0.142888    Uiso  ? Al
   Al29       1.0     0.113355     0.760033     0.893151    Uiso  ? Al
   Al30       1.0     0.223038     0.872024     0.643347    Uiso  ? Al
   Al31       1.0     0.893261     0.875309     0.139921    Uiso  ? Al
   Al32       1.0     0.444231     0.754953     0.898291    Uiso  ? Al
   Hf1        1.0     0.442677     0.097343     0.883638    Uiso  ? Hf
   Hf2        1.0     0.779869     0.759428     0.386479    Uiso  ? Hf
   Mg1        1.0     0.554580     0.539529     0.642969    Uiso  ? Mg
   Mg2        1.0     0.554920     0.865120     0.642578    Uiso  ? Mg
   N1         1.0     0.221547     0.205258     0.338638    Uiso  ? N
   N2         1.0     0.110815     0.095205     0.085852    Uiso  ? N
   N3         1.0     0.888695     0.206233     0.835565    Uiso  ? N
   N4         1.0     0.779251     0.093517     0.585754    Uiso  ? N
   N5         1.0     0.557184     0.203282     0.338422    Uiso  ? N
   N6         1.0     0.442271     0.097849     0.092202    Uiso  ? N
   N7         1.0     0.200902     0.215474     0.830383    Uiso  ? N
   N8         1.0     0.108849     0.093691     0.584852    Uiso  ? N
   N9         1.0     0.889908     0.204173     0.334161    Uiso  ? N
   N10        1.0     0.776463     0.096361     0.084826    Uiso  ? N
   N11        1.0     0.566038     0.215608     0.830843    Uiso  ? N
   N12        1.0     0.437185     0.107264     0.593794    Uiso  ? N
   N13        1.0     0.219821     0.540754     0.334966    Uiso  ? N
   N14        1.0     0.113574     0.425977     0.084607    Uiso  ? N
   N15        1.0     0.888811     0.538889     0.839745    Uiso  ? N
   N16        1.0     0.793391     0.420728     0.582952    Uiso  ? N
   N17        1.0     0.557768     0.537527     0.334764    Uiso  ? N
   N18        1.0     0.443489     0.426246     0.088553    Uiso  ? N
   N19        1.0     0.223437     0.537274     0.836238    Uiso  ? N
   N20        1.0     0.110309     0.429799     0.585843    Uiso  ? N
   N21        1.0     0.900185     0.518690     0.329195    Uiso  ? N
   N22        1.0     0.778996     0.425566     0.085972    Uiso  ? N
   N23        1.0     0.556348     0.538725     0.849554    Uiso  ? N
   N24        1.0     0.435997     0.423713     0.579941    Uiso  ? N
   N25        1.0     0.218577     0.874105     0.332302    Uiso  ? N
   N26        1.0     0.112565     0.759891     0.083332    Uiso  ? N
   N27        1.0     0.888582     0.872688     0.840332    Uiso  ? N
   N28        1.0     0.795090     0.752608     0.589022    Uiso  ? N
   N29        1.0     0.536995     0.882753     0.333606    Uiso  ? N
   N30        1.0     0.441422     0.761350     0.089287    Uiso  ? N
   N31        1.0     0.222227     0.873263     0.837241    Uiso  ? N
   N32        1.0     0.109680     0.762050     0.587801    Uiso  ? N
   N33        1.0     0.899016     0.881645     0.330234    Uiso  ? N
   N34        1.0     0.779344     0.760146     0.096842    Uiso  ? N
   N35        1.0     0.565116     0.855046     0.849996    Uiso  ? N
   N36        1.0     0.427934     0.767554     0.577003    Uiso  ? N
