
#======================================================================
# CRYSTAL DATA
#----------------------------------------------------------------------
data_VESTA_phase_1

_chemical_name_common                  'Al   Hf   Mg   N '
_cell_length_a                         9.527138
_cell_length_b                         9.518994
_cell_length_c                         10.078480
_cell_angle_alpha                      90.026978
_cell_angle_beta                       89.967094
_cell_angle_gamma                      60.042122
_cell_volume                           791.886819
_space_group_name_H-M_alt              'P 1'
_space_group_IT_number                 1

loop_
_space_group_symop_operation_xyz
   'x, y, z'

loop_
   _atom_site_label
   _atom_site_occupancy
   _atom_site_fract_x
   _atom_site_fract_y
   _atom_site_fract_z
   _atom_site_adp_type
   _atom_site_U_iso_or_equiv
   _atom_site_type_symbol
   Al1        1.0     0.110546     0.093396     0.297544    Uiso  ? Al
   Al2        1.0     0.214330     0.208898     0.050021    Uiso  ? Al
   Al3        1.0     0.781824     0.096494     0.794594    Uiso  ? Al
   Al4        1.0     0.889142     0.207400     0.546606    Uiso  ? Al
   Al5        1.0     0.439549     0.099587     0.290845    Uiso  ? Al
   Al6        1.0     0.558325     0.209483     0.050025    Uiso  ? Al
   Al7        1.0     0.105056     0.094160     0.793501    Uiso  ? Al
   Al8        1.0     0.219478     0.207422     0.542930    Uiso  ? Al
   Al9        1.0     0.778898     0.099779     0.296192    Uiso  ? Al
   Al10       1.0     0.889846     0.204865     0.045606    Uiso  ? Al
   Al11       1.0     0.553478     0.210258     0.542753    Uiso  ? Al
   Al12       1.0     0.116019     0.423569     0.296136    Uiso  ? Al
   Al13       1.0     0.221899     0.539260     0.045683    Uiso  ? Al
   Al14       1.0     0.778281     0.426496     0.795745    Uiso  ? Al
   Al15       1.0     0.895016     0.529296     0.551854    Uiso  ? Al
   Al16       1.0     0.444041     0.430694     0.295033    Uiso  ? Al
   Al17       1.0     0.555237     0.538158     0.047070    Uiso  ? Al
   Al18       1.0     0.106961     0.432681     0.793627    Uiso  ? Al
   Al19       1.0     0.223530     0.537949     0.547764    Uiso  ? Al
   Al20       1.0     0.776769     0.422751     0.293741    Uiso  ? Al
   Al21       1.0     0.891159     0.535267     0.041496    Uiso  ? Al
   Al22       1.0     0.444347     0.432902     0.792981    Uiso  ? Al
   Al23       1.0     0.116696     0.761666     0.296217    Uiso  ? Al
   Al24       1.0     0.220199     0.873469     0.045772    Uiso  ? Al
   Al25       1.0     0.784434     0.754639     0.789451    Uiso  ? Al
   Al26       1.0     0.894001     0.874279     0.551907    Uiso  ? Al
   Al27       1.0     0.439124     0.759859     0.292010    Uiso  ? Al
   Al28       1.0     0.555776     0.867084     0.047562    Uiso  ? Al
   Al29       1.0     0.112830     0.760838     0.795078    Uiso  ? Al
   Al30       1.0     0.223461     0.871178     0.547845    Uiso  ? Al
   Al31       1.0     0.890991     0.873722     0.041455    Uiso  ? Al
   Al32       1.0     0.441743     0.755585     0.794900    Uiso  ? Al
   Hf1        1.0     0.443024     0.096186     0.802147    Uiso  ? Hf
   Hf2        1.0     0.780491     0.759437     0.306149    Uiso  ? Hf
   Mg1        1.0     0.555541     0.539762     0.547050    Uiso  ? Mg
   Mg2        1.0     0.549559     0.870871     0.547483    Uiso  ? Mg
   N1         1.0     0.222302     0.205075     0.351349    Uiso  ? N
   N2         1.0     0.109628     0.094098     0.107082    Uiso  ? N
   N3         1.0     0.889215     0.204666     0.856512    Uiso  ? N
   N4         1.0     0.776053     0.096707     0.604693    Uiso  ? N
   N5         1.0     0.555675     0.205558     0.349769    Uiso  ? N
   N6         1.0     0.442848     0.096211     0.093962    Uiso  ? N
   N7         1.0     0.201758     0.215323     0.859982    Uiso  ? N
   N8         1.0     0.110308     0.094851     0.602998    Uiso  ? N
   N9         1.0     0.889332     0.205724     0.354890    Uiso  ? N
   N10        1.0     0.779432     0.093271     0.105713    Uiso  ? N
   N11        1.0     0.565588     0.214274     0.860717    Uiso  ? N
   N12        1.0     0.437084     0.108909     0.600183    Uiso  ? N
   N13        1.0     0.220810     0.540055     0.354372    Uiso  ? N
   N14        1.0     0.109871     0.429630     0.105776    Uiso  ? N
   N15        1.0     0.889761     0.538695     0.853391    Uiso  ? N
   N16        1.0     0.792080     0.419055     0.610437    Uiso  ? N
   N17        1.0     0.556520     0.539502     0.339815    Uiso  ? N
   N18        1.0     0.441822     0.428877     0.104432    Uiso  ? N
   N19        1.0     0.221684     0.538884     0.855349    Uiso  ? N
   N20        1.0     0.113940     0.425911     0.604694    Uiso  ? N
   N21        1.0     0.899184     0.517675     0.359092    Uiso  ? N
   N22        1.0     0.779965     0.426743     0.102077    Uiso  ? N
   N23        1.0     0.556860     0.537047     0.856627    Uiso  ? N
   N24        1.0     0.437539     0.421155     0.607507    Uiso  ? N
   N25        1.0     0.222173     0.872769     0.354578    Uiso  ? N
   N26        1.0     0.109960     0.761389     0.104814    Uiso  ? N
   N27        1.0     0.888226     0.873185     0.851430    Uiso  ? N
   N28        1.0     0.793268     0.752927     0.597587    Uiso  ? N
   N29        1.0     0.538518     0.881381     0.340126    Uiso  ? N
   N30        1.0     0.441174     0.761488     0.100966    Uiso  ? N
   N31        1.0     0.218766     0.874853     0.857334    Uiso  ? N
   N32        1.0     0.112168     0.760757     0.605860    Uiso  ? N
   N33        1.0     0.898840     0.883067     0.359877    Uiso  ? N
   N34        1.0     0.781010     0.759572     0.098015    Uiso  ? N
   N35        1.0     0.566741     0.853448     0.856992    Uiso  ? N
   N36        1.0     0.428298     0.767927     0.614227    Uiso  ? N
