
#======================================================================
# CRYSTAL DATA
#----------------------------------------------------------------------
data_VESTA_phase_1

_chemical_name_common                  'Al   Hf   Mg   N                      '
_cell_length_a                         9.599032
_cell_length_b                         9.590466
_cell_length_c                         9.884415
_cell_angle_alpha                      90.003532
_cell_angle_beta                       89.983131
_cell_angle_gamma                      60.052624
_cell_volume                           788.458423
_space_group_name_H-M_alt              'P 1'
_space_group_IT_number                 1

loop_
_space_group_symop_operation_xyz
   'x, y, z'

loop_
   _atom_site_label
   _atom_site_occupancy
   _atom_site_fract_x
   _atom_site_fract_y
   _atom_site_fract_z
   _atom_site_adp_type
   _atom_site_U_iso_or_equiv
   _atom_site_type_symbol
   Al1        1.0     0.110274     0.093409     0.328041    Uiso  ? Al
   Al2        1.0     0.212224     0.209829     0.080651    Uiso  ? Al
   Al3        1.0     0.781423     0.096904     0.824851    Uiso  ? Al
   Al4        1.0     0.889231     0.207245     0.576216    Uiso  ? Al
   Al5        1.0     0.439221     0.099442     0.319337    Uiso  ? Al
   Al6        1.0     0.559143     0.210752     0.081426    Uiso  ? Al
   Al7        1.0     0.105118     0.094191     0.823069    Uiso  ? Al
   Al8        1.0     0.220284     0.207264     0.573570    Uiso  ? Al
   Al9        1.0     0.779241     0.099338     0.326158    Uiso  ? Al
   Al10       1.0     0.890131     0.204583     0.075592    Uiso  ? Al
   Al11       1.0     0.552908     0.209592     0.572982    Uiso  ? Al
   Al12       1.0     0.115934     0.423885     0.325962    Uiso  ? Al
   Al13       1.0     0.222230     0.539128     0.075803    Uiso  ? Al
   Al14       1.0     0.778377     0.426432     0.826635    Uiso  ? Al
   Al15       1.0     0.896658     0.526574     0.581265    Uiso  ? Al
   Al16       1.0     0.443750     0.431022     0.326670    Uiso  ? Al
   Al17       1.0     0.554932     0.538526     0.078376    Uiso  ? Al
   Al18       1.0     0.107125     0.432639     0.824092    Uiso  ? Al
   Al19       1.0     0.223179     0.538274     0.577433    Uiso  ? Al
   Al20       1.0     0.777005     0.422521     0.323309    Uiso  ? Al
   Al21       1.0     0.890613     0.536791     0.072714    Uiso  ? Al
   Al22       1.0     0.444629     0.432828     0.822173    Uiso  ? Al
   Al23       1.0     0.116046     0.761841     0.325028    Uiso  ? Al
   Al24       1.0     0.220594     0.873547     0.076128    Uiso  ? Al
   Al25       1.0     0.784262     0.754596     0.817037    Uiso  ? Al
   Al26       1.0     0.895223     0.875343     0.582145    Uiso  ? Al
   Al27       1.0     0.438837     0.759925     0.324196    Uiso  ? Al
   Al28       1.0     0.557833     0.864540     0.079868    Uiso  ? Al
   Al29       1.0     0.113008     0.760751     0.826108    Uiso  ? Al
   Al30       1.0     0.222597     0.871185     0.576926    Uiso  ? Al
   Al31       1.0     0.890145     0.872992     0.072288    Uiso  ? Al
   Al32       1.0     0.441676     0.755344     0.823874    Uiso  ? Al
   Hf1        1.0     0.442997     0.096722     0.839282    Uiso  ? Hf
   Hf2        1.0     0.779415     0.759942     0.344951    Uiso  ? Hf
   Mg1        1.0     0.556729     0.538620     0.577766    Uiso  ? Mg
   Mg2        1.0     0.546339     0.874129     0.580786    Uiso  ? Mg
   N1         1.0     0.222768     0.205079     0.378323    Uiso  ? N
   N2         1.0     0.109402     0.093978     0.134870    Uiso  ? N
   N3         1.0     0.889609     0.204172     0.883677    Uiso  ? N
   N4         1.0     0.775736     0.097068     0.631876    Uiso  ? N
   N5         1.0     0.555531     0.204627     0.376509    Uiso  ? N
   N6         1.0     0.442747     0.096191     0.118032    Uiso  ? N
   N7         1.0     0.199965     0.216097     0.887633    Uiso  ? N
   N8         1.0     0.110446     0.094685     0.629507    Uiso  ? N
   N9         1.0     0.889047     0.205738     0.381927    Uiso  ? N
   N10        1.0     0.779947     0.092979     0.133003    Uiso  ? N
   N11        1.0     0.566276     0.215658     0.888807    Uiso  ? N
   N12        1.0     0.436209     0.110386     0.632597    Uiso  ? N
   N13        1.0     0.220085     0.540764     0.381569    Uiso  ? N
   N14        1.0     0.109900     0.429920     0.132938    Uiso  ? N
   N15        1.0     0.889555     0.539818     0.880554    Uiso  ? N
   N16        1.0     0.792728     0.418375     0.637972    Uiso  ? N
   N17        1.0     0.557228     0.539009     0.367293    Uiso  ? N
   N18        1.0     0.441479     0.429378     0.133024    Uiso  ? N
   N19        1.0     0.222280     0.538501     0.882574    Uiso  ? N
   N20        1.0     0.114273     0.425834     0.632049    Uiso  ? N
   N21        1.0     0.900044     0.515947     0.385716    Uiso  ? N
   N22        1.0     0.780290     0.426509     0.128754    Uiso  ? N
   N23        1.0     0.556608     0.537258     0.883987    Uiso  ? N
   N24        1.0     0.437496     0.421117     0.633152    Uiso  ? N
   N25        1.0     0.221181     0.872753     0.381347    Uiso  ? N
   N26        1.0     0.109900     0.761425     0.130983    Uiso  ? N
   N27        1.0     0.887421     0.872884     0.878206    Uiso  ? N
   N28        1.0     0.793304     0.752648     0.619215    Uiso  ? N
   N29        1.0     0.536544     0.882977     0.368282    Uiso  ? N
   N30        1.0     0.441052     0.761464     0.129571    Uiso  ? N
   N31        1.0     0.219057     0.875047     0.884588    Uiso  ? N
   N32        1.0     0.112309     0.760592     0.633881    Uiso  ? N
   N33        1.0     0.899695     0.883650     0.387033    Uiso  ? N
   N34        1.0     0.781502     0.759290     0.130598    Uiso  ? N
   N35        1.0     0.567998     0.851829     0.883909    Uiso  ? N
   N36        1.0     0.427858     0.767022     0.639453    Uiso  ? N
