
#======================================================================
# CRYSTAL DATA
#----------------------------------------------------------------------
data_VESTA_phase_1

_chemical_name_common                  'Al   Hf   Mg   N                      '
_cell_length_a                         10.011988
_cell_length_b                         9.997249
_cell_length_c                         8.651852
_cell_angle_alpha                      89.995560
_cell_angle_beta                       89.978264
_cell_angle_gamma                      60.036610
_cell_volume                           750.240589
_space_group_name_H-M_alt              'P 1'
_space_group_IT_number                 1

loop_
_space_group_symop_operation_xyz
   'x, y, z'

loop_
   _atom_site_label
   _atom_site_occupancy
   _atom_site_fract_x
   _atom_site_fract_y
   _atom_site_fract_z
   _atom_site_adp_type
   _atom_site_U_iso_or_equiv
   _atom_site_type_symbol
   Al1        1.0     0.108554     0.092978     0.344167    Uiso  ? Al
   Al2        1.0     0.214871     0.208210     0.105359    Uiso  ? Al
   Al3        1.0     0.778945     0.099071     0.845307    Uiso  ? Al
   Al4        1.0     0.890339     0.205722     0.594160    Uiso  ? Al
   Al5        1.0     0.440527     0.097572     0.350125    Uiso  ? Al
   Al6        1.0     0.557297     0.211211     0.107686    Uiso  ? Al
   Al7        1.0     0.106781     0.094029     0.844255    Uiso  ? Al
   Al8        1.0     0.216199     0.209084     0.587240    Uiso  ? Al
   Al9        1.0     0.781474     0.096651     0.343445    Uiso  ? Al
   Al10       1.0     0.889622     0.206022     0.094247    Uiso  ? Al
   Al11       1.0     0.555621     0.208990     0.583774    Uiso  ? Al
   Al12       1.0     0.114048     0.426739     0.343560    Uiso  ? Al
   Al13       1.0     0.223965     0.538267     0.094715    Uiso  ? Al
   Al14       1.0     0.776268     0.426292     0.844452    Uiso  ? Al
   Al15       1.0     0.896411     0.529296     0.606391    Uiso  ? Al
   Al16       1.0     0.442615     0.432402     0.350086    Uiso  ? Al
   Al17       1.0     0.554179     0.540058     0.102800    Uiso  ? Al
   Al18       1.0     0.110293     0.430354     0.846111    Uiso  ? Al
   Al19       1.0     0.221034     0.539252     0.594481    Uiso  ? Al
   Al20       1.0     0.777943     0.423476     0.347566    Uiso  ? Al
   Al21       1.0     0.891722     0.532811     0.089673    Uiso  ? Al
   Al22       1.0     0.445083     0.432058     0.838558    Uiso  ? Al
   Al23       1.0     0.114061     0.762054     0.341081    Uiso  ? Al
   Al24       1.0     0.223467     0.872445     0.095900    Uiso  ? Al
   Al25       1.0     0.781885     0.756399     0.847440    Uiso  ? Al
   Al26       1.0     0.894294     0.874461     0.607996    Uiso  ? Al
   Al27       1.0     0.438818     0.759653     0.357580    Uiso  ? Al
   Al28       1.0     0.551618     0.867016     0.103809    Uiso  ? Al
   Al29       1.0     0.114889     0.759978     0.847290    Uiso  ? Al
   Al30       1.0     0.218091     0.873618     0.593217    Uiso  ? Al
   Al31       1.0     0.891334     0.874878     0.086497    Uiso  ? Al
   Al32       1.0     0.441740     0.755656     0.835648    Uiso  ? Al
   Hf1        1.0     0.443194     0.097538     0.852588    Uiso  ? Hf
   Hf2        1.0     0.781618     0.759456     0.356558    Uiso  ? Hf
   Mg1        1.0     0.558217     0.535796     0.597596    Uiso  ? Mg
   Mg2        1.0     0.551974     0.870445     0.602207    Uiso  ? Mg
   N1         1.0     0.219654     0.206323     0.356555    Uiso  ? N
   N2         1.0     0.109336     0.094286     0.114610    Uiso  ? N
   N3         1.0     0.889779     0.204326     0.863941    Uiso  ? N
   N4         1.0     0.775737     0.097125     0.612963    Uiso  ? N
   N5         1.0     0.558498     0.203830     0.354767    Uiso  ? N
   N6         1.0     0.441976     0.097075     0.111380    Uiso  ? N
   N7         1.0     0.204906     0.213279     0.867285    Uiso  ? N
   N8         1.0     0.110312     0.094881     0.610661    Uiso  ? N
   N9         1.0     0.889254     0.204882     0.362031    Uiso  ? N
   N10        1.0     0.779932     0.093648     0.112668    Uiso  ? N
   N11        1.0     0.563376     0.215227     0.870025    Uiso  ? N
   N12        1.0     0.436411     0.109043     0.602380    Uiso  ? N
   N13        1.0     0.218165     0.542496     0.361951    Uiso  ? N
   N14        1.0     0.111200     0.429153     0.111932    Uiso  ? N
   N15        1.0     0.890923     0.536896     0.860353    Uiso  ? N
   N16        1.0     0.791996     0.419467     0.614069    Uiso  ? N
   N17        1.0     0.558571     0.537449     0.348699    Uiso  ? N
   N18        1.0     0.441215     0.429615     0.118145    Uiso  ? N
   N19        1.0     0.223741     0.537739     0.863436    Uiso  ? N
   N20        1.0     0.113743     0.426257     0.612993    Uiso  ? N
   N21        1.0     0.898369     0.521373     0.361633    Uiso  ? N
   N22        1.0     0.780302     0.425999     0.109766    Uiso  ? N
   N23        1.0     0.555673     0.537928     0.867106    Uiso  ? N
   N24        1.0     0.437334     0.421652     0.607224    Uiso  ? N
   N25        1.0     0.217850     0.873908     0.359817    Uiso  ? N
   N26        1.0     0.110348     0.761181     0.108569    Uiso  ? N
   N27        1.0     0.888333     0.874927     0.858205    Uiso  ? N
   N28        1.0     0.793374     0.752768     0.612046    Uiso  ? N
   N29        1.0     0.542951     0.878730     0.348362    Uiso  ? N
   N30        1.0     0.440468     0.761271     0.115164    Uiso  ? N
   N31        1.0     0.220702     0.874515     0.865397    Uiso  ? N
   N32        1.0     0.111984     0.760635     0.617078    Uiso  ? N
   N33        1.0     0.898485     0.880837     0.365629    Uiso  ? N
   N34        1.0     0.781872     0.759395     0.102926    Uiso  ? N
   N35        1.0     0.562372     0.857056     0.865314    Uiso  ? N
   N36        1.0     0.428661     0.766205     0.607238    Uiso  ? N
