
#======================================================================
# CRYSTAL DATA
#----------------------------------------------------------------------
data_VESTA_phase_1

_chemical_name_common                  'Al   Hf   Mg   N                      '
_cell_length_a                         9.535781
_cell_length_b                         9.517427
_cell_length_c                         10.074893
_cell_angle_alpha                      90.023857
_cell_angle_beta                       89.959290
_cell_angle_gamma                      60.037369
_cell_volume                           792.154772
_space_group_name_H-M_alt              'P 1'
_space_group_IT_number                 1

loop_
_space_group_symop_operation_xyz
   'x, y, z'

loop_
   _atom_site_label
   _atom_site_occupancy
   _atom_site_fract_x
   _atom_site_fract_y
   _atom_site_fract_z
   _atom_site_adp_type
   _atom_site_U_iso_or_equiv
   _atom_site_type_symbol
   Al1        1.0     0.110182     0.092914     0.409365    Uiso  ? Al
   Al2        1.0     0.218759     0.207118     0.163130    Uiso  ? Al
   Al3        1.0     0.782038     0.096638     0.908340    Uiso  ? Al
   Al4        1.0     0.889968     0.206637     0.657931    Uiso  ? Al
   Al5        1.0     0.438525     0.100338     0.416306    Uiso  ? Al
   Al6        1.0     0.556771     0.207211     0.163389    Uiso  ? Al
   Al7        1.0     0.105017     0.094646     0.908642    Uiso  ? Al
   Al8        1.0     0.214617     0.209304     0.652438    Uiso  ? Al
   Al9        1.0     0.779212     0.099053     0.409900    Uiso  ? Al
   Al10       1.0     0.888913     0.205896     0.158984    Uiso  ? Al
   Al11       1.0     0.555173     0.212014     0.651845    Uiso  ? Al
   Al12       1.0     0.115913     0.424006     0.411052    Uiso  ? Al
   Al13       1.0     0.222013     0.539153     0.158747    Uiso  ? Al
   Al14       1.0     0.775512     0.428199     0.909096    Uiso  ? Al
   Al15       1.0     0.893217     0.533837     0.661439    Uiso  ? Al
   Al16       1.0     0.443247     0.429215     0.409542    Uiso  ? Al
   Al17       1.0     0.556267     0.537792     0.157763    Uiso  ? Al
   Al18       1.0     0.106839     0.432568     0.908278    Uiso  ? Al
   Al19       1.0     0.223897     0.537639     0.656868    Uiso  ? Al
   Al20       1.0     0.779560     0.421377     0.410798    Uiso  ? Al
   Al21       1.0     0.893142     0.530680     0.154360    Uiso  ? Al
   Al22       1.0     0.445393     0.433619     0.910686    Uiso  ? Al
   Al23       1.0     0.116504     0.761753     0.411285    Uiso  ? Al
   Al24       1.0     0.220689     0.872531     0.158324    Uiso  ? Al
   Al25       1.0     0.782749     0.756068     0.913867    Uiso  ? Al
   Al26       1.0     0.891871     0.872568     0.662201    Uiso  ? Al
   Al27       1.0     0.435624     0.761579     0.410023    Uiso  ? Al
   Al28       1.0     0.549613     0.873089     0.156980    Uiso  ? Al
   Al29       1.0     0.113333     0.760042     0.907243    Uiso  ? Al
   Al30       1.0     0.223016     0.872033     0.657441    Uiso  ? Al
   Al31       1.0     0.893239     0.875318     0.154010    Uiso  ? Al
   Al32       1.0     0.444209     0.754962     0.912380    Uiso  ? Al
   Hf1        1.0     0.442655     0.097352     0.897729    Uiso  ? Hf
   Hf2        1.0     0.779847     0.759438     0.400569    Uiso  ? Hf
   Mg1        1.0     0.554559     0.539538     0.657061    Uiso  ? Mg
   Mg2        1.0     0.554899     0.865130     0.656668    Uiso  ? Mg
   N1         1.0     0.221525     0.205266     0.352728    Uiso  ? N
   N2         1.0     0.110793     0.095214     0.099945    Uiso  ? N
   N3         1.0     0.888673     0.206242     0.849658    Uiso  ? N
   N4         1.0     0.779230     0.093526     0.599845    Uiso  ? N
   N5         1.0     0.557162     0.203291     0.352512    Uiso  ? N
   N6         1.0     0.442249     0.097857     0.106292    Uiso  ? N
   N7         1.0     0.200879     0.215483     0.844474    Uiso  ? N
   N8         1.0     0.108827     0.093700     0.598944    Uiso  ? N
   N9         1.0     0.889886     0.204182     0.348254    Uiso  ? N
   N10        1.0     0.776441     0.096370     0.098918    Uiso  ? N
   N11        1.0     0.566017     0.215617     0.844935    Uiso  ? N
   N12        1.0     0.437163     0.107274     0.607885    Uiso  ? N
   N13        1.0     0.219799     0.540762     0.349058    Uiso  ? N
   N14        1.0     0.113552     0.425986     0.098698    Uiso  ? N
   N15        1.0     0.888788     0.538898     0.853836    Uiso  ? N
   N16        1.0     0.793369     0.420737     0.597044    Uiso  ? N
   N17        1.0     0.557746     0.537536     0.348857    Uiso  ? N
   N18        1.0     0.443467     0.426255     0.102644    Uiso  ? N
   N19        1.0     0.223414     0.537283     0.850329    Uiso  ? N
   N20        1.0     0.110287     0.429808     0.599933    Uiso  ? N
   N21        1.0     0.900163     0.518699     0.343284    Uiso  ? N
   N22        1.0     0.778974     0.425575     0.100064    Uiso  ? N
   N23        1.0     0.556327     0.538733     0.863645    Uiso  ? N
   N24        1.0     0.435975     0.423722     0.594033    Uiso  ? N
   N25        1.0     0.218556     0.874114     0.346395    Uiso  ? N
   N26        1.0     0.112544     0.759900     0.097424    Uiso  ? N
   N27        1.0     0.888560     0.872698     0.854422    Uiso  ? N
   N28        1.0     0.795068     0.752618     0.603111    Uiso  ? N
   N29        1.0     0.536972     0.882761     0.347697    Uiso  ? N
   N30        1.0     0.441401     0.761359     0.103377    Uiso  ? N
   N31        1.0     0.222204     0.873273     0.851333    Uiso  ? N
   N32        1.0     0.109658     0.762059     0.601891    Uiso  ? N
   N33        1.0     0.898994     0.881654     0.344324    Uiso  ? N
   N34        1.0     0.779322     0.760155     0.110931    Uiso  ? N
   N35        1.0     0.565094     0.855055     0.864085    Uiso  ? N
   N36        1.0     0.427912     0.767564     0.591096    Uiso  ? N
