# generated using pymatgen
data_Gd5Al31N36
_symmetry_space_group_name_H-M   'P 1'
_cell_length_a   9.66262599
_cell_length_b   9.65660058
_cell_length_c   10.60476469
_cell_angle_alpha   90.94398670
_cell_angle_beta   90.86181493
_cell_angle_gamma   60.46819448
_symmetry_Int_Tables_number   1
_chemical_formula_structural   Gd5Al31N36
_chemical_formula_sum   'Gd5 Al31 N36'
_cell_volume   860.81153240
_cell_formula_units_Z   1
loop_
 _symmetry_equiv_pos_site_id
 _symmetry_equiv_pos_as_xyz
  1  'x, y, z'
loop_
 _atom_site_type_symbol
 _atom_site_label
 _atom_site_symmetry_multiplicity
 _atom_site_fract_x
 _atom_site_fract_y
 _atom_site_fract_z
 _atom_site_occupancy
  Al  Al0  1  0.12089783  0.07784940  0.40426680  1
  Al  Al1  1  0.22472908  0.21617299  0.03657907  1
  Al  Al2  1  0.88832907  0.20538328  0.57700602  1
  Al  Al3  1  0.43446063  0.09113786  0.31395775  1
  Al  Al4  1  0.54302610  0.21397882  0.05613346  1
  Al  Al5  1  0.11291166  0.09719228  0.85872918  1
  Al  Al6  1  0.23042710  0.20580582  0.57111062  1
  Al  Al7  1  0.88119399  0.21217433  0.03437687  1
  Al  Al8  1  0.43627973  0.09971787  0.80408748  1
  Al  Al9  1  0.54619457  0.21128269  0.55149363  1
  Al  Al10  1  0.22223610  0.53955170  0.05223647  1
  Al  Al11  1  0.76807225  0.43665560  0.86030048  1
  Al  Al12  1  0.89079151  0.54151603  0.57376331  1
  Al  Al13  1  0.44072201  0.43330702  0.30891341  1
  Al  Al14  1  0.56984965  0.53811689  0.12581101  1
  Al  Al15  1  0.11274507  0.43017147  0.80390461  1
  Al  Al16  1  0.22795158  0.54187629  0.56276862  1
  Al  Al17  1  0.76733122  0.43101249  0.39891075  1
  Al  Al18  1  0.89375397  0.54094878  0.03347101  1
  Al  Al19  1  0.43254484  0.42993416  0.80879927  1
  Al  Al20  1  0.55416318  0.54105617  0.63544044  1
  Al  Al21  1  0.11765633  0.75122366  0.31796609  1
  Al  Al22  1  0.78085131  0.75528855  0.80501217  1
  Al  Al23  1  0.89749219  0.86508131  0.55809709  1
  Al  Al24  1  0.43560700  0.75582511  0.39459833  1
  Al  Al25  1  0.56522916  0.87706804  0.04085649  1
  Al  Al26  1  0.11541061  0.75082963  0.80771138  1
  Al  Al27  1  0.22893664  0.87062259  0.63760432  1
  Al  Al28  1  0.89679975  0.85913795  0.04673103  1
  Al  Al29  1  0.44921833  0.75527092  0.87404627  1
  Al  Al30  1  0.55521363  0.87824924  0.56667108  1
  Gd  Gd31  1  0.76264681  0.08820765  0.80601842  1
  Gd  Gd32  1  0.78154968  0.09601155  0.30679243  1
  Gd  Gd33  1  0.11699800  0.41676168  0.30673261  1
  Gd  Gd34  1  0.22937447  0.88340463  0.12260534  1
  Gd  Gd35  1  0.76649655  0.75430785  0.30141543  1
  N  N36  1  0.23712043  0.18111640  0.39003156  1
  N  N37  1  0.09835708  0.12110680  0.04463201  1
  N  N38  1  0.89170754  0.21704831  0.84056582  1
  N  N39  1  0.77276742  0.09344328  0.58879404  1
  N  N40  1  0.52312473  0.22228928  0.37079067  1
  N  N41  1  0.43989053  0.09191951  0.11982452  1
  N  N42  1  0.22413094  0.21116900  0.85267220  1
  N  N43  1  0.11664915  0.08742829  0.59073884  1
  N  N44  1  0.90398308  0.21417548  0.38387354  1
  N  N45  1  0.77752500  0.09351304  0.07987022  1
  N  N46  1  0.51470753  0.22790481  0.88000449  1
  N  N47  1  0.44947828  0.09572916  0.62476797  1
  N  N48  1  0.24226833  0.54974473  0.38457607  1
  N  N49  1  0.11034837  0.42910731  0.08805069  1
  N  N50  1  0.89121379  0.53865864  0.85024800  1
  N  N51  1  0.76711859  0.43192572  0.58509104  1
  N  N52  1  0.56472144  0.54356030  0.31631285  1
  N  N53  1  0.43994914  0.42962264  0.12357256  1
  N  N54  1  0.22336061  0.54216553  0.86901619  1
  N  N55  1  0.11531695  0.42962980  0.61986249  1
  N  N56  1  0.88524247  0.53081743  0.39579424  1
  N  N57  1  0.77209377  0.43275814  0.05193709  1
  N  N58  1  0.55203313  0.54332047  0.81482089  1
  N  N59  1  0.44228684  0.42155837  0.62480507  1
  N  N60  1  0.22308066  0.87146331  0.33800815  1
  N  N61  1  0.09765623  0.74395876  0.13093878  1
  N  N62  1  0.91107076  0.83817513  0.87004185  1
  N  N63  1  0.77676324  0.76555119  0.62196423  1
  N  N64  1  0.53064462  0.88765572  0.38617511  1
  N  N65  1  0.47596917  0.74226113  0.05359904  1
  N  N66  1  0.22924136  0.87183712  0.82371672  1
  N  N67  1  0.11142553  0.75729636  0.62665405  1
  N  N68  1  0.91519751  0.85087249  0.38303112  1
  N  N69  1  0.77928857  0.75814401  0.08711124  1
  N  N70  1  0.55842488  0.88174968  0.85801444  1
  N  N71  1  0.44287494  0.75468884  0.57724195  1
