# generated using pymatgen
data_Gd5Al31N36
_symmetry_space_group_name_H-M   'P 1'
_cell_length_a   9.72639293
_cell_length_b   9.70315956
_cell_length_c   10.36221423
_cell_angle_alpha   90.54096131
_cell_angle_beta   90.31617873
_cell_angle_gamma   59.91007555
_symmetry_Int_Tables_number   1
_chemical_formula_structural   Gd5Al31N36
_chemical_formula_sum   'Gd5 Al31 N36'
_cell_volume   846.12475539
_cell_formula_units_Z   1
loop_
 _symmetry_equiv_pos_site_id
 _symmetry_equiv_pos_as_xyz
  1  'x, y, z'
loop_
 _atom_site_type_symbol
 _atom_site_label
 _atom_site_symmetry_multiplicity
 _atom_site_fract_x
 _atom_site_fract_y
 _atom_site_fract_z
 _atom_site_occupancy
  Al  Al0  1  0.11241453  0.09466988  0.40957430  1
  Al  Al1  1  0.21849131  0.20898966  0.14380649  1
  Al  Al2  1  0.88773095  0.20683215  0.65688659  1
  Al  Al3  1  0.43335487  0.08521712  0.39200742  1
  Al  Al4  1  0.53856723  0.21504294  0.15068644  1
  Al  Al5  1  0.11063106  0.10135500  0.89539768  1
  Al  Al6  1  0.22493851  0.19470142  0.65335272  1
  Al  Al7  1  0.88997074  0.22057987  0.15225423  1
  Al  Al8  1  0.43456528  0.09877792  0.89677680  1
  Al  Al9  1  0.54275304  0.20899341  0.64910787  1
  Al  Al10  1  0.22503511  0.54577139  0.14488928  1
  Al  Al11  1  0.77544891  0.42922856  0.89869011  1
  Al  Al12  1  0.88669851  0.53029685  0.59565997  1
  Al  Al13  1  0.44587310  0.44005585  0.39429889  1
  Al  Al14  1  0.56580121  0.53641901  0.14495526  1
  Al  Al15  1  0.11054069  0.42881691  0.83216634  1
  Al  Al16  1  0.22806192  0.54258480  0.65387407  1
  Al  Al17  1  0.77625453  0.41919197  0.40841952  1
  Al  Al18  1  0.90017923  0.54257110  0.07452661  1
  Al  Al19  1  0.43762966  0.43274464  0.89922976  1
  Al  Al20  1  0.55374318  0.53435658  0.65288905  1
  Al  Al21  1  0.12502603  0.76209440  0.40902593  1
  Al  Al22  1  0.77944087  0.75122717  0.83274357  1
  Al  Al23  1  0.89454516  0.86550735  0.65311873  1
  Al  Al24  1  0.44343568  0.75908146  0.40955549  1
  Al  Al25  1  0.55477339  0.87357862  0.13439745  1
  Al  Al26  1  0.11492762  0.75490600  0.89475728  1
  Al  Al27  1  0.22108067  0.87245947  0.64709800  1
  Al  Al28  1  0.89788587  0.86786920  0.14719193  1
  Al  Al29  1  0.44729497  0.75813182  0.89250407  1
  Al  Al30  1  0.54734389  0.87397507  0.65036529  1
  Gd  Gd31  1  0.77150553  0.09591507  0.89899098  1
  Gd  Gd32  1  0.76937634  0.10194831  0.39064967  1
  Gd  Gd33  1  0.14592460  0.41460931  0.38267743  1
  Gd  Gd34  1  0.22693650  0.87633816  0.15966979  1
  Gd  Gd35  1  0.77914440  0.75009341  0.35433652  1
  N  N36  1  0.23054705  0.16759465  0.32574170  1
  N  N37  1  0.09566376  0.12267723  0.07650101  1
  N  N38  1  0.89969801  0.22052927  0.83564000  1
  N  N39  1  0.77379028  0.09152956  0.61929215  1
  N  N40  1  0.50365959  0.22859908  0.33378267  1
  N  N41  1  0.44138864  0.09622969  0.08174370  1
  N  N42  1  0.22334913  0.20082654  0.83703784  1
  N  N43  1  0.10592532  0.09781775  0.59581883  1
  N  N44  1  0.90538724  0.21677426  0.33613155  1
  N  N45  1  0.77148178  0.10170765  0.12486651  1
  N  N46  1  0.51820544  0.22336356  0.83067545  1
  N  N47  1  0.43996006  0.09080337  0.58292816  1
  N  N48  1  0.24779661  0.57035777  0.32539006  1
  N  N49  1  0.11314766  0.43320533  0.13517709  1
  N  N50  1  0.89369169  0.53786221  0.88397369  1
  N  N51  1  0.76723927  0.41846903  0.59709165  1
  N  N52  1  0.56617953  0.53715345  0.33852601  1
  N  N53  1  0.44743063  0.43054341  0.08506139  1
  N  N54  1  0.22684203  0.54096414  0.83730881  1
  N  N55  1  0.11255497  0.42580619  0.63512320  1
  N  N56  1  0.89659321  0.51156701  0.41587599  1
  N  N57  1  0.77828058  0.42960592  0.08606255  1
  N  N58  1  0.55555873  0.53495923  0.83773159  1
  N  N59  1  0.44119679  0.42857449  0.58378850  1
  N  N60  1  0.22518825  0.87567019  0.37969409  1
  N  N61  1  0.10241659  0.75336863  0.07445229  1
  N  N62  1  0.90615711  0.84451809  0.83380931  1
  N  N63  1  0.77489243  0.75493117  0.63090067  1
  N  N64  1  0.52100682  0.87897983  0.32535069  1
  N  N65  1  0.47197817  0.74563079  0.07396414  1
  N  N66  1  0.22133892  0.87361368  0.83939880  1
  N  N67  1  0.11128802  0.75731411  0.59404662  1
  N  N68  1  0.92980610  0.85809147  0.32947331  1
  N  N69  1  0.77938620  0.76253952  0.12220900  1
  N  N70  1  0.54981794  0.87706755  0.83708712  1
  N  N71  1  0.44738179  0.75533284  0.59695260  1
