# generated using pymatgen
data_Gd5Al31N36
_symmetry_space_group_name_H-M   'P 1'
_cell_length_a   9.74082273
_cell_length_b   9.70432638
_cell_length_c   10.27390254
_cell_angle_alpha   90.39689156
_cell_angle_beta   90.14671478
_cell_angle_gamma   59.81587647
_symmetry_Int_Tables_number   1
_chemical_formula_structural   Gd5Al31N36
_chemical_formula_sum   'Gd5 Al31 N36'
_cell_volume   839.47482900
_cell_formula_units_Z   1
loop_
 _symmetry_equiv_pos_site_id
 _symmetry_equiv_pos_as_xyz
  1  'x, y, z'
loop_
 _atom_site_type_symbol
 _atom_site_label
 _atom_site_symmetry_multiplicity
 _atom_site_fract_x
 _atom_site_fract_y
 _atom_site_fract_z
 _atom_site_occupancy
  Al  Al0  1  0.11420348  0.09458164  0.40934917  1
  Al  Al1  1  0.22212914  0.20276989  0.13995309  1
  Al  Al2  1  0.89131330  0.20846239  0.65291866  1
  Al  Al3  1  0.43022141  0.08814612  0.39167970  1
  Al  Al4  1  0.54010271  0.21224141  0.14969708  1
  Al  Al5  1  0.11234833  0.10040123  0.89256267  1
  Al  Al6  1  0.22285226  0.20334291  0.65586069  1
  Al  Al7  1  0.89065069  0.21678356  0.15214369  1
  Al  Al8  1  0.43749716  0.09624531  0.89694260  1
  Al  Al9  1  0.54393099  0.20790034  0.64787940  1
  Al  Al10  1  0.22765257  0.54331909  0.13919560  1
  Al  Al11  1  0.77686520  0.43058213  0.89797734  1
  Al  Al12  1  0.88905860  0.53350216  0.61362335  1
  Al  Al13  1  0.44251055  0.43785725  0.39418435  1
  Al  Al14  1  0.56265067  0.53438999  0.14606810  1
  Al  Al15  1  0.11891444  0.42500449  0.89585805  1
  Al  Al16  1  0.22386383  0.53653456  0.65606757  1
  Al  Al17  1  0.77532334  0.42576690  0.40027537  1
  Al  Al18  1  0.89147636  0.53841173  0.09089158  1
  Al  Al19  1  0.43992467  0.43144334  0.89634939  1
  Al  Al20  1  0.55583378  0.53422814  0.64925496  1
  Al  Al21  1  0.12427621  0.75979241  0.40876425  1
  Al  Al22  1  0.77661761  0.76120805  0.89709828  1
  Al  Al23  1  0.89255423  0.86265918  0.65825563  1
  Al  Al24  1  0.44416521  0.75756767  0.40800899  1
  Al  Al25  1  0.55224242  0.87208875  0.13855789  1
  Al  Al26  1  0.11484472  0.75449531  0.89189709  1
  Al  Al27  1  0.22334861  0.87128296  0.64419863  1
  Al  Al28  1  0.89635444  0.86631381  0.14493908  1
  Al  Al29  1  0.44842070  0.75627085  0.89218473  1
  Al  Al30  1  0.55471837  0.87063878  0.65577620  1
  Gd  Gd31  1  0.77315509  0.10079759  0.89582165  1
  Gd  Gd32  1  0.77158563  0.10272252  0.38975284  1
  Gd  Gd33  1  0.13539869  0.42073685  0.38506022  1
  Gd  Gd34  1  0.22398285  0.87300673  0.15841368  1
  Gd  Gd35  1  0.76794970  0.77300251  0.38849020  1
  N  N36  1  0.22785030  0.17229477  0.32294275  1
  N  N37  1  0.09553803  0.11995868  0.07550928  1
  N  N38  1  0.90218665  0.22338287  0.83267669  1
  N  N39  1  0.77657495  0.09192896  0.62032953  1
  N  N40  1  0.50638021  0.22573556  0.33376639  1
  N  N41  1  0.44306404  0.09348459  0.08266430  1
  N  N42  1  0.22423872  0.20403971  0.84097059  1
  N  N43  1  0.10997437  0.09829391  0.59638687  1
  N  N44  1  0.90700030  0.21689078  0.33700184  1
  N  N45  1  0.77209465  0.10070874  0.12377600  1
  N  N46  1  0.51998849  0.22147343  0.83085895  1
  N  N47  1  0.44197963  0.08908518  0.58453235  1
  N  N48  1  0.24436486  0.56738074  0.32101009  1
  N  N49  1  0.12168458  0.42530713  0.09614421  1
  N  N50  1  0.89204103  0.53804704  0.88510088  1
  N  N51  1  0.77301233  0.42334120  0.59038004  1
  N  N52  1  0.56085266  0.53545495  0.33877310  1
  N  N53  1  0.44882792  0.42771796  0.08337533  1
  N  N54  1  0.22602367  0.53714166  0.84053531  1
  N  N55  1  0.11352481  0.42476451  0.61180037  1
  N  N56  1  0.88421003  0.52621937  0.37008817  1
  N  N57  1  0.77551899  0.42639865  0.08803778  1
  N  N58  1  0.55787880  0.53301429  0.83582856  1
  N  N59  1  0.44141313  0.42851605  0.58486752  1
  N  N60  1  0.22494144  0.87414260  0.38101029  1
  N  N61  1  0.10132645  0.75080297  0.07242246  1
  N  N62  1  0.90192871  0.84539226  0.83915771  1
  N  N63  1  0.77589263  0.75847822  0.61198393  1
  N  N64  1  0.51919783  0.87963175  0.32241815  1
  N  N65  1  0.47100055  0.74330158  0.07524955  1
  N  N66  1  0.22276493  0.87224559  0.83843957  1
  N  N67  1  0.11106742  0.75527035  0.59647767  1
  N  N68  1  0.93068032  0.85644321  0.32487674  1
  N  N69  1  0.77399119  0.76919638  0.09536960  1
  N  N70  1  0.55444385  0.87407074  0.84184214  1
  N  N71  1  0.45122050  0.75540971  0.59673835  1
