# generated using pymatgen
data_Gd5Al31N36
_symmetry_space_group_name_H-M   'P 1'
_cell_length_a   9.66255225
_cell_length_b   9.65757343
_cell_length_c   10.53384525
_cell_angle_alpha   90.84818141
_cell_angle_beta   90.91770661
_cell_angle_gamma   60.20196211
_symmetry_Int_Tables_number   1
_chemical_formula_structural   Gd5Al31N36
_chemical_formula_sum   'Gd5 Al31 N36'
_cell_volume   852.88104329
_cell_formula_units_Z   1
loop_
 _symmetry_equiv_pos_site_id
 _symmetry_equiv_pos_as_xyz
  1  'x, y, z'
loop_
 _atom_site_type_symbol
 _atom_site_label
 _atom_site_symmetry_multiplicity
 _atom_site_fract_x
 _atom_site_fract_y
 _atom_site_fract_z
 _atom_site_occupancy
  Al  Al0  1  0.11751428  0.09025115  0.41266558  1
  Al  Al1  1  0.22650438  0.20829662  0.12984038  1
  Al  Al2  1  0.88690314  0.20612200  0.65800365  1
  Al  Al3  1  0.42991101  0.09513076  0.40701992  1
  Al  Al4  1  0.54476304  0.21336668  0.15440495  1
  Al  Al5  1  0.10975528  0.10190092  0.89453457  1
  Al  Al6  1  0.22084447  0.19966388  0.65607663  1
  Al  Al7  1  0.89326079  0.22339357  0.15620804  1
  Al  Al8  1  0.43355311  0.10788173  0.88737484  1
  Al  Al9  1  0.54575858  0.21140824  0.65281583  1
  Al  Al10  1  0.23089011  0.54830763  0.14637592  1
  Al  Al11  1  0.77563311  0.42751369  0.89937399  1
  Al  Al12  1  0.88293756  0.53801232  0.59340702  1
  Al  Al13  1  0.44489923  0.43445718  0.39869745  1
  Al  Al14  1  0.56722767  0.53758542  0.14732287  1
  Al  Al15  1  0.10680527  0.43277066  0.82864203  1
  Al  Al16  1  0.22617064  0.54104561  0.65255992  1
  Al  Al17  1  0.77328577  0.41973680  0.41381225  1
  Al  Al18  1  0.90378248  0.54398976  0.06256875  1
  Al  Al19  1  0.43896574  0.43277168  0.90189078  1
  Al  Al20  1  0.55386431  0.53174399  0.65790728  1
  Al  Al21  1  0.11818676  0.75542972  0.40867094  1
  Al  Al22  1  0.77704993  0.75215770  0.82705058  1
  Al  Al23  1  0.89331933  0.86454910  0.65549524  1
  Al  Al24  1  0.43388093  0.75161012  0.42555665  1
  Al  Al25  1  0.57210757  0.87268374  0.05237943  1
  Al  Al26  1  0.11602770  0.75446722  0.89857530  1
  Al  Al27  1  0.21786547  0.87016147  0.65352325  1
  Al  Al28  1  0.90423077  0.86708586  0.14950285  1
  Al  Al29  1  0.44440824  0.75543797  0.89012188  1
  Al  Al30  1  0.55136450  0.87152272  0.59781048  1
  Gd  Gd31  1  0.77598913  0.09174593  0.90593695  1
  Gd  Gd32  1  0.77801843  0.09107285  0.39287628  1
  Gd  Gd33  1  0.12388178  0.41789856  0.35651127  1
  Gd  Gd34  1  0.23520491  0.88520670  0.16320980  1
  Gd  Gd35  1  0.75010050  0.74437464  0.31590637  1
  N  N36  1  0.23981242  0.15628895  0.31950283  1
  N  N37  1  0.09542017  0.12639478  0.07280615  1
  N  N38  1  0.89809549  0.21952475  0.83505214  1
  N  N39  1  0.77455630  0.08971704  0.61738844  1
  N  N40  1  0.51341648  0.22143257  0.33591359  1
  N  N41  1  0.44602628  0.10206839  0.07382496  1
  N  N42  1  0.22021834  0.20489791  0.83809898  1
  N  N43  1  0.10713420  0.09497767  0.59741832  1
  N  N44  1  0.90915852  0.21889762  0.33862837  1
  N  N45  1  0.77812949  0.10103603  0.12986809  1
  N  N46  1  0.52548377  0.22586235  0.83149187  1
  N  N47  1  0.43300964  0.10553770  0.59610271  1
  N  N48  1  0.24630008  0.56163063  0.32849006  1
  N  N49  1  0.11540706  0.43514029  0.12784130  1
  N  N50  1  0.89227254  0.53744142  0.88135432  1
  N  N51  1  0.76693560  0.41839650  0.59824636  1
  N  N52  1  0.56266871  0.53885775  0.34052862  1
  N  N53  1  0.45072300  0.43015396  0.08726344  1
  N  N54  1  0.22800235  0.54153426  0.83732985  1
  N  N55  1  0.10628611  0.42901705  0.63778417  1
  N  N56  1  0.88087492  0.52864255  0.41772534  1
  N  N57  1  0.78045938  0.43240305  0.08745729  1
  N  N58  1  0.55663386  0.53356707  0.84062908  1
  N  N59  1  0.44121472  0.42812678  0.58552699  1
  N  N60  1  0.21950623  0.87112304  0.37826111  1
  N  N61  1  0.11007531  0.75710139  0.07852676  1
  N  N62  1  0.90896673  0.84413116  0.83399508  1
  N  N63  1  0.77020186  0.75593969  0.64377058  1
  N  N64  1  0.52945562  0.87711265  0.41627138  1
  N  N65  1  0.47636443  0.74592701  0.07628586  1
  N  N66  1  0.21969341  0.87444405  0.84176832  1
  N  N67  1  0.10787933  0.75631600  0.59275152  1
  N  N68  1  0.91861230  0.84117127  0.32954617  1
  N  N69  1  0.78476806  0.76690149  0.10100199  1
  N  N70  1  0.55521182  0.87672324  0.86926866  1
  N  N71  1  0.43969806  0.75032756  0.60957645  1
