# generated using pymatgen
data_Gd5Al31N36
_symmetry_space_group_name_H-M   'P 1'
_cell_length_a   9.67346042
_cell_length_b   9.65126693
_cell_length_c   10.60257384
_cell_angle_alpha   90.78759001
_cell_angle_beta   90.79192157
_cell_angle_gamma   60.22213680
_symmetry_Int_Tables_number   1
_chemical_formula_structural   Gd5Al31N36
_chemical_formula_sum   'Gd5 Al31 N36'
_cell_volume   859.05459473
_cell_formula_units_Z   1
loop_
 _symmetry_equiv_pos_site_id
 _symmetry_equiv_pos_as_xyz
  1  'x, y, z'
loop_
 _atom_site_type_symbol
 _atom_site_label
 _atom_site_symmetry_multiplicity
 _atom_site_fract_x
 _atom_site_fract_y
 _atom_site_fract_z
 _atom_site_occupancy
  Al  Al0  1  0.11013367  0.09274418  0.39282628  1
  Al  Al1  1  0.22513713  0.21262909  0.04130509  1
  Al  Al2  1  0.89085772  0.20993840  0.62704116  1
  Al  Al3  1  0.43350264  0.09249643  0.31503994  1
  Al  Al4  1  0.54205374  0.21391663  0.06260583  1
  Al  Al5  1  0.10743815  0.09912847  0.86926828  1
  Al  Al6  1  0.22782230  0.20508852  0.56711750  1
  Al  Al7  1  0.89290351  0.22049466  0.11727379  1
  Al  Al8  1  0.43471206  0.09895410  0.80694720  1
  Al  Al9  1  0.54796931  0.20870620  0.55764335  1
  Al  Al10  1  0.22180699  0.53915124  0.04630906  1
  Al  Al11  1  0.77478703  0.42843407  0.87248225  1
  Al  Al12  1  0.88984318  0.53698954  0.56910512  1
  Al  Al13  1  0.44333116  0.43530028  0.31190772  1
  Al  Al14  1  0.56698296  0.53979740  0.12560550  1
  Al  Al15  1  0.11034227  0.42626198  0.80642039  1
  Al  Al16  1  0.23269157  0.53103388  0.57421494  1
  Al  Al17  1  0.77541279  0.42219948  0.38573748  1
  Al  Al18  1  0.89497083  0.54315196  0.03678258  1
  Al  Al19  1  0.43465951  0.42773921  0.81163244  1
  Al  Al20  1  0.55916910  0.53542323  0.63529462  1
  Al  Al21  1  0.12569491  0.76022714  0.38636360  1
  Al  Al22  1  0.77649309  0.75429598  0.80578408  1
  Al  Al23  1  0.88727948  0.86822259  0.57199693  1
  Al  Al24  1  0.43990044  0.75560169  0.39726477  1
  Al  Al25  1  0.56171391  0.87663200  0.04278170  1
  Al  Al26  1  0.11408116  0.75303305  0.80856771  1
  Al  Al27  1  0.22685278  0.87612409  0.63476761  1
  Al  Al28  1  0.89495570  0.86034688  0.04346927  1
  Al  Al29  1  0.44708285  0.75455641  0.87374464  1
  Al  Al30  1  0.55343469  0.87736501  0.56941938  1
  Gd  Gd31  1  0.76417563  0.09875806  0.82640512  1
  Gd  Gd32  1  0.77851190  0.08803888  0.31463230  1
  Gd  Gd33  1  0.12344772  0.42692236  0.30576204  1
  Gd  Gd34  1  0.22442215  0.87525846  0.13169776  1
  Gd  Gd35  1  0.76842531  0.75406716  0.30347667  1
  N  N36  1  0.23417825  0.18819896  0.38635016  1
  N  N37  1  0.09474451  0.11898080  0.04878300  1
  N  N38  1  0.90165057  0.22389001  0.80497030  1
  N  N39  1  0.77288041  0.09548349  0.59971642  1
  N  N40  1  0.52236542  0.22352666  0.37529366  1
  N  N41  1  0.44035894  0.09103863  0.12372122  1
  N  N42  1  0.22379766  0.20783125  0.85830591  1
  N  N43  1  0.10689127  0.09250763  0.57522977  1
  N  N44  1  0.91041598  0.22058158  0.30529751  1
  N  N45  1  0.77693388  0.09499781  0.08828348  1
  N  N46  1  0.51152449  0.22732935  0.88590026  1
  N  N47  1  0.44538643  0.09536493  0.62647474  1
  N  N48  1  0.25211995  0.54680889  0.39794181  1
  N  N49  1  0.11199975  0.42760125  0.08876768  1
  N  N50  1  0.88995855  0.53858229  0.85557993  1
  N  N51  1  0.76879635  0.42196586  0.56892383  1
  N  N52  1  0.56510563  0.54655308  0.31454288  1
  N  N53  1  0.43761061  0.43089305  0.12620089  1
  N  N54  1  0.22229254  0.53986273  0.86236739  1
  N  N55  1  0.11260423  0.42636566  0.62214295  1
  N  N56  1  0.89020649  0.52623694  0.39172044  1
  N  N57  1  0.77523914  0.42987786  0.05769943  1
  N  N58  1  0.55887530  0.53784815  0.81662714  1
  N  N59  1  0.44648241  0.41683591  0.63061920  1
  N  N60  1  0.22337416  0.87458099  0.34912578  1
  N  N61  1  0.09853157  0.74499308  0.10444726  1
  N  N62  1  0.90421391  0.84176359  0.86240774  1
  N  N63  1  0.77372833  0.75917308  0.62336698  1
  N  N64  1  0.53155898  0.88882428  0.38842235  1
  N  N65  1  0.47063313  0.74318676  0.05345637  1
  N  N66  1  0.22576641  0.87526243  0.81923473  1
  N  N67  1  0.11294523  0.75714468  0.61966631  1
  N  N68  1  0.91279367  0.84815832  0.39634948  1
  N  N69  1  0.77698976  0.76065650  0.08894612  1
  N  N70  1  0.55577160  0.88050474  0.85968598  1
  N  N71  1  0.44426745  0.75226738  0.57952108  1
