# generated using pymatgen
data_Gd5Al31N36
_symmetry_space_group_name_H-M   'P 1'
_cell_length_a   9.61488878
_cell_length_b   9.58951856
_cell_length_c   10.69566486
_cell_angle_alpha   90.68796470
_cell_angle_beta   90.77896980
_cell_angle_gamma   60.45626446
_symmetry_Int_Tables_number   1
_chemical_formula_structural   Gd5Al31N36
_chemical_formula_sum   'Gd5 Al31 N36'
_cell_volume   857.84672004
_cell_formula_units_Z   1
loop_
 _symmetry_equiv_pos_site_id
 _symmetry_equiv_pos_as_xyz
  1  'x, y, z'
loop_
 _atom_site_type_symbol
 _atom_site_label
 _atom_site_symmetry_multiplicity
 _atom_site_fract_x
 _atom_site_fract_y
 _atom_site_fract_z
 _atom_site_occupancy
  Al  Al0  1  0.11192464  0.08713577  0.42648800  1
  Al  Al1  1  0.23228192  0.21840371  0.05422306  1
  Al  Al2  1  0.88357923  0.20473417  0.66239410  1
  Al  Al3  1  0.43915461  0.09875636  0.40870756  1
  Al  Al4  1  0.54516731  0.21057994  0.16068812  1
  Al  Al5  1  0.10646936  0.09754749  0.89319722  1
  Al  Al6  1  0.21466091  0.20677885  0.60394286  1
  Al  Al7  1  0.89714258  0.22354119  0.15606470  1
  Al  Al8  1  0.43630305  0.09538837  0.82275853  1
  Al  Al9  1  0.55322773  0.21339728  0.65477829  1
  Al  Al10  1  0.23248469  0.54716703  0.14270988  1
  Al  Al11  1  0.77452485  0.42642368  0.90012393  1
  Al  Al12  1  0.88598910  0.53785584  0.59208161  1
  Al  Al13  1  0.44010768  0.43717303  0.40067400  1
  Al  Al14  1  0.56810565  0.53740895  0.14608299  1
  Al  Al15  1  0.10783598  0.42752603  0.82693525  1
  Al  Al16  1  0.22451061  0.53973427  0.65332844  1
  Al  Al17  1  0.77327145  0.42382939  0.41505590  1
  Al  Al18  1  0.90205151  0.54849207  0.05590711  1
  Al  Al19  1  0.43880865  0.43111456  0.90219465  1
  Al  Al20  1  0.55377377  0.53172307  0.65806276  1
  Al  Al21  1  0.11689482  0.75202640  0.40676469  1
  Al  Al22  1  0.77874347  0.74980750  0.82546260  1
  Al  Al23  1  0.89295070  0.86514115  0.65499929  1
  Al  Al24  1  0.43128527  0.75641647  0.42660359  1
  Al  Al25  1  0.56818990  0.88243202  0.04978359  1
  Al  Al26  1  0.11551216  0.75234926  0.89818698  1
  Al  Al27  1  0.21683695  0.86740825  0.65861113  1
  Al  Al28  1  0.90511781  0.86716057  0.15094148  1
  Al  Al29  1  0.44666646  0.75312515  0.89271298  1
  Al  Al30  1  0.55474496  0.86616059  0.60052119  1
  Gd  Gd31  1  0.77163868  0.08826013  0.91519519  1
  Gd  Gd32  1  0.78522278  0.09161502  0.39091664  1
  Gd  Gd33  1  0.10943951  0.41081376  0.32634024  1
  Gd  Gd34  1  0.23655854  0.88468274  0.15855134  1
  Gd  Gd35  1  0.74220136  0.74742859  0.30971887  1
  N  N36  1  0.22957067  0.18897960  0.42778149  1
  N  N37  1  0.09688978  0.12536325  0.07321961  1
  N  N38  1  0.89355565  0.21687823  0.83765501  1
  N  N39  1  0.77412363  0.08875972  0.61206374  1
  N  N40  1  0.52048889  0.22217278  0.34189698  1
  N  N41  1  0.44749352  0.09461546  0.10349321  1
  N  N42  1  0.22311542  0.20816666  0.87246948  1
  N  N43  1  0.09951709  0.08801811  0.60763640  1
  N  N44  1  0.91756282  0.22417672  0.33666742  1
  N  N45  1  0.78018036  0.10216720  0.13563065  1
  N  N46  1  0.53022504  0.22653554  0.83086806  1
  N  N47  1  0.44132693  0.09200716  0.63734626  1
  N  N48  1  0.24068264  0.55538587  0.32650418  1
  N  N49  1  0.11850245  0.43360386  0.11026502  1
  N  N50  1  0.89134614  0.53620216  0.87978627  1
  N  N51  1  0.76761486  0.41712177  0.59675699  1
  N  N52  1  0.56077126  0.54325871  0.34083624  1
  N  N53  1  0.45244911  0.42792187  0.08766771  1
  N  N54  1  0.22858748  0.54055683  0.83612046  1
  N  N55  1  0.10429363  0.42692908  0.64679070  1
  N  N56  1  0.88019471  0.53668843  0.41850838  1
  N  N57  1  0.78175054  0.43297926  0.08739169  1
  N  N58  1  0.55684391  0.53327991  0.83932357  1
  N  N59  1  0.43958611  0.42782190  0.58522721  1
  N  N60  1  0.21814908  0.87428135  0.37278329  1
  N  N61  1  0.10981968  0.75714424  0.07664385  1
  N  N62  1  0.90919392  0.84577924  0.83128241  1
  N  N63  1  0.77160145  0.75330124  0.64594240  1
  N  N64  1  0.53034184  0.88397977  0.42243175  1
  N  N65  1  0.47863170  0.74495459  0.07398086  1
  N  N66  1  0.22224994  0.87118228  0.84296050  1
  N  N67  1  0.10785977  0.75447828  0.59008025  1
  N  N68  1  0.91640026  0.84026747  0.32765161  1
  N  N69  1  0.78462400  0.76964616  0.09769542  1
  N  N70  1  0.55694535  0.87553559  0.86952119  1
  N  N71  1  0.43767026  0.74984121  0.60733805  1
