# generated using pymatgen
data_Gd5Al31N36
_symmetry_space_group_name_H-M   'P 1'
_cell_length_a   9.67697701
_cell_length_b   9.63982762
_cell_length_c   10.66317117
_cell_angle_alpha   90.83872513
_cell_angle_beta   91.23170909
_cell_angle_gamma   60.23084232
_symmetry_Int_Tables_number   1
_chemical_formula_structural   Gd5Al31N36
_chemical_formula_sum   'Gd5 Al31 N36'
_cell_volume   863.23019957
_cell_formula_units_Z   1
loop_
 _symmetry_equiv_pos_site_id
 _symmetry_equiv_pos_as_xyz
  1  'x, y, z'
loop_
 _atom_site_type_symbol
 _atom_site_label
 _atom_site_symmetry_multiplicity
 _atom_site_fract_x
 _atom_site_fract_y
 _atom_site_fract_z
 _atom_site_occupancy
  Al  Al0  1  0.11155036  0.08964090  0.40665498  1
  Al  Al1  1  0.22966349  0.21024487  0.05362019  1
  Al  Al2  1  0.89216752  0.21111939  0.63785199  1
  Al  Al3  1  0.43309404  0.09313086  0.32825885  1
  Al  Al4  1  0.54973711  0.20963822  0.07297612  1
  Al  Al5  1  0.10779320  0.09681754  0.88326953  1
  Al  Al6  1  0.22726321  0.20408123  0.57956249  1
  Al  Al7  1  0.89725612  0.21905205  0.13181359  1
  Al  Al8  1  0.43440458  0.09837519  0.81898194  1
  Al  Al9  1  0.54324122  0.21315154  0.56513704  1
  Al  Al10  1  0.23318834  0.52809514  0.05655602  1
  Al  Al11  1  0.77590634  0.42640682  0.88564929  1
  Al  Al12  1  0.88544773  0.53974337  0.58106128  1
  Al  Al13  1  0.43954130  0.43618940  0.31808820  1
  Al  Al14  1  0.57214550  0.53877402  0.13738655  1
  Al  Al15  1  0.10690457  0.42275139  0.81839350  1
  Al  Al16  1  0.22308523  0.53588726  0.61245606  1
  Al  Al17  1  0.77320669  0.42449491  0.39837692  1
  Al  Al18  1  0.89806778  0.54344888  0.04751495  1
  Al  Al19  1  0.43845418  0.42525980  0.82299258  1
  Al  Al20  1  0.55775407  0.53685766  0.64748719  1
  Al  Al21  1  0.12656781  0.75719096  0.41960297  1
  Al  Al22  1  0.77602682  0.75482602  0.81539386  1
  Al  Al23  1  0.88465219  0.86980517  0.57789955  1
  Al  Al24  1  0.43640688  0.75554475  0.41066104  1
  Al  Al25  1  0.56573742  0.87585388  0.05363685  1
  Al  Al26  1  0.11679987  0.75720767  0.87814390  1
  Al  Al27  1  0.22276271  0.87281733  0.64983566  1
  Al  Al28  1  0.88958425  0.86789242  0.05216189  1
  Al  Al29  1  0.44853757  0.75412365  0.88618575  1
  Al  Al30  1  0.55084590  0.87881076  0.58097882  1
  Gd  Gd31  1  0.76022208  0.09914154  0.82512423  1
  Gd  Gd32  1  0.77805119  0.09321228  0.33067884  1
  Gd  Gd33  1  0.11616321  0.42370285  0.31869454  1
  Gd  Gd34  1  0.22987277  0.87212309  0.14741204  1
  Gd  Gd35  1  0.76248533  0.75716459  0.31472172  1
  N  N36  1  0.23584221  0.18500016  0.40112467  1
  N  N37  1  0.09952856  0.11579485  0.06319673  1
  N  N38  1  0.90202862  0.22196422  0.81687694  1
  N  N39  1  0.77160551  0.09852702  0.60405031  1
  N  N40  1  0.52048379  0.22472404  0.38504025  1
  N  N41  1  0.44492523  0.08923152  0.13547569  1
  N  N42  1  0.22448904  0.20515366  0.87187392  1
  N  N43  1  0.10729428  0.09125703  0.58874131  1
  N  N44  1  0.91319828  0.22418184  0.31795419  1
  N  N45  1  0.78205033  0.09340697  0.10422685  1
  N  N46  1  0.51382368  0.22507158  0.89800826  1
  N  N47  1  0.44541089  0.09714628  0.63937667  1
  N  N48  1  0.24406479  0.54679142  0.38868634  1
  N  N49  1  0.11665522  0.42775774  0.09946681  1
  N  N50  1  0.88882164  0.53902253  0.86802520  1
  N  N51  1  0.76636449  0.42339402  0.58132173  1
  N  N52  1  0.56381576  0.54690246  0.32488023  1
  N  N53  1  0.44582991  0.42812239  0.13191439  1
  N  N54  1  0.22298306  0.53452771  0.85942714  1
  N  N55  1  0.10698954  0.42446257  0.63643309  1
  N  N56  1  0.88380923  0.53208072  0.40634138  1
  N  N57  1  0.78018332  0.42871112  0.07012218  1
  N  N58  1  0.55983528  0.53702138  0.82908399  1
  N  N59  1  0.44509677  0.41830956  0.64178628  1
  N  N60  1  0.21934241  0.87253116  0.36117307  1
  N  N61  1  0.11187641  0.74908253  0.06274080  1
  N  N62  1  0.89607464  0.84820369  0.87121243  1
  N  N63  1  0.77214252  0.76159146  0.63463113  1
  N  N64  1  0.52800529  0.88925657  0.40165281  1
  N  N65  1  0.47374883  0.74364020  0.06593757  1
  N  N66  1  0.22530802  0.87267230  0.83251030  1
  N  N67  1  0.11277742  0.76092279  0.60577007  1
  N  N68  1  0.90891968  0.85020757  0.40078782  1
  N  N69  1  0.78323235  0.75983282  0.10101282  1
  N  N70  1  0.55641744  0.87946705  0.87154847  1
  N  N71  1  0.44197092  0.75353752  0.59296495  1
