# generated using pymatgen
data_Gd5Al31N36
_symmetry_space_group_name_H-M   'P 1'
_cell_length_a   9.73570796
_cell_length_b   9.70546187
_cell_length_c   10.34990848
_cell_angle_alpha   90.49959792
_cell_angle_beta   90.24600893
_cell_angle_gamma   59.86894935
_symmetry_Int_Tables_number   1
_chemical_formula_structural   Gd5Al31N36
_chemical_formula_sum   'Gd5 Al31 N36'
_cell_volume   845.78377437
_cell_formula_units_Z   1
loop_
 _symmetry_equiv_pos_site_id
 _symmetry_equiv_pos_as_xyz
  1  'x, y, z'
loop_
 _atom_site_type_symbol
 _atom_site_label
 _atom_site_symmetry_multiplicity
 _atom_site_fract_x
 _atom_site_fract_y
 _atom_site_fract_z
 _atom_site_occupancy
  Al  Al0  1  0.11271124  0.09475825  0.40920261  1
  Al  Al1  1  0.21868939  0.20822212  0.14325249  1
  Al  Al2  1  0.88820164  0.20679043  0.65649024  1
  Al  Al3  1  0.43229918  0.08620416  0.39157240  1
  Al  Al4  1  0.53829704  0.21451033  0.15033111  1
  Al  Al5  1  0.11088796  0.10111906  0.89493093  1
  Al  Al6  1  0.22540932  0.19463184  0.65302105  1
  Al  Al7  1  0.88998219  0.22057625  0.15167452  1
  Al  Al8  1  0.43534313  0.09756582  0.89725849  1
  Al  Al9  1  0.54332388  0.20838074  0.64886445  1
  Al  Al10  1  0.22495256  0.54529664  0.14381817  1
  Al  Al11  1  0.77574509  0.42943222  0.89892407  1
  Al  Al12  1  0.88752550  0.52927168  0.59525926  1
  Al  Al13  1  0.44555366  0.43978669  0.39405742  1
  Al  Al14  1  0.56532475  0.53613273  0.14483842  1
  Al  Al15  1  0.11058302  0.42851182  0.83324695  1
  Al  Al16  1  0.22847830  0.54178872  0.65358894  1
  Al  Al17  1  0.77596948  0.42064133  0.40703226  1
  Al  Al18  1  0.89865605  0.54378486  0.07705653  1
  Al  Al19  1  0.43808004  0.43212850  0.89869114  1
  Al  Al20  1  0.55424122  0.53413479  0.65242091  1
  Al  Al21  1  0.12591935  0.76216558  0.40900436  1
  Al  Al22  1  0.77954503  0.75096123  0.83165364  1
  Al  Al23  1  0.89538077  0.86597709  0.65266467  1
  Al  Al24  1  0.44322706  0.75871270  0.40844402  1
  Al  Al25  1  0.55495656  0.87220906  0.13819106  1
  Al  Al26  1  0.11467486  0.75436182  0.89423427  1
  Al  Al27  1  0.22192629  0.87202144  0.64695754  1
  Al  Al28  1  0.89698864  0.86665910  0.14868296  1
  Al  Al29  1  0.44778976  0.75777961  0.89308817  1
  Al  Al30  1  0.54686207  0.87399717  0.65005226  1
  Gd  Gd31  1  0.77208410  0.09557003  0.89918895  1
  Gd  Gd32  1  0.76949406  0.10410923  0.38959911  1
  Gd  Gd33  1  0.14391372  0.41639976  0.38009096  1
  Gd  Gd34  1  0.22531378  0.87565001  0.15865155  1
  Gd  Gd35  1  0.77629296  0.75728558  0.36460986  1
  N  N36  1  0.23003608  0.16848511  0.32573536  1
  N  N37  1  0.09559056  0.12241277  0.07614694  1
  N  N38  1  0.89990242  0.22063747  0.83541627  1
  N  N39  1  0.77431287  0.09161779  0.61865549  1
  N  N40  1  0.50350881  0.22845918  0.33357780  1
  N  N41  1  0.44179139  0.09493466  0.08230280  1
  N  N42  1  0.22408650  0.20027161  0.83703182  1
  N  N43  1  0.10654000  0.09752365  0.59571212  1
  N  N44  1  0.90602684  0.21791503  0.33558097  1
  N  N45  1  0.77136118  0.10143869  0.12520043  1
  N  N46  1  0.51896935  0.22225161  0.83074135  1
  N  N47  1  0.44052300  0.09042780  0.58252563  1
  N  N48  1  0.24801991  0.57062731  0.32465080  1
  N  N49  1  0.11338939  0.43249277  0.13443189  1
  N  N50  1  0.89341281  0.53854631  0.88477351  1
  N  N51  1  0.76789139  0.41840646  0.59623375  1
  N  N52  1  0.56579600  0.53657544  0.33823464  1
  N  N53  1  0.44732411  0.43013677  0.08454842  1
  N  N54  1  0.22715619  0.54021119  0.83715699  1
  N  N55  1  0.11253784  0.42560000  0.63466646  1
  N  N56  1  0.89458158  0.51472853  0.41429461  1
  N  N57  1  0.77779862  0.42958585  0.08611956  1
  N  N58  1  0.55592664  0.53474199  0.83753493  1
  N  N59  1  0.44177931  0.42814201  0.58378200  1
  N  N60  1  0.22539566  0.87592125  0.37894382  1
  N  N61  1  0.10079796  0.75284065  0.07390748  1
  N  N62  1  0.90597806  0.84422569  0.83313607  1
  N  N63  1  0.77511940  0.75534931  0.62901261  1
  N  N64  1  0.51995679  0.87939220  0.32563253  1
  N  N65  1  0.47149810  0.74568860  0.07475773  1
  N  N66  1  0.22173218  0.87304226  0.83949562  1
  N  N67  1  0.11229533  0.75684950  0.59413080  1
  N  N68  1  0.93076375  0.85951220  0.33036476  1
  N  N69  1  0.77890251  0.76183747  0.12757455  1
  N  N70  1  0.55028807  0.87619101  0.83642034  1
  N  N71  1  0.44793722  0.75496201  0.59606370  1
