# generated using pymatgen
data_Gd5Al31N36
_symmetry_space_group_name_H-M   'P 1'
_cell_length_a   9.67885550
_cell_length_b   9.64009587
_cell_length_c   10.66863625
_cell_angle_alpha   90.84124194
_cell_angle_beta   91.24519856
_cell_angle_gamma   60.22295343
_symmetry_Int_Tables_number   1
_chemical_formula_structural   Gd5Al31N36
_chemical_formula_sum   'Gd5 Al31 N36'
_cell_volume   863.79221540
_cell_formula_units_Z   1
loop_
 _symmetry_equiv_pos_site_id
 _symmetry_equiv_pos_as_xyz
  1  'x, y, z'
loop_
 _atom_site_type_symbol
 _atom_site_label
 _atom_site_symmetry_multiplicity
 _atom_site_fract_x
 _atom_site_fract_y
 _atom_site_fract_z
 _atom_site_occupancy
  Al  Al0  1  0.11165718  0.08950268  0.40683844  1
  Al  Al1  1  0.22991067  0.21001189  0.05357206  1
  Al  Al2  1  0.89217781  0.21112325  0.63786417  1
  Al  Al3  1  0.43318590  0.09316834  0.32846808  1
  Al  Al4  1  0.55015825  0.20928505  0.07276318  1
  Al  Al5  1  0.10782190  0.09659522  0.88331045  1
  Al  Al6  1  0.22729950  0.20406662  0.57948754  1
  Al  Al7  1  0.89739314  0.21899298  0.13192439  1
  Al  Al8  1  0.43439183  0.09833812  0.81888944  1
  Al  Al9  1  0.54290746  0.21356460  0.56500717  1
  Al  Al10  1  0.23333521  0.52861215  0.06116386  1
  Al  Al11  1  0.77588775  0.42633347  0.88573595  1
  Al  Al12  1  0.88524315  0.53981513  0.58097609  1
  Al  Al13  1  0.43999713  0.43597416  0.31739918  1
  Al  Al14  1  0.57256209  0.53883776  0.13744822  1
  Al  Al15  1  0.10603451  0.42204504  0.81855271  1
  Al  Al16  1  0.22124823  0.53741553  0.62384341  1
  Al  Al17  1  0.77314905  0.42456841  0.39843907  1
  Al  Al18  1  0.89796705  0.54354542  0.04748300  1
  Al  Al19  1  0.43946251  0.42489236  0.82334080  1
  Al  Al20  1  0.55769512  0.53686487  0.64735428  1
  Al  Al21  1  0.12709120  0.75587091  0.41926887  1
  Al  Al22  1  0.77601314  0.75488225  0.81538842  1
  Al  Al23  1  0.88470654  0.86982401  0.57754955  1
  Al  Al24  1  0.43637680  0.75557427  0.41064418  1
  Al  Al25  1  0.56577973  0.87585214  0.05364716  1
  Al  Al26  1  0.11685667  0.75712119  0.87843823  1
  Al  Al27  1  0.22280641  0.87279776  0.64957108  1
  Al  Al28  1  0.88954023  0.86790371  0.05206737  1
  Al  Al29  1  0.44844825  0.75422876  0.88621754  1
  Al  Al30  1  0.55093071  0.87883571  0.58091367  1
  Gd  Gd31  1  0.76024265  0.09900207  0.82481627  1
  Gd  Gd32  1  0.77812026  0.09331053  0.33083159  1
  Gd  Gd33  1  0.11564063  0.42323069  0.31883463  1
  Gd  Gd34  1  0.22996863  0.87204812  0.14789426  1
  Gd  Gd35  1  0.76263732  0.75728881  0.31475097  1
  N  N36  1  0.23621615  0.18451059  0.40144082  1
  N  N37  1  0.09968753  0.11562883  0.06323421  1
  N  N38  1  0.90202390  0.22190456  0.81693669  1
  N  N39  1  0.77160071  0.09856433  0.60407917  1
  N  N40  1  0.52051633  0.22483195  0.38506395  1
  N  N41  1  0.44501199  0.08928658  0.13542268  1
  N  N42  1  0.22455987  0.20495080  0.87202117  1
  N  N43  1  0.10724380  0.09124932  0.58887189  1
  N  N44  1  0.91334357  0.22426483  0.31795349  1
  N  N45  1  0.78233944  0.09317961  0.10425903  1
  N  N46  1  0.51374748  0.22510042  0.89796034  1
  N  N47  1  0.44542258  0.09721818  0.63945645  1
  N  N48  1  0.24241024  0.54863423  0.38024324  1
  N  N49  1  0.11678519  0.42765847  0.09911450  1
  N  N50  1  0.88858443  0.53909376  0.86819897  1
  N  N51  1  0.76628114  0.42336662  0.58138317  1
  N  N52  1  0.56409411  0.54684105  0.32474692  1
  N  N53  1  0.44728360  0.42748294  0.13114355  1
  N  N54  1  0.22193759  0.53557288  0.85332493  1
  N  N55  1  0.10627431  0.42400359  0.63662141  1
  N  N56  1  0.88321743  0.53253755  0.40657298  1
  N  N57  1  0.78042229  0.42865871  0.07011118  1
  N  N58  1  0.55987859  0.53707953  0.82913781  1
  N  N59  1  0.44507308  0.41852288  0.64155400  1
  N  N60  1  0.21928487  0.87272759  0.36145033  1
  N  N61  1  0.11234704  0.74871813  0.06198434  1
  N  N62  1  0.89609676  0.84821139  0.87134892  1
  N  N63  1  0.77227046  0.76164490  0.63478091  1
  N  N64  1  0.52822181  0.88915926  0.40168588  1
  N  N65  1  0.47364771  0.74376689  0.06597285  1
  N  N66  1  0.22524091  0.87252566  0.83237095  1
  N  N67  1  0.11315756  0.76050658  0.60503812  1
  N  N68  1  0.90881451  0.85049630  0.40085497  1
  N  N69  1  0.78335215  0.75980346  0.10095761  1
  N  N70  1  0.55642255  0.87948060  0.87162639  1
  N  N71  1  0.44207765  0.75357887  0.59297861  1
