# generated using pymatgen
data_Gd5Al31N36
_symmetry_space_group_name_H-M   'P 1'
_cell_length_a   9.66272613
_cell_length_b   9.65649564
_cell_length_c   10.59275672
_cell_angle_alpha   90.98305838
_cell_angle_beta   90.89310509
_cell_angle_gamma   60.48445043
_symmetry_Int_Tables_number   1
_chemical_formula_structural   Gd5Al31N36
_chemical_formula_sum   'Gd5 Al31 N36'
_cell_volume   859.96298819
_cell_formula_units_Z   1
loop_
 _symmetry_equiv_pos_site_id
 _symmetry_equiv_pos_as_xyz
  1  'x, y, z'
loop_
 _atom_site_type_symbol
 _atom_site_label
 _atom_site_symmetry_multiplicity
 _atom_site_fract_x
 _atom_site_fract_y
 _atom_site_fract_z
 _atom_site_occupancy
  Al  Al0  1  0.11896309  0.07885564  0.40456274  1
  Al  Al1  1  0.22435701  0.21637664  0.03608670  1
  Al  Al2  1  0.88883295  0.20640966  0.58836184  1
  Al  Al3  1  0.43429532  0.09124787  0.31431813  1
  Al  Al4  1  0.54227555  0.21424514  0.05634990  1
  Al  Al5  1  0.11279198  0.09733931  0.85749518  1
  Al  Al6  1  0.23076644  0.20573459  0.57094525  1
  Al  Al7  1  0.88085032  0.21231175  0.03711821  1
  Al  Al8  1  0.43613586  0.09970702  0.80407989  1
  Al  Al9  1  0.54650968  0.21136617  0.55175232  1
  Al  Al10  1  0.22228578  0.53956103  0.05236986  1
  Al  Al11  1  0.76846364  0.43623419  0.85931016  1
  Al  Al12  1  0.89079263  0.54185237  0.57367244  1
  Al  Al13  1  0.44076273  0.43330749  0.30919521  1
  Al  Al14  1  0.56966107  0.53804180  0.12587387  1
  Al  Al15  1  0.11293208  0.43024308  0.80378072  1
  Al  Al16  1  0.22793071  0.54182401  0.56264188  1
  Al  Al17  1  0.76842490  0.42921231  0.39905854  1
  Al  Al18  1  0.89378851  0.54089466  0.03316936  1
  Al  Al19  1  0.43259414  0.43006877  0.80879180  1
  Al  Al20  1  0.55401709  0.54124772  0.63516392  1
  Al  Al21  1  0.11790850  0.75120867  0.31828492  1
  Al  Al22  1  0.78094899  0.75499834  0.80503679  1
  Al  Al23  1  0.89768438  0.86535399  0.55842658  1
  Al  Al24  1  0.43575472  0.75586623  0.39441980  1
  Al  Al25  1  0.56515039  0.87698878  0.04108055  1
  Al  Al26  1  0.11574184  0.75076571  0.80774416  1
  Al  Al27  1  0.22919877  0.87037444  0.63722566  1
  Al  Al28  1  0.89723733  0.85849447  0.04691030  1
  Al  Al29  1  0.44923449  0.75521175  0.87397840  1
  Al  Al30  1  0.55532983  0.87831430  0.56669056  1
  Gd  Gd31  1  0.76199079  0.08731281  0.80740421  1
  Gd  Gd32  1  0.78144583  0.09567158  0.30759757  1
  Gd  Gd33  1  0.11654906  0.41631635  0.30707064  1
  Gd  Gd34  1  0.22902234  0.88432094  0.12291906  1
  Gd  Gd35  1  0.76663717  0.75426509  0.30180270  1
  N  N36  1  0.23707288  0.18069261  0.39018862  1
  N  N37  1  0.09719616  0.12151642  0.04255030  1
  N  N38  1  0.89241867  0.21735175  0.83211083  1
  N  N39  1  0.77303516  0.09366165  0.58957764  1
  N  N40  1  0.52271722  0.22257713  0.37109903  1
  N  N41  1  0.43932634  0.09194171  0.11977797  1
  N  N42  1  0.22417767  0.21126342  0.85235725  1
  N  N43  1  0.11673639  0.08763323  0.59095138  1
  N  N44  1  0.90457680  0.21457594  0.37851199  1
  N  N45  1  0.77732276  0.09348461  0.07903967  1
  N  N46  1  0.51409805  0.22826870  0.88019559  1
  N  N47  1  0.44972480  0.09571878  0.62481610  1
  N  N48  1  0.24213625  0.54956480  0.38441303  1
  N  N49  1  0.11015700  0.42910027  0.08802687  1
  N  N50  1  0.89140624  0.53853107  0.85008131  1
  N  N51  1  0.76729918  0.43205113  0.58515394  1
  N  N52  1  0.56498971  0.54340457  0.31642038  1
  N  N53  1  0.43989371  0.42955859  0.12363104  1
  N  N54  1  0.22350433  0.54219272  0.86906090  1
  N  N55  1  0.11536490  0.42961970  0.61973821  1
  N  N56  1  0.88484796  0.53096843  0.39597760  1
  N  N57  1  0.77180691  0.43232941  0.05048574  1
  N  N58  1  0.55218352  0.54333117  0.81470794  1
  N  N59  1  0.44224213  0.42171515  0.62475126  1
  N  N60  1  0.22304256  0.87167878  0.33842901  1
  N  N61  1  0.09805429  0.74417467  0.13089803  1
  N  N62  1  0.91156166  0.83743718  0.87022903  1
  N  N63  1  0.77678755  0.76577025  0.62206951  1
  N  N64  1  0.53073071  0.88773254  0.38615037  1
  N  N65  1  0.47566352  0.74230388  0.05384668  1
  N  N66  1  0.22948440  0.87181789  0.82350111  1
  N  N67  1  0.11164400  0.75718459  0.62665333  1
  N  N68  1  0.91569222  0.85038466  0.38342026  1
  N  N69  1  0.77931190  0.75790294  0.08718468  1
  N  N70  1  0.55856723  0.88177360  0.85812814  1
  N  N71  1  0.44308354  0.75473990  0.57724327  1
