# generated using pymatgen
data_Gd5Al31N36
_symmetry_space_group_name_H-M   'P 1'
_cell_length_a   9.65118852
_cell_length_b   9.65026507
_cell_length_c   10.67655451
_cell_angle_alpha   90.90874004
_cell_angle_beta   90.25451059
_cell_angle_gamma   60.08024433
_symmetry_Int_Tables_number   1
_chemical_formula_structural   Gd5Al31N36
_chemical_formula_sum   'Gd5 Al31 N36'
_cell_volume   861.73610583
_cell_formula_units_Z   1
loop_
 _symmetry_equiv_pos_site_id
 _symmetry_equiv_pos_as_xyz
  1  'x, y, z'
loop_
 _atom_site_type_symbol
 _atom_site_label
 _atom_site_symmetry_multiplicity
 _atom_site_fract_x
 _atom_site_fract_y
 _atom_site_fract_z
 _atom_site_occupancy
  Al  Al0  1  0.11439754  0.08411453  0.41069958  1
  Al  Al1  1  0.22681264  0.21342015  0.05727071  1
  Al  Al2  1  0.89301335  0.20916778  0.65017890  1
  Al  Al3  1  0.43258088  0.08498441  0.32266602  1
  Al  Al4  1  0.54942142  0.20913513  0.14563710  1
  Al  Al5  1  0.11152721  0.09807905  0.88629808  1
  Al  Al6  1  0.22908667  0.19707331  0.58183388  1
  Al  Al7  1  0.89367533  0.21756438  0.14222937  1
  Al  Al8  1  0.43527097  0.09113903  0.81657903  1
  Al  Al9  1  0.54486752  0.21334764  0.64841227  1
  Al  Al10  1  0.22841448  0.54251478  0.13662608  1
  Al  Al11  1  0.77495647  0.43294212  0.88728856  1
  Al  Al12  1  0.88712574  0.53790459  0.58509024  1
  Al  Al13  1  0.43399012  0.43881742  0.38813887  1
  Al  Al14  1  0.56609655  0.53328910  0.13739390  1
  Al  Al15  1  0.10917391  0.42227736  0.81880846  1
  Al  Al16  1  0.22819569  0.53533437  0.64673595  1
  Al  Al17  1  0.77246110  0.43134198  0.39960167  1
  Al  Al18  1  0.89849569  0.54063261  0.05360733  1
  Al  Al19  1  0.43259779  0.43465045  0.89345889  1
  Al  Al20  1  0.55476870  0.53182147  0.64444998  1
  Al  Al21  1  0.12606004  0.75626710  0.41189685  1
  Al  Al22  1  0.77744241  0.75867104  0.82032605  1
  Al  Al23  1  0.89090250  0.86770939  0.59122447  1
  Al  Al24  1  0.44128199  0.75386212  0.40905753  1
  Al  Al25  1  0.56316863  0.87181481  0.05534613  1
  Al  Al26  1  0.11888485  0.75083216  0.88658953  1
  Al  Al27  1  0.22516167  0.86737406  0.64961922  1
  Al  Al28  1  0.88917847  0.86383170  0.06119174  1
  Al  Al29  1  0.44746343  0.75242270  0.88586174  1
  Al  Al30  1  0.55635549  0.87243074  0.57967366  1
  Gd  Gd31  1  0.76792443  0.11434735  0.88036628  1
  Gd  Gd32  1  0.76525794  0.12476709  0.39618710  1
  Gd  Gd33  1  0.11169794  0.41036198  0.32713326  1
  Gd  Gd34  1  0.22627771  0.87642830  0.14828260  1
  Gd  Gd35  1  0.77418422  0.76755067  0.31675417  1
  N  N36  1  0.24192362  0.17520634  0.40599430  1
  N  N37  1  0.09555145  0.11809203  0.06529432  1
  N  N38  1  0.90802356  0.22819346  0.82174238  1
  N  N39  1  0.77292065  0.09741956  0.62144519  1
  N  N40  1  0.51421321  0.22848846  0.32237846  1
  N  N41  1  0.43794941  0.08238538  0.13216183  1
  N  N42  1  0.22764500  0.20836547  0.87760665  1
  N  N43  1  0.10618459  0.08575059  0.59164086  1
  N  N44  1  0.91744745  0.22601030  0.32271007  1
  N  N45  1  0.77882639  0.09291806  0.10919149  1
  N  N46  1  0.51727225  0.23097955  0.82484175  1
  N  N47  1  0.44200379  0.08551191  0.63825526  1
  N  N48  1  0.23073946  0.56415525  0.32041186  1
  N  N49  1  0.11366574  0.42872442  0.11224193  1
  N  N50  1  0.89103476  0.54205005  0.87338987  1
  N  N51  1  0.76958213  0.41778872  0.58290871  1
  N  N52  1  0.56008272  0.53633637  0.32930589  1
  N  N53  1  0.44832998  0.42491387  0.07702022  1
  N  N54  1  0.22439458  0.53992393  0.82670939  1
  N  N55  1  0.10977712  0.41911951  0.63443991  1
  N  N56  1  0.87640205  0.54372578  0.41039232  1
  N  N57  1  0.77833710  0.42596390  0.07305538  1
  N  N58  1  0.55612676  0.53224297  0.82726406  1
  N  N59  1  0.44227004  0.42410443  0.57419104  1
  N  N60  1  0.22565888  0.86977312  0.36145698  1
  N  N61  1  0.11252236  0.74418096  0.06717717  1
  N  N62  1  0.89542609  0.85321372  0.87678603  1
  N  N63  1  0.77612495  0.75931048  0.63975251  1
  N  N64  1  0.53568323  0.88397042  0.39908396  1
  N  N65  1  0.47163601  0.73868725  0.06623922  1
  N  N66  1  0.22392216  0.87191857  0.83397831  1
  N  N67  1  0.12298010  0.74955707  0.59574687  1
  N  N68  1  0.90580386  0.86956752  0.40997168  1
  N  N69  1  0.77952663  0.75825349  0.10400833  1
  N  N70  1  0.55604149  0.87721350  0.87480424  1
  N  N71  1  0.44648165  0.74949741  0.59187496  1
