# generated using pymatgen
data_Gd5Al31N36
_symmetry_space_group_name_H-M   'P 1'
_cell_length_a   9.71163153
_cell_length_b   9.71074147
_cell_length_c   10.54013184
_cell_angle_alpha   91.08070071
_cell_angle_beta   90.62155207
_cell_angle_gamma   59.94395696
_symmetry_Int_Tables_number   1
_chemical_formula_structural   Gd5Al31N36
_chemical_formula_sum   'Gd5 Al31 N36'
_cell_volume   860.19695374
_cell_formula_units_Z   1
loop_
 _symmetry_equiv_pos_site_id
 _symmetry_equiv_pos_as_xyz
  1  'x, y, z'
loop_
 _atom_site_type_symbol
 _atom_site_label
 _atom_site_symmetry_multiplicity
 _atom_site_fract_x
 _atom_site_fract_y
 _atom_site_fract_z
 _atom_site_occupancy
  Al  Al0  1  0.11536907  0.08533113  0.40693242  1
  Al  Al1  1  0.22545795  0.21645685  0.05117318  1
  Al  Al2  1  0.89112851  0.21080130  0.64152059  1
  Al  Al3  1  0.43205156  0.08694970  0.31708426  1
  Al  Al4  1  0.54455217  0.21279205  0.12789213  1
  Al  Al5  1  0.10998904  0.09946071  0.87946179  1
  Al  Al6  1  0.22848903  0.19918108  0.58029221  1
  Al  Al7  1  0.89608558  0.22300784  0.13431073  1
  Al  Al8  1  0.43658952  0.09241979  0.81708172  1
  Al  Al9  1  0.54789370  0.21092286  0.62871203  1
  Al  Al10  1  0.22760671  0.54597821  0.13580569  1
  Al  Al11  1  0.77422512  0.43184461  0.88263922  1
  Al  Al12  1  0.88530131  0.53869064  0.58202395  1
  Al  Al13  1  0.43847207  0.43626719  0.38232584  1
  Al  Al14  1  0.56599375  0.53713602  0.13602762  1
  Al  Al15  1  0.10927622  0.42292847  0.81443668  1
  Al  Al16  1  0.22743424  0.53692976  0.64242213  1
  Al  Al17  1  0.77176020  0.42722677  0.39776152  1
  Al  Al18  1  0.89877498  0.54257092  0.04886061  1
  Al  Al19  1  0.43397736  0.43394952  0.89450895  1
  Al  Al20  1  0.55348352  0.53301618  0.64208706  1
  Al  Al21  1  0.12747669  0.75411135  0.40725293  1
  Al  Al22  1  0.77709424  0.75633778  0.81539130  1
  Al  Al23  1  0.88935637  0.86746248  0.58184977  1
  Al  Al24  1  0.43854336  0.75572844  0.40641617  1
  Al  Al25  1  0.56324898  0.87301781  0.04981610  1
  Al  Al26  1  0.12039100  0.74758261  0.88292384  1
  Al  Al27  1  0.22329343  0.86867819  0.64675002  1
  Al  Al28  1  0.88996758  0.86354612  0.05734232  1
  Al  Al29  1  0.44735191  0.75158302  0.88157567  1
  Al  Al30  1  0.55362678  0.87516473  0.57837541  1
  Gd  Gd31  1  0.77479970  0.10392830  0.86330863  1
  Gd  Gd32  1  0.77705022  0.10495725  0.35368632  1
  Gd  Gd33  1  0.11291775  0.41251136  0.32669627  1
  Gd  Gd34  1  0.22653822  0.87953465  0.14152196  1
  Gd  Gd35  1  0.76843102  0.76028732  0.31399579  1
  N  N36  1  0.24239973  0.17538697  0.40172192  1
  N  N37  1  0.09616834  0.12193352  0.06052098  1
  N  N38  1  0.90593702  0.22863222  0.81671339  1
  N  N39  1  0.77279353  0.09730746  0.61143905  1
  N  N40  1  0.51485264  0.22784219  0.31579180  1
  N  N41  1  0.43690036  0.08424998  0.12455330  1
  N  N42  1  0.22516571  0.20802781  0.86888356  1
  N  N43  1  0.10708492  0.08763155  0.58969711  1
  N  N44  1  0.91889638  0.22592549  0.31844359  1
  N  N45  1  0.78123382  0.09378651  0.10722498  1
  N  N46  1  0.51984642  0.22267505  0.85076082  1
  N  N47  1  0.44329769  0.09080145  0.63593378  1
  N  N48  1  0.23394542  0.56200525  0.31960875  1
  N  N49  1  0.11449966  0.43102422  0.10756841  1
  N  N50  1  0.89044540  0.54012103  0.86661133  1
  N  N51  1  0.76741592  0.42133987  0.58205172  1
  N  N52  1  0.55996136  0.53808759  0.32753119  1
  N  N53  1  0.44548164  0.43439284  0.07837581  1
  N  N54  1  0.22707054  0.53680109  0.82391474  1
  N  N55  1  0.10920272  0.42200881  0.62794829  1
  N  N56  1  0.87642156  0.53734698  0.40543411  1
  N  N57  1  0.77767546  0.43082402  0.07035118  1
  N  N58  1  0.55470855  0.53119973  0.82556604  1
  N  N59  1  0.44116842  0.42604759  0.57154348  1
  N  N60  1  0.22267037  0.87114248  0.35746957  1
  N  N61  1  0.11181748  0.74660980  0.06587492  1
  N  N62  1  0.89880409  0.84522329  0.87177362  1
  N  N63  1  0.77461173  0.76090385  0.63290869  1
  N  N64  1  0.53049884  0.88658913  0.39597747  1
  N  N65  1  0.47290661  0.74142136  0.06448857  1
  N  N66  1  0.22230290  0.87154832  0.83276733  1
  N  N67  1  0.12129486  0.75185460  0.59291273  1
  N  N68  1  0.90894091  0.85630657  0.40024902  1
  N  N69  1  0.77927935  0.76025538  0.09896009  1
  N  N70  1  0.55539305  0.87457509  0.86730491  1
  N  N71  1  0.44443318  0.75198360  0.59128874  1
