# generated using pymatgen
data_Gd5Al31N36
_symmetry_space_group_name_H-M   'P 1'
_cell_length_a   9.71212943
_cell_length_b   9.71132995
_cell_length_c   10.53880524
_cell_angle_alpha   91.08385357
_cell_angle_beta   90.63415835
_cell_angle_gamma   59.94295857
_symmetry_Int_Tables_number   1
_chemical_formula_structural   Gd5Al31N36
_chemical_formula_sum   'Gd5 Al31 N36'
_cell_volume   860.17500989
_cell_formula_units_Z   1
loop_
 _symmetry_equiv_pos_site_id
 _symmetry_equiv_pos_as_xyz
  1  'x, y, z'
loop_
 _atom_site_type_symbol
 _atom_site_label
 _atom_site_symmetry_multiplicity
 _atom_site_fract_x
 _atom_site_fract_y
 _atom_site_fract_z
 _atom_site_occupancy
  Al  Al0  1  0.11533923  0.08535898  0.40696030  1
  Al  Al1  1  0.22553153  0.21645996  0.05104656  1
  Al  Al2  1  0.89118180  0.21098265  0.64150642  1
  Al  Al3  1  0.43205706  0.08701575  0.31702574  1
  Al  Al4  1  0.54453150  0.21258678  0.12546309  1
  Al  Al5  1  0.10989335  0.09942539  0.87943512  1
  Al  Al6  1  0.22834031  0.19930052  0.58045735  1
  Al  Al7  1  0.89620577  0.22307509  0.13408675  1
  Al  Al8  1  0.43683406  0.09273792  0.81764912  1
  Al  Al9  1  0.54822113  0.21032745  0.62423877  1
  Al  Al10  1  0.22753346  0.54615048  0.13594952  1
  Al  Al11  1  0.77421613  0.43175635  0.88272487  1
  Al  Al12  1  0.88528493  0.53872955  0.58202141  1
  Al  Al13  1  0.43846572  0.43641914  0.38189031  1
  Al  Al14  1  0.56596904  0.53731255  0.13616959  1
  Al  Al15  1  0.10926269  0.42287670  0.81449431  1
  Al  Al16  1  0.22733920  0.53697331  0.64246339  1
  Al  Al17  1  0.77177262  0.42718944  0.39777711  1
  Al  Al18  1  0.89878890  0.54262807  0.04887133  1
  Al  Al19  1  0.43386295  0.43401961  0.89516032  1
  Al  Al20  1  0.55353134  0.53303554  0.64220287  1
  Al  Al21  1  0.12741085  0.75416727  0.40727402  1
  Al  Al22  1  0.77708670  0.75625783  0.81544806  1
  Al  Al23  1  0.88939381  0.86733199  0.58169886  1
  Al  Al24  1  0.43852250  0.75580456  0.40648091  1
  Al  Al25  1  0.56323442  0.87307251  0.04979404  1
  Al  Al26  1  0.12048415  0.74746255  0.88291434  1
  Al  Al27  1  0.22328180  0.86866386  0.64683064  1
  Al  Al28  1  0.88998872  0.86364387  0.05715256  1
  Al  Al29  1  0.44737681  0.75153748  0.88158703  1
  Al  Al30  1  0.55365988  0.87514700  0.57854866  1
  Gd  Gd31  1  0.77447900  0.10362850  0.86211629  1
  Gd  Gd32  1  0.77738792  0.10446399  0.35173661  1
  Gd  Gd33  1  0.11297039  0.41240614  0.32669437  1
  Gd  Gd34  1  0.22659025  0.87953409  0.14147390  1
  Gd  Gd35  1  0.76834943  0.76026604  0.31403602  1
  N  N36  1  0.24246889  0.17531574  0.40192047  1
  N  N37  1  0.09628077  0.12194524  0.06050324  1
  N  N38  1  0.90578993  0.22864196  0.81675531  1
  N  N39  1  0.77267025  0.09736575  0.61153291  1
  N  N40  1  0.51492558  0.22770165  0.31632486  1
  N  N41  1  0.43678540  0.08417714  0.12481080  1
  N  N42  1  0.22497312  0.20791307  0.86861367  1
  N  N43  1  0.10709095  0.08763254  0.58978058  1
  N  N44  1  0.91893637  0.22604549  0.31843823  1
  N  N45  1  0.78166696  0.09364865  0.10725024  1
  N  N46  1  0.51955696  0.22164179  0.85730442  1
  N  N47  1  0.44355440  0.09135496  0.63624248  1
  N  N48  1  0.23374371  0.56211001  0.31972285  1
  N  N49  1  0.11456754  0.43102469  0.10752896  1
  N  N50  1  0.89042555  0.54007597  0.86659837  1
  N  N51  1  0.76738149  0.42140376  0.58207874  1
  N  N52  1  0.55996406  0.53825483  0.32764923  1
  N  N53  1  0.44519904  0.43531960  0.07903939  1
  N  N54  1  0.22727525  0.53657727  0.82385929  1
  N  N55  1  0.10916180  0.42207293  0.62794617  1
  N  N56  1  0.87645638  0.53731296  0.40543335  1
  N  N57  1  0.77766624  0.43094515  0.07040967  1
  N  N58  1  0.55467895  0.53100447  0.82561453  1
  N  N59  1  0.44102104  0.42632380  0.57143130  1
  N  N60  1  0.22262264  0.87117692  0.35750504  1
  N  N61  1  0.11179043  0.74666539  0.06585844  1
  N  N62  1  0.89893631  0.84500901  0.87168617  1
  N  N63  1  0.77459945  0.76094092  0.63291566  1
  N  N64  1  0.53046491  0.88667792  0.39618685  1
  N  N65  1  0.47295496  0.74151443  0.06450551  1
  N  N66  1  0.22230452  0.87146961  0.83279251  1
  N  N67  1  0.12127712  0.75188721  0.59295796  1
  N  N68  1  0.90887414  0.85631262  0.40030641  1
  N  N69  1  0.77930547  0.76035732  0.09895316  1
  N  N70  1  0.55536775  0.87447726  0.86718027  1
  N  N71  1  0.44440774  0.75205873  0.59141020  1
