# generated using pymatgen
data_Gd5Al31N36
_symmetry_space_group_name_H-M   'P 1'
_cell_length_a   9.67303314
_cell_length_b   9.64797007
_cell_length_c   10.60619220
_cell_angle_alpha   90.91685051
_cell_angle_beta   90.98407532
_cell_angle_gamma   60.30103268
_symmetry_Int_Tables_number   1
_chemical_formula_structural   Gd5Al31N36
_chemical_formula_sum   'Gd5 Al31 N36'
_cell_volume   859.64262579
_cell_formula_units_Z   1
loop_
 _symmetry_equiv_pos_site_id
 _symmetry_equiv_pos_as_xyz
  1  'x, y, z'
loop_
 _atom_site_type_symbol
 _atom_site_label
 _atom_site_symmetry_multiplicity
 _atom_site_fract_x
 _atom_site_fract_y
 _atom_site_fract_z
 _atom_site_occupancy
  Al  Al0  1  0.12097627  0.07833351  0.40328698  1
  Al  Al1  1  0.22787667  0.21503426  0.03745841  1
  Al  Al2  1  0.88768447  0.20492990  0.56957787  1
  Al  Al3  1  0.43301528  0.09244610  0.31300445  1
  Al  Al4  1  0.54487099  0.21387584  0.05488735  1
  Al  Al5  1  0.11535520  0.09564159  0.86457023  1
  Al  Al6  1  0.22911937  0.20709468  0.57070936  1
  Al  Al7  1  0.88056363  0.22354551  0.03805927  1
  Al  Al8  1  0.43752750  0.09846366  0.80334250  1
  Al  Al9  1  0.54664571  0.21002159  0.55147546  1
  Al  Al10  1  0.22258792  0.53909601  0.05171536  1
  Al  Al11  1  0.78276955  0.42981666  0.79963946  1
  Al  Al12  1  0.89075518  0.54206252  0.57460324  1
  Al  Al13  1  0.43589326  0.43267292  0.30974434  1
  Al  Al14  1  0.57092697  0.53717711  0.13072663  1
  Al  Al15  1  0.11485877  0.42960353  0.80663118  1
  Al  Al16  1  0.22507843  0.54184933  0.56174143  1
  Al  Al17  1  0.76934169  0.43058867  0.37141689  1
  Al  Al18  1  0.88893191  0.53588650  0.03475562  1
  Al  Al19  1  0.43464758  0.42941069  0.80805060  1
  Al  Al20  1  0.54789394  0.54349172  0.63154488  1
  Al  Al21  1  0.11391115  0.75173975  0.31664430  1
  Al  Al22  1  0.78103412  0.75620844  0.80630849  1
  Al  Al23  1  0.89543833  0.86669494  0.55813995  1
  Al  Al24  1  0.43121834  0.75858040  0.39596787  1
  Al  Al25  1  0.56634803  0.87627109  0.03986932  1
  Al  Al26  1  0.11598198  0.75040347  0.80703105  1
  Al  Al27  1  0.22742559  0.87241187  0.63889511  1
  Al  Al28  1  0.89689525  0.85917807  0.04582548  1
  Al  Al29  1  0.45375082  0.75011264  0.87450827  1
  Al  Al30  1  0.55485027  0.87863735  0.56637132  1
  Gd  Gd31  1  0.76647777  0.09117484  0.81007199  1
  Gd  Gd32  1  0.78003104  0.09745927  0.30213594  1
  Gd  Gd33  1  0.10853204  0.41871075  0.30239517  1
  Gd  Gd34  1  0.23128793  0.87986071  0.12152412  1
  Gd  Gd35  1  0.76267410  0.75558332  0.29922884  1
  N  N36  1  0.23454426  0.18408450  0.38830785  1
  N  N37  1  0.10202102  0.11993236  0.04880800  1
  N  N38  1  0.89345478  0.22123097  0.85213284  1
  N  N39  1  0.77254528  0.09483130  0.59145314  1
  N  N40  1  0.52432190  0.22023458  0.37066290  1
  N  N41  1  0.44290756  0.09118044  0.11980125  1
  N  N42  1  0.22592037  0.20930356  0.85333737  1
  N  N43  1  0.11591176  0.08798634  0.58889903  1
  N  N44  1  0.90031019  0.21612548  0.38810400  1
  N  N45  1  0.77911009  0.09502742  0.07755218  1
  N  N46  1  0.51594761  0.22656261  0.87848752  1
  N  N47  1  0.44836775  0.09613935  0.62376770  1
  N  N48  1  0.23568452  0.54824810  0.38284168  1
  N  N49  1  0.11176825  0.42897187  0.08480071  1
  N  N50  1  0.89100122  0.53733425  0.85130130  1
  N  N51  1  0.77580427  0.42859171  0.61201102  1
  N  N52  1  0.55460286  0.54612112  0.32355611  1
  N  N53  1  0.44086336  0.42922365  0.12426649  1
  N  N54  1  0.22559880  0.54181237  0.86851671  1
  N  N55  1  0.11474053  0.43018669  0.62146342  1
  N  N56  1  0.87886152  0.53318173  0.39994073  1
  N  N57  1  0.78734325  0.42868595  0.10306593  1
  N  N58  1  0.55597800  0.53960949  0.81303573  1
  N  N59  1  0.44086443  0.42196964  0.62230828  1
  N  N60  1  0.21932093  0.87227692  0.33742822  1
  N  N61  1  0.09707839  0.74354426  0.13069450  1
  N  N62  1  0.91180450  0.83829807  0.86907242  1
  N  N63  1  0.77613899  0.76617365  0.62253028  1
  N  N64  1  0.52789871  0.88836128  0.38547463  1
  N  N65  1  0.47981065  0.73884762  0.05397985  1
  N  N66  1  0.23042997  0.87048461  0.82492391  1
  N  N67  1  0.11082655  0.75813506  0.62570471  1
  N  N68  1  0.91047400  0.85321888  0.38183072  1
  N  N69  1  0.78022197  0.75812690  0.08531733  1
  N  N70  1  0.55855311  0.88034082  0.85742382  1
  N  N71  1  0.44091574  0.75704580  0.57739056  1
