# generated using pymatgen
data_Gd5Al31N36
_symmetry_space_group_name_H-M   'P 1'
_cell_length_a   9.71243010
_cell_length_b   9.69073747
_cell_length_c   10.29522222
_cell_angle_alpha   89.99921414
_cell_angle_beta   90.30148181
_cell_angle_gamma   59.87634841
_symmetry_Int_Tables_number   1
_chemical_formula_structural   Gd5Al31N36
_chemical_formula_sum   'Gd5 Al31 N36'
_cell_volume   838.10909889
_cell_formula_units_Z   1
loop_
 _symmetry_equiv_pos_site_id
 _symmetry_equiv_pos_as_xyz
  1  'x, y, z'
loop_
 _atom_site_type_symbol
 _atom_site_label
 _atom_site_symmetry_multiplicity
 _atom_site_fract_x
 _atom_site_fract_y
 _atom_site_fract_z
 _atom_site_occupancy
  Al  Al0  1  0.11445226  0.09683629  0.31517288  1
  Al  Al1  1  0.22195729  0.20909584  0.05253836  1
  Al  Al2  1  0.89135815  0.21052314  0.55746995  1
  Al  Al3  1  0.43227824  0.09281551  0.31579374  1
  Al  Al4  1  0.54554995  0.21011265  0.05946340  1
  Al  Al5  1  0.11374643  0.10087210  0.80813541  1
  Al  Al6  1  0.22469509  0.20167568  0.56634215  1
  Al  Al7  1  0.89179281  0.21799449  0.05922836  1
  Al  Al8  1  0.43767314  0.09736600  0.81044471  1
  Al  Al9  1  0.54391497  0.21078365  0.55800317  1
  Al  Al10  1  0.22197556  0.53511207  0.05271222  1
  Al  Al11  1  0.77910645  0.43135339  0.80985684  1
  Al  Al12  1  0.88613200  0.53668008  0.57231462  1
  Al  Al13  1  0.44177137  0.43589964  0.31371570  1
  Al  Al14  1  0.56388575  0.53516363  0.06433401  1
  Al  Al15  1  0.11414455  0.42703448  0.81099495  1
  Al  Al16  1  0.22849889  0.54077178  0.56657542  1
  Al  Al17  1  0.77611301  0.42834171  0.31388992  1
  Al  Al18  1  0.89014030  0.53616518  0.04349265  1
  Al  Al19  1  0.44001220  0.43223632  0.81260756  1
  Al  Al20  1  0.55760725  0.53511180  0.56207160  1
  Al  Al21  1  0.11954885  0.75610001  0.31624162  1
  Al  Al22  1  0.77881539  0.75644046  0.81001249  1
  Al  Al23  1  0.89408011  0.86562883  0.56277090  1
  Al  Al24  1  0.44300813  0.75979934  0.31769897  1
  Al  Al25  1  0.55906592  0.87067676  0.05123253  1
  Al  Al26  1  0.11580262  0.75300917  0.80646843  1
  Al  Al27  1  0.22245006  0.87195437  0.59144693  1
  Al  Al28  1  0.89263569  0.85890755  0.04853267  1
  Al  Al29  1  0.44972413  0.75636495  0.80842563  1
  Al  Al30  1  0.54948786  0.87555204  0.56826004  1
  Gd  Gd31  1  0.77482142  0.10054217  0.81585358  1
  Gd  Gd32  1  0.77618645  0.09658166  0.31483957  1
  Gd  Gd33  1  0.11645355  0.42768499  0.31272143  1
  Gd  Gd34  1  0.22221487  0.87157572  0.07234811  1
  Gd  Gd35  1  0.76575967  0.75978528  0.30630998  1
  N  N36  1  0.23022792  0.18280716  0.38506173  1
  N  N37  1  0.09948761  0.12787073  0.12921403  1
  N  N38  1  0.90712681  0.22302319  0.87653307  1
  N  N39  1  0.77457686  0.09727780  0.58837953  1
  N  N40  1  0.51642291  0.22297093  0.37355881  1
  N  N41  1  0.44398908  0.09095358  0.12214580  1
  N  N42  1  0.22403486  0.20339541  0.86567073  1
  N  N43  1  0.10847799  0.09723450  0.62233671  1
  N  N44  1  0.90349346  0.21850679  0.37521690  1
  N  N45  1  0.78088168  0.09282506  0.08438153  1
  N  N46  1  0.52027902  0.22275017  0.87760543  1
  N  N47  1  0.44417162  0.09541173  0.62585334  1
  N  N48  1  0.24135993  0.55363759  0.38571581  1
  N  N49  1  0.11116759  0.42756756  0.08976553  1
  N  N50  1  0.88966985  0.53726512  0.85746667  1
  N  N51  1  0.77508248  0.42532277  0.62542305  1
  N  N52  1  0.55910850  0.53476740  0.37301001  1
  N  N53  1  0.44345978  0.43120854  0.12243244  1
  N  N54  1  0.22491850  0.54005906  0.86607419  1
  N  N55  1  0.11471413  0.42765616  0.61900650  1
  N  N56  1  0.87551435  0.52641946  0.39182966  1
  N  N57  1  0.77988482  0.43104446  0.12273016  1
  N  N58  1  0.55824332  0.53666332  0.87364115  1
  N  N59  1  0.44841663  0.42674902  0.62589438  1
  N  N60  1  0.22077437  0.87410132  0.34454993  1
  N  N61  1  0.09610766  0.73986823  0.12929698  1
  N  N62  1  0.90673361  0.84278668  0.86553055  1
  N  N63  1  0.77452768  0.76315171  0.62059502  1
  N  N64  1  0.52446915  0.88590042  0.38660803  1
  N  N65  1  0.47985723  0.74610129  0.13011371  1
  N  N66  1  0.22331003  0.87235363  0.84456477  1
  N  N67  1  0.11215443  0.75961853  0.62318691  1
  N  N68  1  0.91679479  0.84926067  0.38382076  1
  N  N69  1  0.77804121  0.75714113  0.08660682  1
  N  N70  1  0.55264149  0.87395861  0.86390567  1
  N  N71  1  0.44812289  0.75530725  0.62181529  1
