# generated using pymatgen
data_Gd5Al31N36
_symmetry_space_group_name_H-M   'P 1'
_cell_length_a   9.67579845
_cell_length_b   9.64593121
_cell_length_c   10.60107782
_cell_angle_alpha   90.87488948
_cell_angle_beta   90.88836153
_cell_angle_gamma   60.23810796
_symmetry_Int_Tables_number   1
_chemical_formula_structural   Gd5Al31N36
_chemical_formula_sum   'Gd5 Al31 N36'
_cell_volume   858.77604022
_cell_formula_units_Z   1
loop_
 _symmetry_equiv_pos_site_id
 _symmetry_equiv_pos_as_xyz
  1  'x, y, z'
loop_
 _atom_site_type_symbol
 _atom_site_label
 _atom_site_symmetry_multiplicity
 _atom_site_fract_x
 _atom_site_fract_y
 _atom_site_fract_z
 _atom_site_occupancy
  Al  Al0  1  0.12065212  0.07848710  0.40215147  1
  Al  Al1  1  0.22837869  0.21499283  0.03843956  1
  Al  Al2  1  0.88402256  0.21090210  0.56439842  1
  Al  Al3  1  0.43281394  0.09208835  0.31322608  1
  Al  Al4  1  0.54500581  0.21305660  0.05486858  1
  Al  Al5  1  0.11408713  0.09686954  0.86657492  1
  Al  Al6  1  0.22815309  0.20706209  0.57049824  1
  Al  Al7  1  0.88115657  0.22269041  0.04260497  1
  Al  Al8  1  0.43743748  0.09854833  0.80331991  1
  Al  Al9  1  0.54599580  0.21040005  0.55161334  1
  Al  Al10  1  0.22200826  0.53921531  0.05140818  1
  Al  Al11  1  0.78345844  0.42980471  0.80008680  1
  Al  Al12  1  0.88794175  0.53908834  0.57071768  1
  Al  Al13  1  0.43686428  0.43295451  0.31008917  1
  Al  Al14  1  0.56519035  0.53955282  0.13020138  1
  Al  Al15  1  0.11335991  0.43000592  0.80653496  1
  Al  Al16  1  0.22508461  0.54219789  0.56266827  1
  Al  Al17  1  0.77955662  0.42531567  0.32925401  1
  Al  Al18  1  0.88999766  0.53622534  0.03849587  1
  Al  Al19  1  0.43444858  0.42955424  0.80816173  1
  Al  Al20  1  0.55069708  0.54187606  0.63147351  1
  Al  Al21  1  0.11490145  0.75200808  0.31719761  1
  Al  Al22  1  0.78106255  0.75557597  0.80616365  1
  Al  Al23  1  0.89572307  0.86640993  0.55912819  1
  Al  Al24  1  0.43279680  0.75672588  0.39590877  1
  Al  Al25  1  0.56661554  0.87604866  0.03975245  1
  Al  Al26  1  0.11554335  0.75083960  0.80728073  1
  Al  Al27  1  0.22643863  0.87343809  0.63850255  1
  Al  Al28  1  0.89656276  0.85953964  0.04605030  1
  Al  Al29  1  0.45327017  0.75066764  0.87343413  1
  Al  Al30  1  0.55453685  0.87827845  0.56661715  1
  Gd  Gd31  1  0.76733418  0.09303878  0.80949186  1
  Gd  Gd32  1  0.77936961  0.09546519  0.30414083  1
  Gd  Gd33  1  0.11224424  0.41977090  0.30421191  1
  Gd  Gd34  1  0.23205856  0.87921288  0.12174787  1
  Gd  Gd35  1  0.76330256  0.75676970  0.30095270  1
  N  N36  1  0.23437968  0.18400566  0.38818603  1
  N  N37  1  0.10243228  0.12043539  0.05150822  1
  N  N38  1  0.89134196  0.22418086  0.85957105  1
  N  N39  1  0.77251336  0.09608645  0.59024037  1
  N  N40  1  0.52293345  0.22066222  0.37069060  1
  N  N41  1  0.44315002  0.09073521  0.11971448  1
  N  N42  1  0.22542147  0.20960275  0.85411529  1
  N  N43  1  0.11351871  0.08921986  0.58771631  1
  N  N44  1  0.89978065  0.21708696  0.38359892  1
  N  N45  1  0.77874287  0.09521463  0.07944774  1
  N  N46  1  0.51666802  0.22581797  0.87830079  1
  N  N47  1  0.44768962  0.09623639  0.62382570  1
  N  N48  1  0.23724433  0.54926473  0.38399367  1
  N  N49  1  0.11196987  0.42883947  0.08650768  1
  N  N50  1  0.88998136  0.53737909  0.85612343  1
  N  N51  1  0.77848324  0.42753086  0.61932957  1
  N  N52  1  0.55368317  0.54694428  0.31999890  1
  N  N53  1  0.44006391  0.42873892  0.12315083  1
  N  N54  1  0.22473207  0.54172865  0.86841515  1
  N  N55  1  0.11306200  0.43085716  0.62079157  1
  N  N56  1  0.87769680  0.52959620  0.39555630  1
  N  N57  1  0.79007725  0.42653232  0.12232166  1
  N  N58  1  0.55563659  0.53920727  0.81466557  1
  N  N59  1  0.44113631  0.42210826  0.62275649  1
  N  N60  1  0.22043480  0.87184187  0.33724182  1
  N  N61  1  0.09693363  0.74375843  0.13078665  1
  N  N62  1  0.91063669  0.83930934  0.86899009  1
  N  N63  1  0.77652200  0.76440865  0.62180018  1
  N  N64  1  0.52774087  0.88828203  0.38583473  1
  N  N65  1  0.48080725  0.73800813  0.05264001  1
  N  N66  1  0.22916212  0.87186975  0.82532678  1
  N  N67  1  0.11072699  0.75846825  0.62638222  1
  N  N68  1  0.91220224  0.85177048  0.38321396  1
  N  N69  1  0.77998683  0.75836050  0.08677508  1
  N  N70  1  0.55852358  0.88028529  0.85733228  1
  N  N71  1  0.44103711  0.75644674  0.57783369  1
