# generated using pymatgen
data_Gd5Al31N36
_symmetry_space_group_name_H-M   'P 1'
_cell_length_a   9.68118550
_cell_length_b   9.62969360
_cell_length_c   10.68452944
_cell_angle_alpha   91.06802248
_cell_angle_beta   91.38287083
_cell_angle_gamma   60.15471991
_symmetry_Int_Tables_number   1
_chemical_formula_structural   Gd5Al31N36
_chemical_formula_sum   'Gd5 Al31 N36'
_cell_volume   863.69981243
_cell_formula_units_Z   1
loop_
 _symmetry_equiv_pos_site_id
 _symmetry_equiv_pos_as_xyz
  1  'x, y, z'
loop_
 _atom_site_type_symbol
 _atom_site_label
 _atom_site_symmetry_multiplicity
 _atom_site_fract_x
 _atom_site_fract_y
 _atom_site_fract_z
 _atom_site_occupancy
  Al  Al0  1  0.11499734  0.08455319  0.41024730  1
  Al  Al1  1  0.22706688  0.21547520  0.05288212  1
  Al  Al2  1  0.89366570  0.21010987  0.63745440  1
  Al  Al3  1  0.43450506  0.09053857  0.32632978  1
  Al  Al4  1  0.55082978  0.20859055  0.07513372  1
  Al  Al5  1  0.10576267  0.09584173  0.88271439  1
  Al  Al6  1  0.22997739  0.20102450  0.58205131  1
  Al  Al7  1  0.89622606  0.22014158  0.13300525  1
  Al  Al8  1  0.43282290  0.09898070  0.81899043  1
  Al  Al9  1  0.54147221  0.21580389  0.56105079  1
  Al  Al10  1  0.22071680  0.54881562  0.13164233  1
  Al  Al11  1  0.77587882  0.42485028  0.88650883  1
  Al  Al12  1  0.88550902  0.53951634  0.58330605  1
  Al  Al13  1  0.44624714  0.43292896  0.31241370  1
  Al  Al14  1  0.57301524  0.54016888  0.13550622  1
  Al  Al15  1  0.10494936  0.42250716  0.81700972  1
  Al  Al16  1  0.22369231  0.53793678  0.64907121  1
  Al  Al17  1  0.77213924  0.42462508  0.40180027  1
  Al  Al18  1  0.89862046  0.54487636  0.04712812  1
  Al  Al19  1  0.43513722  0.43049067  0.84905228  1
  Al  Al20  1  0.55585144  0.53365939  0.64863443  1
  Al  Al21  1  0.13096404  0.74759634  0.40805608  1
  Al  Al22  1  0.77722975  0.75552290  0.81659743  1
  Al  Al23  1  0.89095004  0.86397705  0.57172448  1
  Al  Al24  1  0.43981265  0.75520989  0.41241737  1
  Al  Al25  1  0.56460638  0.87761787  0.05171361  1
  Al  Al26  1  0.11791924  0.75273092  0.88594416  1
  Al  Al27  1  0.22466659  0.86766596  0.64770659  1
  Al  Al28  1  0.88674160  0.87377244  0.05280301  1
  Al  Al29  1  0.44674930  0.75537498  0.88536028  1
  Al  Al30  1  0.55461714  0.87785723  0.58203292  1
  Gd  Gd31  1  0.75400141  0.09878671  0.81507934  1
  Gd  Gd32  1  0.78117394  0.09381076  0.33649288  1
  Gd  Gd33  1  0.10916598  0.41255993  0.32436346  1
  Gd  Gd34  1  0.23042557  0.87741772  0.14843100  1
  Gd  Gd35  1  0.76325725  0.75516506  0.31061855  1
  N  N36  1  0.24165014  0.17656372  0.40494939  1
  N  N37  1  0.09773328  0.11888994  0.06210537  1
  N  N38  1  0.89867532  0.21939124  0.81684466  1
  N  N39  1  0.77500579  0.09608130  0.59541975  1
  N  N40  1  0.51752128  0.22685345  0.38066410  1
  N  N41  1  0.44240657  0.09010253  0.13520127  1
  N  N42  1  0.22218785  0.20632310  0.87132714  1
  N  N43  1  0.10930983  0.08819604  0.59110884  1
  N  N44  1  0.91810089  0.22470783  0.31972468  1
  N  N45  1  0.78115863  0.09537641  0.11016821  1
  N  N46  1  0.51363669  0.22208436  0.90101601  1
  N  N47  1  0.44889866  0.09714194  0.64012648  1
  N  N48  1  0.22948874  0.56270470  0.31432736  1
  N  N49  1  0.11302981  0.43036230  0.10615658  1
  N  N50  1  0.88849321  0.53831255  0.86762417  1
  N  N51  1  0.76685302  0.42313906  0.58424643  1
  N  N52  1  0.56473100  0.54562834  0.32601258  1
  N  N53  1  0.45270284  0.42816835  0.12404343  1
  N  N54  1  0.21648834  0.54154970  0.83047959  1
  N  N55  1  0.10737120  0.42167459  0.63344313  1
  N  N56  1  0.87854915  0.53540890  0.40945338  1
  N  N57  1  0.78110564  0.43002910  0.07053928  1
  N  N58  1  0.55776744  0.53542947  0.83218053  1
  N  N59  1  0.44437206  0.42138031  0.62865299  1
  N  N60  1  0.22339053  0.86952909  0.36214131  1
  N  N61  1  0.11100313  0.75190562  0.06450346  1
  N  N62  1  0.89550526  0.85169707  0.87268556  1
  N  N63  1  0.77601285  0.76202583  0.63597110  1
  N  N64  1  0.53245461  0.88766603  0.40219467  1
  N  N65  1  0.47294837  0.74581052  0.06543076  1
  N  N66  1  0.22343940  0.87017958  0.83172793  1
  N  N67  1  0.12185984  0.75024548  0.59136818  1
  N  N68  1  0.91130486  0.84605112  0.39524316  1
  N  N69  1  0.78190281  0.76263940  0.09751302  1
  N  N70  1  0.55534517  0.87946991  0.86996211  1
  N  N71  1  0.44576423  0.75286967  0.59473521  1
