# generated using pymatgen
data_Gd5Al31N36
_symmetry_space_group_name_H-M   'P 1'
_cell_length_a   9.67369996
_cell_length_b   9.65265111
_cell_length_c   10.59631851
_cell_angle_alpha   90.91453932
_cell_angle_beta   91.00447030
_cell_angle_gamma   60.34856564
_symmetry_Int_Tables_number   1
_chemical_formula_structural   Gd5Al31N36
_chemical_formula_sum   'Gd5 Al31 N36'
_cell_volume   859.72103440
_cell_formula_units_Z   1
loop_
 _symmetry_equiv_pos_site_id
 _symmetry_equiv_pos_as_xyz
  1  'x, y, z'
loop_
 _atom_site_type_symbol
 _atom_site_label
 _atom_site_symmetry_multiplicity
 _atom_site_fract_x
 _atom_site_fract_y
 _atom_site_fract_z
 _atom_site_occupancy
  Al  Al0  1  0.12070384  0.07873799  0.40383243  1
  Al  Al1  1  0.22682994  0.21532748  0.03717207  1
  Al  Al2  1  0.89011251  0.20139660  0.57297731  1
  Al  Al3  1  0.43336851  0.09252403  0.31293892  1
  Al  Al4  1  0.54455483  0.21425356  0.05531449  1
  Al  Al5  1  0.11601162  0.09499223  0.86245916  1
  Al  Al6  1  0.22999620  0.20670927  0.57081969  1
  Al  Al7  1  0.88003384  0.22199140  0.03456755  1
  Al  Al8  1  0.43740192  0.09858294  0.80359123  1
  Al  Al9  1  0.54679617  0.20999123  0.55127738  1
  Al  Al10  1  0.22252540  0.53900748  0.05222951  1
  Al  Al11  1  0.78083031  0.43056651  0.80471346  1
  Al  Al12  1  0.89265133  0.54379829  0.57627811  1
  Al  Al13  1  0.43680681  0.43300394  0.30980786  1
  Al  Al14  1  0.57251321  0.53659908  0.13019859  1
  Al  Al15  1  0.11579800  0.42930246  0.80611454  1
  Al  Al16  1  0.22572604  0.54178778  0.56153891  1
  Al  Al17  1  0.76516720  0.43297676  0.39512311  1
  Al  Al18  1  0.88884953  0.53633461  0.03255113  1
  Al  Al19  1  0.43443104  0.42924857  0.80847137  1
  Al  Al20  1  0.54632152  0.54448537  0.63234090  1
  Al  Al21  1  0.11407861  0.75174484  0.31670065  1
  Al  Al22  1  0.78093542  0.75660736  0.80620137  1
  Al  Al23  1  0.89569450  0.86655586  0.55748819  1
  Al  Al24  1  0.43164812  0.75843488  0.39532634  1
  Al  Al25  1  0.56597125  0.87659288  0.04036835  1
  Al  Al26  1  0.11612094  0.75022675  0.80719587  1
  Al  Al27  1  0.22821867  0.87153968  0.63878133  1
  Al  Al28  1  0.89686324  0.85892992  0.04619798  1
  Al  Al29  1  0.45332718  0.75071453  0.87522321  1
  Al  Al30  1  0.55491988  0.87884288  0.56620332  1
  Gd  Gd31  1  0.76529810  0.08944033  0.80943066  1
  Gd  Gd32  1  0.78075603  0.09904203  0.30261567  1
  Gd  Gd33  1  0.10810325  0.41856532  0.30318221  1
  Gd  Gd34  1  0.23016022  0.88088228  0.12146159  1
  Gd  Gd35  1  0.76301655  0.75442892  0.29930785  1
  N  N36  1  0.23508774  0.18370434  0.38855358  1
  N  N37  1  0.10082316  0.12009833  0.04669388  1
  N  N38  1  0.89454237  0.21833021  0.84609336  1
  N  N39  1  0.77252953  0.09391842  0.59129879  1
  N  N40  1  0.52465689  0.22047661  0.37058349  1
  N  N41  1  0.44217545  0.09162894  0.11976668  1
  N  N42  1  0.22593249  0.20945460  0.85291184  1
  N  N43  1  0.11753680  0.08719725  0.59010936  1
  N  N44  1  0.90065682  0.21675349  0.39040303  1
  N  N45  1  0.77907242  0.09460428  0.07707353  1
  N  N46  1  0.51553659  0.22692419  0.87882294  1
  N  N47  1  0.44896751  0.09600399  0.62393368  1
  N  N48  1  0.23639190  0.54833678  0.38278708  1
  N  N49  1  0.11090991  0.42912763  0.08482149  1
  N  N50  1  0.89188288  0.53745110  0.84823720  1
  N  N51  1  0.77292239  0.42978689  0.60565653  1
  N  N52  1  0.55797666  0.54463212  0.32456901  1
  N  N53  1  0.44081059  0.42960802  0.12460038  1
  N  N54  1  0.22564615  0.54178280  0.86872295  1
  N  N55  1  0.11602333  0.42967907  0.62136540  1
  N  N56  1  0.87975487  0.53359954  0.40133892  1
  N  N57  1  0.78260592  0.43015568  0.08636750  1
  N  N58  1  0.55529667  0.54044831  0.81281111  1
  N  N59  1  0.44104082  0.42171994  0.62266176  1
  N  N60  1  0.21930636  0.87262391  0.33767434  1
  N  N61  1  0.09719489  0.74338428  0.13070241  1
  N  N62  1  0.91225247  0.83769200  0.86935057  1
  N  N63  1  0.77601942  0.76713680  0.62271061  1
  N  N64  1  0.52823451  0.88842801  0.38536293  1
  N  N65  1  0.47840415  0.74023749  0.05484907  1
  N  N66  1  0.23102821  0.86975095  0.82473100  1
  N  N67  1  0.11097970  0.75788239  0.62559656  1
  N  N68  1  0.91042945  0.85359835  0.38120665  1
  N  N69  1  0.78014831  0.75767107  0.08493600  1
  N  N70  1  0.55862972  0.88051313  0.85756851  1
  N  N71  1  0.44117541  0.75699164  0.57717707  1
