# generated using pymatgen
data_Gd5Al31N36
_symmetry_space_group_name_H-M   'P 1'
_cell_length_a   9.67318003
_cell_length_b   9.62514779
_cell_length_c   10.72813161
_cell_angle_alpha   91.04634931
_cell_angle_beta   91.33871483
_cell_angle_gamma   60.18085551
_symmetry_Int_Tables_number   1
_chemical_formula_structural   Gd5Al31N36
_chemical_formula_sum   'Gd5 Al31 N36'
_cell_volume   866.34064660
_cell_formula_units_Z   1
loop_
 _symmetry_equiv_pos_site_id
 _symmetry_equiv_pos_as_xyz
  1  'x, y, z'
loop_
 _atom_site_type_symbol
 _atom_site_label
 _atom_site_symmetry_multiplicity
 _atom_site_fract_x
 _atom_site_fract_y
 _atom_site_fract_z
 _atom_site_occupancy
  Al  Al0  1  0.11203051  0.08542179  0.40941857  1
  Al  Al1  1  0.22914220  0.21448400  0.05312088  1
  Al  Al2  1  0.89253863  0.21009256  0.63872871  1
  Al  Al3  1  0.43359858  0.09329742  0.32873983  1
  Al  Al4  1  0.54980880  0.21153130  0.07064929  1
  Al  Al5  1  0.10829695  0.09542585  0.88306494  1
  Al  Al6  1  0.22817443  0.20086098  0.58104554  1
  Al  Al7  1  0.89733560  0.21932159  0.13111439  1
  Al  Al8  1  0.43453187  0.09863408  0.81908027  1
  Al  Al9  1  0.54273128  0.21410127  0.56632592  1
  Al  Al10  1  0.22435866  0.54556775  0.13254898  1
  Al  Al11  1  0.77587209  0.42603640  0.88636956  1
  Al  Al12  1  0.88448486  0.53951239  0.58221460  1
  Al  Al13  1  0.44509886  0.43387913  0.31513127  1
  Al  Al14  1  0.57354254  0.53863303  0.13702369  1
  Al  Al15  1  0.10531137  0.42188175  0.81717550  1
  Al  Al16  1  0.21696944  0.54081979  0.64725136  1
  Al  Al17  1  0.77127917  0.42490168  0.40111555  1
  Al  Al18  1  0.89970713  0.54388472  0.04747230  1
  Al  Al19  1  0.43801101  0.42606219  0.82432915  1
  Al  Al20  1  0.55748461  0.53643907  0.64751420  1
  Al  Al21  1  0.12749563  0.75090451  0.40778680  1
  Al  Al22  1  0.77784269  0.75465684  0.81633075  1
  Al  Al23  1  0.88768849  0.86763025  0.57274634  1
  Al  Al24  1  0.43791854  0.75745470  0.41159990  1
  Al  Al25  1  0.56610265  0.87672157  0.05273649  1
  Al  Al26  1  0.12148656  0.74862833  0.88638499  1
  Al  Al27  1  0.22344270  0.86829828  0.64771028  1
  Al  Al28  1  0.88998832  0.86908384  0.05272951  1
  Al  Al29  1  0.44807957  0.75412551  0.88608924  1
  Al  Al30  1  0.55317969  0.87853512  0.58167932  1
  Gd  Gd31  1  0.76161022  0.09625827  0.82319158  1
  Gd  Gd32  1  0.77506483  0.09658578  0.32962342  1
  Gd  Gd33  1  0.10789174  0.41293582  0.32288327  1
  Gd  Gd34  1  0.23140483  0.87611627  0.14837260  1
  Gd  Gd35  1  0.76258332  0.75653188  0.31199524  1
  N  N36  1  0.23903203  0.17773165  0.40440429  1
  N  N37  1  0.09978083  0.11751474  0.06211548  1
  N  N38  1  0.90192763  0.22114210  0.81703096  1
  N  N39  1  0.77318483  0.09647991  0.60327867  1
  N  N40  1  0.51547025  0.23003961  0.38781375  1
  N  N41  1  0.44497668  0.09067844  0.13557406  1
  N  N42  1  0.22426187  0.20592942  0.87241372  1
  N  N43  1  0.10742146  0.08815762  0.58984882  1
  N  N44  1  0.91493073  0.22469969  0.31839654  1
  N  N45  1  0.78272334  0.09389340  0.10477483  1
  N  N46  1  0.51436676  0.22560356  0.89675490  1
  N  N47  1  0.44615935  0.09683673  0.64054710  1
  N  N48  1  0.22746151  0.56373626  0.31669720  1
  N  N49  1  0.11468824  0.42914756  0.10604645  1
  N  N50  1  0.88931340  0.53836558  0.86882945  1
  N  N51  1  0.76653002  0.42221602  0.58243497  1
  N  N52  1  0.56342425  0.54794433  0.32750527  1
  N  N53  1  0.45625739  0.42349384  0.13255556  1
  N  N54  1  0.21645313  0.54058692  0.82710651  1
  N  N55  1  0.10526100  0.42106096  0.63305769  1
  N  N56  1  0.87810753  0.53582144  0.40906297  1
  N  N57  1  0.78117370  0.42941791  0.07022597  1
  N  N58  1  0.55980944  0.53678002  0.82891618  1
  N  N59  1  0.44427276  0.42015674  0.63808908  1
  N  N60  1  0.22179151  0.87081735  0.36098104  1
  N  N61  1  0.11472245  0.74799814  0.06443699  1
  N  N62  1  0.89888135  0.84671425  0.87400485  1
  N  N63  1  0.77478899  0.76174200  0.63592311  1
  N  N64  1  0.53121636  0.88969716  0.40257716  1
  N  N65  1  0.47421851  0.74415176  0.06565310  1
  N  N66  1  0.22430856  0.86953022  0.83140162  1
  N  N67  1  0.11966404  0.75197005  0.59007787  1
  N  N68  1  0.90696065  0.85267625  0.39646720  1
  N  N69  1  0.78336075  0.76089158  0.09989315  1
  N  N70  1  0.55669794  0.87952162  0.87166705  1
  N  N71  1  0.44384633  0.75368535  0.59273998  1
