# generated using pymatgen
data_Gd5Al31N36
_symmetry_space_group_name_H-M   'P 1'
_cell_length_a   9.68248865
_cell_length_b   9.63632725
_cell_length_c   10.69909287
_cell_angle_alpha   90.90035968
_cell_angle_beta   91.28359400
_cell_angle_gamma   60.18218945
_symmetry_Int_Tables_number   1
_chemical_formula_structural   Gd5Al31N36
_chemical_formula_sum   'Gd5 Al31 N36'
_cell_volume   865.87554162
_cell_formula_units_Z   1
loop_
 _symmetry_equiv_pos_site_id
 _symmetry_equiv_pos_as_xyz
  1  'x, y, z'
loop_
 _atom_site_type_symbol
 _atom_site_label
 _atom_site_symmetry_multiplicity
 _atom_site_fract_x
 _atom_site_fract_y
 _atom_site_fract_z
 _atom_site_occupancy
  Al  Al0  1  0.11209076  0.08768199  0.40835373  1
  Al  Al1  1  0.23016848  0.21146130  0.05300124  1
  Al  Al2  1  0.89237095  0.21088167  0.63831141  1
  Al  Al3  1  0.43357193  0.09325803  0.32870260  1
  Al  Al4  1  0.55063952  0.20955092  0.07126960  1
  Al  Al5  1  0.10806016  0.09576840  0.88313828  1
  Al  Al6  1  0.22752989  0.20301585  0.58030966  1
  Al  Al7  1  0.89760266  0.21890813  0.13160730  1
  Al  Al8  1  0.43442795  0.09846295  0.81880213  1
  Al  Al9  1  0.54264589  0.21419809  0.56579609  1
  Al  Al10  1  0.22852038  0.53906941  0.11430688  1
  Al  Al11  1  0.77575983  0.42621042  0.88593624  1
  Al  Al12  1  0.88474109  0.53972136  0.58150996  1
  Al  Al13  1  0.44446340  0.43376115  0.31601673  1
  Al  Al14  1  0.57385776  0.53872560  0.13747770  1
  Al  Al15  1  0.10517337  0.42175820  0.81799872  1
  Al  Al16  1  0.21724493  0.54098541  0.64685584  1
  Al  Al17  1  0.77222980  0.42483439  0.39979902  1
  Al  Al18  1  0.89859581  0.54372412  0.04724218  1
  Al  Al19  1  0.43873951  0.42554736  0.82430575  1
  Al  Al20  1  0.55735817  0.53655791  0.64721180  1
  Al  Al21  1  0.12789631  0.75205460  0.41319225  1
  Al  Al22  1  0.77673415  0.75489016  0.81570519  1
  Al  Al23  1  0.88638537  0.86874920  0.57541607  1
  Al  Al24  1  0.43711364  0.75674694  0.41101846  1
  Al  Al25  1  0.56600721  0.87597967  0.05329854  1
  Al  Al26  1  0.11982387  0.75125635  0.88262288  1
  Al  Al27  1  0.22303364  0.87076350  0.64838109  1
  Al  Al28  1  0.88964314  0.86824225  0.05200889  1
  Al  Al29  1  0.44801712  0.75422359  0.88617904  1
  Al  Al30  1  0.55180164  0.87879905  0.58115090  1
  Gd  Gd31  1  0.76093750  0.09782708  0.82391402  1
  Gd  Gd32  1  0.77726711  0.09472156  0.33078975  1
  Gd  Gd33  1  0.11008933  0.41699806  0.32088479  1
  Gd  Gd34  1  0.23057450  0.87388644  0.14875824  1
  Gd  Gd35  1  0.76283042  0.75753681  0.31371642  1
  N  N36  1  0.23817399  0.18089421  0.40314388  1
  N  N37  1  0.10006678  0.11610280  0.06285368  1
  N  N38  1  0.90197712  0.22162323  0.81709430  1
  N  N39  1  0.77247963  0.09766791  0.60389371  1
  N  N40  1  0.51848315  0.22720860  0.38655797  1
  N  N41  1  0.44521823  0.08983153  0.13542230  1
  N  N42  1  0.22442138  0.20519791  0.87222322  1
  N  N43  1  0.10723294  0.09010944  0.58945688  1
  N  N44  1  0.91437952  0.22464368  0.31810943  1
  N  N45  1  0.78305930  0.09287429  0.10456930  1
  N  N46  1  0.51389700  0.22529712  0.89713834  1
  N  N47  1  0.44570663  0.09710019  0.63990803  1
  N  N48  1  0.23157233  0.56004819  0.33231325  1
  N  N49  1  0.11589918  0.42767590  0.10209555  1
  N  N50  1  0.88866190  0.53882549  0.86857502  1
  N  N51  1  0.76625116  0.42294589  0.58186237  1
  N  N52  1  0.56414737  0.54727810  0.32615463  1
  N  N53  1  0.45514685  0.42358034  0.13147573  1
  N  N54  1  0.21749776  0.53973217  0.83037631  1
  N  N55  1  0.10498763  0.42234950  0.63426687  1
  N  N56  1  0.87974273  0.53484104  0.40784240  1
  N  N57  1  0.78114703  0.42882162  0.07016371  1
  N  N58  1  0.55969929  0.53691988  0.82909961  1
  N  N59  1  0.44440504  0.41982465  0.63867741  1
  N  N60  1  0.22036960  0.87233941  0.36178149  1
  N  N61  1  0.11413678  0.74753670  0.06216589  1
  N  N62  1  0.89752130  0.84743523  0.87251579  1
  N  N63  1  0.77331384  0.76182523  0.63532040  1
  N  N64  1  0.52965537  0.88937899  0.40194919  1
  N  N65  1  0.47369491  0.74401074  0.06607801  1
  N  N66  1  0.22452388  0.87092562  0.83184841  1
  N  N67  1  0.11723000  0.75556417  0.59632565  1
  N  N68  1  0.90793178  0.85174809  0.39923375  1
  N  N69  1  0.78357382  0.76001790  0.10052098  1
  N  N70  1  0.55647629  0.87943374  0.87179725  1
  N  N71  1  0.44290524  0.75371842  0.59279761  1
