# generated using pymatgen
data_Gd5Al31N36
_symmetry_space_group_name_H-M   'P 1'
_cell_length_a   9.68233808
_cell_length_b   9.63796373
_cell_length_c   10.69510565
_cell_angle_alpha   90.87737785
_cell_angle_beta   91.27487232
_cell_angle_gamma   60.19176702
_symmetry_Int_Tables_number   1
_chemical_formula_structural   Gd5Al31N36
_chemical_formula_sum   'Gd5 Al31 N36'
_cell_volume   865.77389107
_cell_formula_units_Z   1
loop_
 _symmetry_equiv_pos_site_id
 _symmetry_equiv_pos_as_xyz
  1  'x, y, z'
loop_
 _atom_site_type_symbol
 _atom_site_label
 _atom_site_symmetry_multiplicity
 _atom_site_fract_x
 _atom_site_fract_y
 _atom_site_fract_z
 _atom_site_occupancy
  Al  Al0  1  0.11200703  0.08830532  0.40797452  1
  Al  Al1  1  0.23035104  0.21058599  0.05303998  1
  Al  Al2  1  0.89232410  0.21098650  0.63814753  1
  Al  Al3  1  0.43352175  0.09324391  0.32883632  1
  Al  Al4  1  0.55087873  0.20900539  0.07155977  1
  Al  Al5  1  0.10797818  0.09591115  0.88317781  1
  Al  Al6  1  0.22740504  0.20348571  0.57999282  1
  Al  Al7  1  0.89762841  0.21890208  0.13183636  1
  Al  Al8  1  0.43438587  0.09842737  0.81874240  1
  Al  Al9  1  0.54256273  0.21425911  0.56549472  1
  Al  Al10  1  0.23045199  0.53548843  0.09998389  1
  Al  Al11  1  0.77576256  0.42620293  0.88585677  1
  Al  Al12  1  0.88491199  0.53973729  0.58124931  1
  Al  Al13  1  0.44323873  0.43433415  0.31641096  1
  Al  Al14  1  0.57380633  0.53891447  0.13766138  1
  Al  Al15  1  0.10502602  0.42154540  0.81802557  1
  Al  Al16  1  0.21759949  0.54074059  0.64531636  1
  Al  Al17  1  0.77254355  0.42478044  0.39939380  1
  Al  Al18  1  0.89810827  0.54379615  0.04720201  1
  Al  Al19  1  0.43931674  0.42521615  0.82398226  1
  Al  Al20  1  0.55739694  0.53660201  0.64715516  1
  Al  Al21  1  0.12780354  0.75293482  0.41541346  1
  Al  Al22  1  0.77649973  0.75490555  0.81554938  1
  Al  Al23  1  0.88592061  0.86909975  0.57598864  1
  Al  Al24  1  0.43682686  0.75637877  0.41089776  1
  Al  Al25  1  0.56596796  0.87590455  0.05340121  1
  Al  Al26  1  0.11900187  0.75285058  0.88117546  1
  Al  Al27  1  0.22290650  0.87141572  0.64863246  1
  Al  Al28  1  0.88942168  0.86821904  0.05188976  1
  Al  Al29  1  0.44809384  0.75427520  0.88619047  1
  Al  Al30  1  0.55154363  0.87881550  0.58101886  1
  Gd  Gd31  1  0.76066226  0.09816835  0.82391567  1
  Gd  Gd32  1  0.77764804  0.09427900  0.33095917  1
  Gd  Gd33  1  0.11159119  0.41885495  0.32030050  1
  Gd  Gd34  1  0.23044885  0.87333682  0.14886520  1
  Gd  Gd35  1  0.76288573  0.75757152  0.31413478  1
  N  N36  1  0.23776090  0.18187051  0.40275777  1
  N  N37  1  0.10002455  0.11582505  0.06299921  1
  N  N38  1  0.90196988  0.22167693  0.81707543  1
  N  N39  1  0.77220044  0.09799030  0.60399811  1
  N  N40  1  0.51933089  0.22633088  0.38606370  1
  N  N41  1  0.44518595  0.08969324  0.13536466  1
  N  N42  1  0.22448221  0.20504373  0.87226778  1
  N  N43  1  0.10721413  0.09050419  0.58931675  1
  N  N44  1  0.91411996  0.22457970  0.31801787  1
  N  N45  1  0.78299976  0.09282228  0.10450487  1
  N  N46  1  0.51375582  0.22533646  0.89741843  1
  N  N47  1  0.44562591  0.09714844  0.63981411  1
  N  N48  1  0.23416274  0.55718913  0.34487193  1
  N  N49  1  0.11617444  0.42740191  0.10079667  1
  N  N50  1  0.88853008  0.53894250  0.86859282  1
  N  N51  1  0.76621483  0.42308172  0.58170455  1
  N  N52  1  0.56435209  0.54705486  0.32552273  1
  N  N53  1  0.45363999  0.42432756  0.13110829  1
  N  N54  1  0.21812522  0.53920905  0.83302733  1
  N  N55  1  0.10502135  0.42263156  0.63498478  1
  N  N56  1  0.88050961  0.53438827  0.40752704  1
  N  N57  1  0.78103285  0.42871157  0.07013011  1
  N  N58  1  0.55975185  0.53702320  0.82915169  1
  N  N59  1  0.44461201  0.41950735  0.63937771  1
  N  N60  1  0.21996141  0.87272341  0.36177074  1
  N  N61  1  0.11381852  0.74778616  0.06155992  1
  N  N62  1  0.89707397  0.84770886  0.87228657  1
  N  N63  1  0.77301444  0.76179854  0.63525352  1
  N  N64  1  0.52929790  0.88922166  0.40187418  1
  N  N65  1  0.47358254  0.74399693  0.06608770  1
  N  N66  1  0.22470693  0.87137799  0.83198982  1
  N  N67  1  0.11605065  0.75706632  0.59881352  1
  N  N68  1  0.90806454  0.85159369  0.39986458  1
  N  N69  1  0.78359895  0.75989064  0.10065847  1
  N  N70  1  0.55646528  0.87946688  0.87183899  1
  N  N71  1  0.44267352  0.75368372  0.59283286  1
