# generated using pymatgen
data_Gd5Al31N36
_symmetry_space_group_name_H-M   'P 1'
_cell_length_a   9.72594815
_cell_length_b   9.72101949
_cell_length_c   10.30625653
_cell_angle_alpha   90.02131773
_cell_angle_beta   90.46050129
_cell_angle_gamma   59.82384074
_symmetry_Int_Tables_number   1
_chemical_formula_structural   Gd5Al31N36
_chemical_formula_sum   'Gd5 Al31 N36'
_cell_volume   842.33287622
_cell_formula_units_Z   1
loop_
 _symmetry_equiv_pos_site_id
 _symmetry_equiv_pos_as_xyz
  1  'x, y, z'
loop_
 _atom_site_type_symbol
 _atom_site_label
 _atom_site_symmetry_multiplicity
 _atom_site_fract_x
 _atom_site_fract_y
 _atom_site_fract_z
 _atom_site_occupancy
  Al  Al0  1  0.11285574  0.09928994  0.31313490  1
  Al  Al1  1  0.22222172  0.20995722  0.05283299  1
  Al  Al2  1  0.89295292  0.20887375  0.55698794  1
  Al  Al3  1  0.43128993  0.09315916  0.31509666  1
  Al  Al4  1  0.54603309  0.20987751  0.05956282  1
  Al  Al5  1  0.11201040  0.10590691  0.81019416  1
  Al  Al6  1  0.22446098  0.20160264  0.56563460  1
  Al  Al7  1  0.89139771  0.21953775  0.06004483  1
  Al  Al8  1  0.43819105  0.09908653  0.80882075  1
  Al  Al9  1  0.54418353  0.21045493  0.55670891  1
  Al  Al10  1  0.22238254  0.53420692  0.05287126  1
  Al  Al11  1  0.78181187  0.42904879  0.80827625  1
  Al  Al12  1  0.88722846  0.53609471  0.57075826  1
  Al  Al13  1  0.44146617  0.43682868  0.31289746  1
  Al  Al14  1  0.56402438  0.53306237  0.05764786  1
  Al  Al15  1  0.11418483  0.42686426  0.81101899  1
  Al  Al16  1  0.22836036  0.54114505  0.56599391  1
  Al  Al17  1  0.77460117  0.42980304  0.31368405  1
  Al  Al18  1  0.88853071  0.53748676  0.04391005  1
  Al  Al19  1  0.44065693  0.42945580  0.81101515  1
  Al  Al20  1  0.55969370  0.53138112  0.56759398  1
  Al  Al21  1  0.11814836  0.75576579  0.31394997  1
  Al  Al22  1  0.78135689  0.75582712  0.80769514  1
  Al  Al23  1  0.89552827  0.86533691  0.56179287  1
  Al  Al24  1  0.43203998  0.76363213  0.35351113  1
  Al  Al25  1  0.56038576  0.87235801  0.04440583  1
  Al  Al26  1  0.11384563  0.74936235  0.80866262  1
  Al  Al27  1  0.22274199  0.87169052  0.62794541  1
  Al  Al28  1  0.89286479  0.85799004  0.04955297  1
  Al  Al29  1  0.45570471  0.75274970  0.82062078  1
  Al  Al30  1  0.55088139  0.87668266  0.57364413  1
  Gd  Gd31  1  0.77552492  0.10009868  0.81657687  1
  Gd  Gd32  1  0.77648146  0.09632076  0.31429656  1
  Gd  Gd33  1  0.11626930  0.42854458  0.31179880  1
  Gd  Gd34  1  0.21980029  0.87346415  0.07717535  1
  Gd  Gd35  1  0.76200302  0.76147153  0.30667027  1
  N  N36  1  0.22941638  0.18337296  0.38448814  1
  N  N37  1  0.09825138  0.13266411  0.12847136  1
  N  N38  1  0.90743093  0.22285114  0.87745646  1
  N  N39  1  0.77531505  0.09669396  0.58834623  1
  N  N40  1  0.51634714  0.22321047  0.37239167  1
  N  N41  1  0.44514093  0.09050211  0.12162718  1
  N  N42  1  0.22538930  0.20378051  0.86600771  1
  N  N43  1  0.10855117  0.09861344  0.62446309  1
  N  N44  1  0.90229821  0.21954526  0.37489824  1
  N  N45  1  0.78193669  0.09255071  0.08434457  1
  N  N46  1  0.52129791  0.22191696  0.87760812  1
  N  N47  1  0.44357424  0.09746237  0.62503149  1
  N  N48  1  0.24140457  0.55475628  0.38539243  1
  N  N49  1  0.11081936  0.42792436  0.08925901  1
  N  N50  1  0.88948916  0.53740051  0.85735157  1
  N  N51  1  0.77836836  0.42328106  0.62443517  1
  N  N52  1  0.55769719  0.53627268  0.37661277  1
  N  N53  1  0.44443371  0.43038985  0.12189678  1
  N  N54  1  0.22623970  0.53797108  0.86628602  1
  N  N55  1  0.11500486  0.42748401  0.61860898  1
  N  N56  1  0.87522236  0.52723259  0.39021192  1
  N  N57  1  0.77771458  0.43219756  0.12304438  1
  N  N58  1  0.56304016  0.52766454  0.86729132  1
  N  N59  1  0.44814115  0.42494305  0.62514563  1
  N  N60  1  0.21692908  0.87636275  0.32803074  1
  N  N61  1  0.09579015  0.73673106  0.12827674  1
  N  N62  1  0.90659679  0.84267539  0.86666043  1
  N  N63  1  0.77717645  0.76201245  0.61925712  1
  N  N64  1  0.52240080  0.88783687  0.39087731  1
  N  N65  1  0.47627471  0.74703029  0.09134068  1
  N  N66  1  0.22279679  0.87242606  0.83500184  1
  N  N67  1  0.11180955  0.75803778  0.62534201  1
  N  N68  1  0.91614548  0.84877915  0.38284201  1
  N  N69  1  0.77747018  0.75803792  0.08766029  1
  N  N70  1  0.55744549  0.87657271  0.85704016  1
  N  N71  1  0.44962976  0.75388293  0.62187809  1
