# generated using pymatgen
data_Gd5Al31N36
_symmetry_space_group_name_H-M   'P 1'
_cell_length_a   9.70994246
_cell_length_b   9.70632291
_cell_length_c   10.40935806
_cell_angle_alpha   90.60986127
_cell_angle_beta   90.57005750
_cell_angle_gamma   59.95996153
_symmetry_Int_Tables_number   1
_chemical_formula_structural   Gd5Al31N36
_chemical_formula_sum   'Gd5 Al31 N36'
_cell_volume   849.21923245
_cell_formula_units_Z   1
loop_
 _symmetry_equiv_pos_site_id
 _symmetry_equiv_pos_as_xyz
  1  'x, y, z'
loop_
 _atom_site_type_symbol
 _atom_site_label
 _atom_site_symmetry_multiplicity
 _atom_site_fract_x
 _atom_site_fract_y
 _atom_site_fract_z
 _atom_site_occupancy
  Al  Al0  1  0.11389871  0.09299811  0.40985581  1
  Al  Al1  1  0.22088748  0.20790337  0.14476907  1
  Al  Al2  1  0.88712634  0.20712646  0.65709862  1
  Al  Al3  1  0.43385516  0.08737147  0.40036276  1
  Al  Al4  1  0.53994603  0.21462599  0.15205423  1
  Al  Al5  1  0.10993801  0.10199757  0.89669630  1
  Al  Al6  1  0.22194385  0.19727286  0.65417428  1
  Al  Al7  1  0.89109349  0.22028104  0.15410294  1
  Al  Al8  1  0.42955298  0.10871514  0.89212406  1
  Al  Al9  1  0.54206790  0.21174086  0.65057715  1
  Al  Al10  1  0.22612609  0.54627260  0.14695170  1
  Al  Al11  1  0.77568649  0.42810515  0.89856132  1
  Al  Al12  1  0.88349267  0.53478158  0.59486100  1
  Al  Al13  1  0.44602396  0.43958503  0.39489268  1
  Al  Al14  1  0.56713584  0.53628068  0.14605432  1
  Al  Al15  1  0.10938546  0.43042353  0.82914713  1
  Al  Al16  1  0.22696709  0.54388142  0.65343422  1
  Al  Al17  1  0.77651950  0.41808270  0.41061842  1
  Al  Al18  1  0.90561449  0.53818742  0.06827212  1
  Al  Al19  1  0.43717601  0.43360754  0.90094128  1
  Al  Al20  1  0.55344318  0.53261942  0.65488137  1
  Al  Al21  1  0.12094017  0.76154225  0.40796997  1
  Al  Al22  1  0.78232963  0.74990830  0.83248952  1
  Al  Al23  1  0.89306978  0.86533468  0.65435314  1
  Al  Al24  1  0.44137657  0.75751478  0.42027258  1
  Al  Al25  1  0.56671914  0.87172187  0.06894298  1
  Al  Al26  1  0.11510965  0.75535683  0.89649675  1
  Al  Al27  1  0.21750051  0.87323428  0.64933864  1
  Al  Al28  1  0.90094403  0.86940147  0.14548424  1
  Al  Al29  1  0.44344812  0.75491148  0.88778312  1
  Al  Al30  1  0.54830508  0.87407989  0.63921843  1
  Gd  Gd31  1  0.77196084  0.09593448  0.89961407  1
  Gd  Gd32  1  0.77024701  0.09685105  0.39211335  1
  Gd  Gd33  1  0.14297577  0.41482744  0.38227739  1
  Gd  Gd34  1  0.23380850  0.87649065  0.16135438  1
  Gd  Gd35  1  0.77173056  0.73990960  0.32620340  1
  N  N36  1  0.23411033  0.16429428  0.32511231  1
  N  N37  1  0.09676629  0.12240026  0.07728704  1
  N  N38  1  0.89950143  0.22015851  0.83569963  1
  N  N39  1  0.77289714  0.09166167  0.61988907  1
  N  N40  1  0.50496027  0.22796766  0.33463952  1
  N  N41  1  0.44160917  0.09929273  0.07729593  1
  N  N42  1  0.21963646  0.20356609  0.83676058  1
  N  N43  1  0.10548380  0.09777844  0.59580013  1
  N  N44  1  0.90539833  0.21564885  0.33739798  1
  N  N45  1  0.77271481  0.10186735  0.12494337  1
  N  N46  1  0.51872994  0.22674639  0.83096238  1
  N  N47  1  0.43585818  0.09826591  0.59142881  1
  N  N48  1  0.24690504  0.56902870  0.32690916  1
  N  N49  1  0.11400604  0.43311609  0.13630370  1
  N  N50  1  0.89489446  0.53537954  0.88253286  1
  N  N51  1  0.76634646  0.41891287  0.59812562  1
  N  N52  1  0.56569885  0.53824060  0.33946648  1
  N  N53  1  0.44801454  0.43075522  0.08642110  1
  N  N54  1  0.22652095  0.54210205  0.83724722  1
  N  N55  1  0.11070394  0.42782454  0.63518215  1
  N  N56  1  0.89396980  0.51441036  0.41787845  1
  N  N57  1  0.77991804  0.42974072  0.08659442  1
  N  N58  1  0.55616605  0.53276300  0.83861132  1
  N  N59  1  0.44023912  0.42951554  0.58390700  1
  N  N60  1  0.22375474  0.87377589  0.37977082  1
  N  N61  1  0.10656861  0.75410377  0.07618088  1
  N  N62  1  0.90749659  0.84556939  0.83485712  1
  N  N63  1  0.77363350  0.75419091  0.64138097  1
  N  N64  1  0.52970953  0.87644262  0.37634829  1
  N  N65  1  0.47477513  0.74332349  0.07062977  1
  N  N66  1  0.21894110  0.87510585  0.84019466  1
  N  N67  1  0.10850812  0.75840224  0.59328792  1
  N  N68  1  0.92372525  0.85220769  0.32812958  1
  N  N69  1  0.78297582  0.76403870  0.10370745  1
  N  N70  1  0.55142553  0.87794630  0.85277018  1
  N  N71  1  0.44264201  0.75408730  0.60714364  1
