# generated using pymatgen
data_Gd5Al31N36
_symmetry_space_group_name_H-M   'P 1'
_cell_length_a   9.70969201
_cell_length_b   9.68027655
_cell_length_c   10.27019662
_cell_angle_alpha   90.30293220
_cell_angle_beta   90.07311445
_cell_angle_gamma   59.88749516
_symmetry_Int_Tables_number   1
_chemical_formula_structural   Gd5Al31N36
_chemical_formula_sum   'Gd5 Al31 N36'
_cell_volume   835.03085594
_cell_formula_units_Z   1
loop_
 _symmetry_equiv_pos_site_id
 _symmetry_equiv_pos_as_xyz
  1  'x, y, z'
loop_
 _atom_site_type_symbol
 _atom_site_label
 _atom_site_symmetry_multiplicity
 _atom_site_fract_x
 _atom_site_fract_y
 _atom_site_fract_z
 _atom_site_occupancy
  Al  Al0  1  0.11534448  0.09356533  0.40909404  1
  Al  Al1  1  0.22153269  0.20414813  0.13943679  1
  Al  Al2  1  0.89169758  0.21053086  0.65106641  1
  Al  Al3  1  0.43109722  0.08931356  0.39216954  1
  Al  Al4  1  0.54036242  0.21224591  0.14984988  1
  Al  Al5  1  0.11221219  0.10061158  0.89214518  1
  Al  Al6  1  0.22291416  0.20419809  0.65590823  1
  Al  Al7  1  0.89057293  0.21653509  0.15168516  1
  Al  Al8  1  0.43736759  0.09624859  0.89692603  1
  Al  Al9  1  0.54408115  0.20847659  0.64816486  1
  Al  Al10  1  0.22631554  0.54237833  0.13896489  1
  Al  Al11  1  0.77831900  0.43151107  0.89847128  1
  Al  Al12  1  0.88967879  0.53552255  0.66143901  1
  Al  Al13  1  0.44191871  0.43777389  0.39449690  1
  Al  Al14  1  0.56298123  0.53408246  0.14522242  1
  Al  Al15  1  0.11496622  0.42665711  0.89814701  1
  Al  Al16  1  0.22402101  0.53644983  0.65607378  1
  Al  Al17  1  0.77963484  0.42886739  0.39736812  1
  Al  Al18  1  0.88843843  0.53632650  0.13509041  1
  Al  Al19  1  0.43964801  0.43176091  0.89588046  1
  Al  Al20  1  0.55795925  0.53456237  0.64766130  1
  Al  Al21  1  0.12321508  0.75938885  0.40858327  1
  Al  Al22  1  0.77840305  0.75752721  0.89917287  1
  Al  Al23  1  0.89241399  0.86328614  0.65869882  1
  Al  Al24  1  0.44411686  0.75810895  0.40759999  1
  Al  Al25  1  0.55420378  0.87134510  0.13832001  1
  Al  Al26  1  0.11478647  0.75436832  0.89231837  1
  Al  Al27  1  0.22357075  0.87125700  0.64497093  1
  Al  Al28  1  0.89529001  0.86489059  0.14482594  1
  Al  Al29  1  0.44904086  0.75601334  0.89198391  1
  Al  Al30  1  0.55528187  0.87107441  0.65629421  1
  Gd  Gd31  1  0.77342175  0.10096331  0.89565769  1
  Gd  Gd32  1  0.77119335  0.10255370  0.39022541  1
  Gd  Gd33  1  0.12690324  0.42336576  0.38820766  1
  Gd  Gd34  1  0.22416848  0.87304856  0.15661166  1
  Gd  Gd35  1  0.77132561  0.76340449  0.39374098  1
  N  N36  1  0.22811749  0.17443349  0.32342774  1
  N  N37  1  0.09543899  0.12015251  0.07534306  1
  N  N38  1  0.90225824  0.22386028  0.83129532  1
  N  N39  1  0.77666525  0.09310821  0.62015810  1
  N  N40  1  0.50743529  0.22612382  0.33368858  1
  N  N41  1  0.44325539  0.09346104  0.08292772  1
  N  N42  1  0.22374886  0.20485806  0.84108185  1
  N  N43  1  0.11116354  0.09760054  0.59578019  1
  N  N44  1  0.90780026  0.21708107  0.33785218  1
  N  N45  1  0.77271329  0.09988087  0.12428330  1
  N  N46  1  0.52009900  0.22164740  0.83088978  1
  N  N47  1  0.44231236  0.08962769  0.58465900  1
  N  N48  1  0.24163070  0.56449270  0.32228174  1
  N  N49  1  0.11714425  0.42720534  0.09215254  1
  N  N50  1  0.88991703  0.53770282  0.85113300  1
  N  N51  1  0.77825847  0.42904367  0.58743546  1
  N  N52  1  0.56140223  0.53587620  0.33899533  1
  N  N53  1  0.44825314  0.42794155  0.08349885  1
  N  N54  1  0.22516836  0.53722263  0.84079287  1
  N  N55  1  0.11086510  0.42670732  0.61136130  1
  N  N56  1  0.88125151  0.52505357  0.31872502  1
  N  N57  1  0.77638017  0.42639712  0.08424728  1
  N  N58  1  0.55851134  0.53291322  0.83485784  1
  N  N59  1  0.44233942  0.42882877  0.58484950  1
  N  N60  1  0.22486070  0.87343068  0.37877923  1
  N  N61  1  0.10124911  0.75071277  0.07326489  1
  N  N62  1  0.90192941  0.84528682  0.83982285  1
  N  N63  1  0.77758657  0.75659993  0.61340663  1
  N  N64  1  0.52317699  0.87994676  0.32349149  1
  N  N65  1  0.47155076  0.74319554  0.07541841  1
  N  N66  1  0.22290944  0.87218278  0.83891106  1
  N  N67  1  0.11120254  0.75578709  0.59622530  1
  N  N68  1  0.92673975  0.85401649  0.32614722  1
  N  N69  1  0.77625929  0.76428103  0.09129386  1
  N  N70  1  0.55461617  0.87407868  0.84225597  1
  N  N71  1  0.45100797  0.75636435  0.59608690  1
