# generated using pymatgen
data_Gd5Al31N36
_symmetry_space_group_name_H-M   'P 1'
_cell_length_a   9.71578686
_cell_length_b   9.68318440
_cell_length_c   10.50167739
_cell_angle_alpha   90.63318281
_cell_angle_beta   90.58702143
_cell_angle_gamma   59.98371263
_symmetry_Int_Tables_number   1
_chemical_formula_structural   Gd5Al31N36
_chemical_formula_sum   'Gd5 Al31 N36'
_cell_volume   855.42358419
_cell_formula_units_Z   1
loop_
 _symmetry_equiv_pos_site_id
 _symmetry_equiv_pos_as_xyz
  1  'x, y, z'
loop_
 _atom_site_type_symbol
 _atom_site_label
 _atom_site_symmetry_multiplicity
 _atom_site_fract_x
 _atom_site_fract_y
 _atom_site_fract_z
 _atom_site_occupancy
  Al  Al0  1  0.12110392  0.07926981  0.39367625  1
  Al  Al1  1  0.22316040  0.21338078  0.04020918  1
  Al  Al2  1  0.88215551  0.21364852  0.56238484  1
  Al  Al3  1  0.43374374  0.08944813  0.31273973  1
  Al  Al4  1  0.54277206  0.21327298  0.05647531  1
  Al  Al5  1  0.11290188  0.10065027  0.83409215  1
  Al  Al6  1  0.22807779  0.20656651  0.57218196  1
  Al  Al7  1  0.88626544  0.22047220  0.04627694  1
  Al  Al8  1  0.43818837  0.09887763  0.80460491  1
  Al  Al9  1  0.54488644  0.21025754  0.55269716  1
  Al  Al10  1  0.21963198  0.53958707  0.05194512  1
  Al  Al11  1  0.78337449  0.43147368  0.80290778  1
  Al  Al12  1  0.88815423  0.53663258  0.56698332  1
  Al  Al13  1  0.43905328  0.43312295  0.31083738  1
  Al  Al14  1  0.56136246  0.54103476  0.12806014  1
  Al  Al15  1  0.11140513  0.43208815  0.80776997  1
  Al  Al16  1  0.22551614  0.54199529  0.56387316  1
  Al  Al17  1  0.78634329  0.42183191  0.31315902  1
  Al  Al18  1  0.88937947  0.53721387  0.04119318  1
  Al  Al19  1  0.43362024  0.43011131  0.80943474  1
  Al  Al20  1  0.55248090  0.53973052  0.63122277  1
  Al  Al21  1  0.11660642  0.75253877  0.31771507  1
  Al  Al22  1  0.77997746  0.75646131  0.80527482  1
  Al  Al23  1  0.89522961  0.86706414  0.56115537  1
  Al  Al24  1  0.43637818  0.75368002  0.39288745  1
  Al  Al25  1  0.56474083  0.87654243  0.04126348  1
  Al  Al26  1  0.11388008  0.75198814  0.80816032  1
  Al  Al27  1  0.22766595  0.86875466  0.63515453  1
  Al  Al28  1  0.89341515  0.86047690  0.04707390  1
  Al  Al29  1  0.45378579  0.75124945  0.87225778  1
  Al  Al30  1  0.55390824  0.87751437  0.56658248  1
  Gd  Gd31  1  0.76801672  0.09748913  0.81309848  1
  Gd  Gd32  1  0.77910366  0.09579557  0.30656444  1
  Gd  Gd33  1  0.12087615  0.41709833  0.30563200  1
  Gd  Gd34  1  0.22774532  0.87817809  0.11428702  1
  Gd  Gd35  1  0.76817639  0.75651295  0.30406244  1
  N  N36  1  0.23636079  0.18070435  0.39139658  1
  N  N37  1  0.09954515  0.12628394  0.07472376  1
  N  N38  1  0.89542317  0.22545213  0.86346154  1
  N  N39  1  0.77182226  0.09783863  0.59068106  1
  N  N40  1  0.52081536  0.22036577  0.37036804  1
  N  N41  1  0.44175731  0.09168560  0.11950041  1
  N  N42  1  0.22425251  0.20990273  0.85440898  1
  N  N43  1  0.11063568  0.09278268  0.60176636  1
  N  N44  1  0.90191719  0.21664674  0.38160527  1
  N  N45  1  0.77728420  0.09628842  0.07998096  1
  N  N46  1  0.51601417  0.22579317  0.87823716  1
  N  N47  1  0.44750664  0.09555247  0.62407025  1
  N  N48  1  0.23987155  0.55064509  0.38506544  1
  N  N49  1  0.11097231  0.42946871  0.08660234  1
  N  N50  1  0.88845139  0.53931815  0.85787150  1
  N  N51  1  0.77960489  0.42749895  0.62098617  1
  N  N52  1  0.55724544  0.54361364  0.31843326  1
  N  N53  1  0.43767224  0.43013952  0.12210434  1
  N  N54  1  0.22296982  0.54251742  0.86795089  1
  N  N55  1  0.11248569  0.43116608  0.62005035  1
  N  N56  1  0.88242660  0.52324848  0.38966018  1
  N  N57  1  0.78745907  0.42747991  0.12278638  1
  N  N58  1  0.55570809  0.53792924  0.81672206  1
  N  N59  1  0.44161185  0.42211921  0.62332662  1
  N  N60  1  0.22311873  0.87010325  0.33642170  1
  N  N61  1  0.09306019  0.74343014  0.13122151  1
  N  N62  1  0.90751638  0.84155205  0.86766474  1
  N  N63  1  0.77682433  0.76240669  0.61893448  1
  N  N64  1  0.52957078  0.88563437  0.38465919  1
  N  N65  1  0.48053952  0.73913469  0.05220784  1
  N  N66  1  0.22857581  0.87119674  0.82601602  1
  N  N67  1  0.11044987  0.75835289  0.62640903  1
  N  N68  1  0.91470620  0.85279490  0.38484245  1
  N  N69  1  0.77771480  0.75951252  0.08853748  1
  N  N70  1  0.55794979  0.88034729  0.85645711  1
  N  N71  1  0.44217350  0.75460633  0.57755003  1
