# generated using pymatgen
data_Gd5Al31N36
_symmetry_space_group_name_H-M   'P 1'
_cell_length_a   9.62650588
_cell_length_b   9.60156755
_cell_length_c   10.67188861
_cell_angle_alpha   90.72194568
_cell_angle_beta   90.77509735
_cell_angle_gamma   60.39936672
_symmetry_Int_Tables_number   1
_chemical_formula_structural   Gd5Al31N36
_chemical_formula_sum   'Gd5 Al31 N36'
_cell_volume   857.56417532
_cell_formula_units_Z   1
loop_
 _symmetry_equiv_pos_site_id
 _symmetry_equiv_pos_as_xyz
  1  'x, y, z'
loop_
 _atom_site_type_symbol
 _atom_site_label
 _atom_site_symmetry_multiplicity
 _atom_site_fract_x
 _atom_site_fract_y
 _atom_site_fract_z
 _atom_site_occupancy
  Al  Al0  1  0.11206692  0.08674342  0.42681207  1
  Al  Al1  1  0.23200884  0.21898764  0.05257726  1
  Al  Al2  1  0.88335739  0.20474584  0.66236944  1
  Al  Al3  1  0.43983568  0.09932864  0.41924396  1
  Al  Al4  1  0.54429349  0.21066808  0.16015815  1
  Al  Al5  1  0.10614089  0.09744754  0.89248927  1
  Al  Al6  1  0.21309527  0.20705397  0.60582699  1
  Al  Al7  1  0.89738273  0.22361677  0.15596250  1
  Al  Al8  1  0.43698107  0.09587398  0.82497685  1
  Al  Al9  1  0.55374189  0.21385781  0.65497309  1
  Al  Al10  1  0.23220328  0.54735907  0.14280578  1
  Al  Al11  1  0.77441920  0.42653044  0.90028678  1
  Al  Al12  1  0.88628552  0.53756888  0.59142313  1
  Al  Al13  1  0.43991655  0.43666557  0.40018085  1
  Al  Al14  1  0.56809529  0.53771694  0.14637319  1
  Al  Al15  1  0.10728038  0.42839120  0.82671660  1
  Al  Al16  1  0.22470918  0.53964845  0.65307229  1
  Al  Al17  1  0.77348745  0.42369115  0.41445954  1
  Al  Al18  1  0.90182353  0.54846683  0.05647299  1
  Al  Al19  1  0.43872713  0.43139499  0.90245127  1
  Al  Al20  1  0.55395433  0.53130973  0.65794423  1
  Al  Al21  1  0.11705928  0.75238032  0.40677352  1
  Al  Al22  1  0.77932467  0.74929202  0.82496795  1
  Al  Al23  1  0.89315867  0.86510290  0.65460060  1
  Al  Al24  1  0.43152524  0.75628310  0.42666499  1
  Al  Al25  1  0.56875569  0.88192718  0.04869755  1
  Al  Al26  1  0.11526555  0.75226873  0.89821091  1
  Al  Al27  1  0.21675390  0.86693541  0.65885594  1
  Al  Al28  1  0.90485822  0.86747768  0.15108846  1
  Al  Al29  1  0.44655116  0.75279267  0.89219073  1
  Al  Al30  1  0.55523199  0.86452460  0.60196361  1
  Gd  Gd31  1  0.77143844  0.08840143  0.91517747  1
  Gd  Gd32  1  0.78392893  0.09299180  0.39022810  1
  Gd  Gd33  1  0.11120419  0.40917410  0.32668502  1
  Gd  Gd34  1  0.23630519  0.88472361  0.15810560  1
  Gd  Gd35  1  0.74271282  0.74884873  0.31121899  1
  N  N36  1  0.22900922  0.18849481  0.42909997  1
  N  N37  1  0.09741402  0.12573713  0.07294249  1
  N  N38  1  0.89306714  0.21701911  0.83793170  1
  N  N39  1  0.77428755  0.08879544  0.61206972  1
  N  N40  1  0.51839805  0.22107096  0.34217005  1
  N  N41  1  0.44908933  0.09649581  0.09530572  1
  N  N42  1  0.22201245  0.20825612  0.86985119  1
  N  N43  1  0.09940128  0.08746702  0.60858999  1
  N  N44  1  0.91780050  0.22362622  0.33673800  1
  N  N45  1  0.78002225  0.10255936  0.13579306  1
  N  N46  1  0.53011013  0.22696133  0.83067505  1
  N  N47  1  0.44230451  0.09271643  0.63464974  1
  N  N48  1  0.24031846  0.55557078  0.32665416  1
  N  N49  1  0.11876250  0.43348728  0.10981993  1
  N  N50  1  0.89110458  0.53623701  0.87984907  1
  N  N51  1  0.76786894  0.41710253  0.59663184  1
  N  N52  1  0.56071886  0.54255883  0.34086837  1
  N  N53  1  0.45225955  0.42861243  0.08798854  1
  N  N54  1  0.22858711  0.54046002  0.83622612  1
  N  N55  1  0.10405777  0.42768588  0.64639802  1
  N  N56  1  0.88074191  0.53584340  0.41747818  1
  N  N57  1  0.78173464  0.43307483  0.08760201  1
  N  N58  1  0.55687247  0.53288885  0.83945164  1
  N  N59  1  0.43985470  0.42768205  0.58509799  1
  N  N60  1  0.21852483  0.87397175  0.37278033  1
  N  N61  1  0.10940892  0.75724605  0.07686428  1
  N  N62  1  0.90899737  0.84566633  0.83134614  1
  N  N63  1  0.77251653  0.75287100  0.64520322  1
  N  N64  1  0.53001355  0.88348851  0.42335525  1
  N  N65  1  0.47877146  0.74537548  0.07385918  1
  N  N66  1  0.22199521  0.87087501  0.84337594  1
  N  N67  1  0.10816716  0.75434021  0.59026611  1
  N  N68  1  0.91644258  0.84153089  0.32825543  1
  N  N69  1  0.78440250  0.76973606  0.09825462  1
  N  N70  1  0.55704299  0.87441280  0.86742473  1
  N  N71  1  0.43757751  0.74941130  0.60805358  1
