# generated using pymatgen
data_Gd5Al31N36
_symmetry_space_group_name_H-M   'P 1'
_cell_length_a   9.67440077
_cell_length_b   9.64653203
_cell_length_c   10.60418670
_cell_angle_alpha   90.89331182
_cell_angle_beta   90.92811865
_cell_angle_gamma   60.26431524
_symmetry_Int_Tables_number   1
_chemical_formula_structural   Gd5Al31N36
_chemical_formula_sum   'Gd5 Al31 N36'
_cell_volume   859.17257757
_cell_formula_units_Z   1
loop_
 _symmetry_equiv_pos_site_id
 _symmetry_equiv_pos_as_xyz
  1  'x, y, z'
loop_
 _atom_site_type_symbol
 _atom_site_label
 _atom_site_symmetry_multiplicity
 _atom_site_fract_x
 _atom_site_fract_y
 _atom_site_fract_z
 _atom_site_occupancy
  Al  Al0  1  0.12085285  0.07834724  0.40272841  1
  Al  Al1  1  0.22822445  0.21499110  0.03800050  1
  Al  Al2  1  0.88522579  0.20900769  0.56648895  1
  Al  Al3  1  0.43285713  0.09225173  0.31313137  1
  Al  Al4  1  0.54495356  0.21338754  0.05482917  1
  Al  Al5  1  0.11458326  0.09636146  0.86580369  1
  Al  Al6  1  0.22852300  0.20712642  0.57062572  1
  Al  Al7  1  0.88093085  0.22315812  0.04090056  1
  Al  Al8  1  0.43748729  0.09850873  0.80330260  1
  Al  Al9  1  0.54632512  0.21025564  0.55157332  1
  Al  Al10  1  0.22225492  0.53917072  0.05147430  1
  Al  Al11  1  0.78331327  0.42972079  0.79965777  1
  Al  Al12  1  0.88880428  0.54003743  0.57241080  1
  Al  Al13  1  0.43630200  0.43277615  0.30988469  1
  Al  Al14  1  0.56736633  0.53867430  0.13035106  1
  Al  Al15  1  0.11393526  0.42985520  0.80661187  1
  Al  Al16  1  0.22505790  0.54202212  0.56229494  1
  Al  Al17  1  0.77589506  0.42722915  0.34298804  1
  Al  Al18  1  0.88954056  0.53604426  0.03713359  1
  Al  Al19  1  0.43454475  0.42953798  0.80806478  1
  Al  Al20  1  0.54993811  0.54235083  0.63144254  1
  Al  Al21  1  0.11446202  0.75187109  0.31694043  1
  Al  Al22  1  0.78107251  0.75578733  0.80624829  1
  Al  Al23  1  0.89559227  0.86654080  0.55876866  1
  Al  Al24  1  0.43203594  0.75761278  0.39605236  1
  Al  Al25  1  0.56650532  0.87616416  0.03976126  1
  Al  Al26  1  0.11573948  0.75063850  0.80713186  1
  Al  Al27  1  0.22685458  0.87301700  0.63868452  1
  Al  Al28  1  0.89672371  0.85938255  0.04589525  1
  Al  Al29  1  0.45346768  0.75040910  0.87385061  1
  Al  Al30  1  0.55471487  0.87839586  0.56654326  1
  Gd  Gd31  1  0.76701013  0.09231647  0.80976270  1
  Gd  Gd32  1  0.77962781  0.09608718  0.30322814  1
  Gd  Gd33  1  0.11071346  0.41932979  0.30336120  1
  Gd  Gd34  1  0.23176165  0.87946763  0.12166804  1
  Gd  Gd35  1  0.76300315  0.75647122  0.30019031  1
  N  N36  1  0.23439639  0.18408393  0.38822904  1
  N  N37  1  0.10232631  0.12022044  0.05046859  1
  N  N38  1  0.89213684  0.22306521  0.85694534  1
  N  N39  1  0.77258294  0.09560734  0.59077983  1
  N  N40  1  0.52354842  0.22043979  0.37065108  1
  N  N41  1  0.44308135  0.09091579  0.11975834  1
  N  N42  1  0.22563414  0.20945148  0.85379039  1
  N  N43  1  0.11444592  0.08874404  0.58818310  1
  N  N44  1  0.89995498  0.21658567  0.38552868  1
  N  N45  1  0.77889433  0.09515378  0.07866414  1
  N  N46  1  0.51635549  0.22613914  0.87836571  1
  N  N47  1  0.44798056  0.09620081  0.62378166  1
  N  N48  1  0.23647602  0.54878602  0.38346473  1
  N  N49  1  0.11194213  0.42887345  0.08577547  1
  N  N50  1  0.89035964  0.53733883  0.85446181  1
  N  N51  1  0.77777903  0.42783149  0.61748894  1
  N  N52  1  0.55349103  0.54689201  0.32137953  1
  N  N53  1  0.44040462  0.42891938  0.12358047  1
  N  N54  1  0.22509580  0.54176433  0.86844581  1
  N  N55  1  0.11368723  0.43061706  0.62110459  1
  N  N56  1  0.87804253  0.53119638  0.39748609  1
  N  N57  1  0.78931976  0.42731457  0.11610719  1
  N  N58  1  0.55574853  0.53935402  0.81413987  1
  N  N59  1  0.44105134  0.42208082  0.62252637  1
  N  N60  1  0.21991343  0.87202042  0.33732634  1
  N  N61  1  0.09698327  0.74366839  0.13075379  1
  N  N62  1  0.91114185  0.83888543  0.86900638  1
  N  N63  1  0.77639453  0.76508347  0.62213104  1
  N  N64  1  0.52779480  0.88832987  0.38567026  1
  N  N65  1  0.48043742  0.73832782  0.05317011  1
  N  N66  1  0.22966656  0.87131440  0.82515725  1
  N  N67  1  0.11078406  0.75832093  0.62606818  1
  N  N68  1  0.91145390  0.85237248  0.38265232  1
  N  N69  1  0.78007495  0.75830247  0.08617310  1
  N  N70  1  0.55852755  0.88031434  0.85738001  1
  N  N71  1  0.44101620  0.75667670  0.57767049  1
