# generated using pymatgen
data_Gd5Al31N36
_symmetry_space_group_name_H-M   'P 1'
_cell_length_a   9.65511297
_cell_length_b   9.65424181
_cell_length_c   10.66884490
_cell_angle_alpha   90.90251116
_cell_angle_beta   90.26566669
_cell_angle_gamma   60.06216757
_symmetry_Int_Tables_number   1
_chemical_formula_structural   Gd5Al31N36
_chemical_formula_sum   'Gd5 Al31 N36'
_cell_volume   861.66489083
_cell_formula_units_Z   1
loop_
 _symmetry_equiv_pos_site_id
 _symmetry_equiv_pos_as_xyz
  1  'x, y, z'
loop_
 _atom_site_type_symbol
 _atom_site_label
 _atom_site_symmetry_multiplicity
 _atom_site_fract_x
 _atom_site_fract_y
 _atom_site_fract_z
 _atom_site_occupancy
  Al  Al0  1  0.11416146  0.08434241  0.41861448  1
  Al  Al1  1  0.22683440  0.21354389  0.06549322  1
  Al  Al2  1  0.89299638  0.20913980  0.65814037  1
  Al  Al3  1  0.43243309  0.08510602  0.33054613  1
  Al  Al4  1  0.54944295  0.20923632  0.15350304  1
  Al  Al5  1  0.11158199  0.09815843  0.89442605  1
  Al  Al6  1  0.22905830  0.19710519  0.58975255  1
  Al  Al7  1  0.89369572  0.21753065  0.15027595  1
  Al  Al8  1  0.43527511  0.09123763  0.82460877  1
  Al  Al9  1  0.54485995  0.21339266  0.65627366  1
  Al  Al10  1  0.22860570  0.54260675  0.14461336  1
  Al  Al11  1  0.77509693  0.43280126  0.89542767  1
  Al  Al12  1  0.88702896  0.53776607  0.59306293  1
  Al  Al13  1  0.43436162  0.43886618  0.39614896  1
  Al  Al14  1  0.56623534  0.53339754  0.14551914  1
  Al  Al15  1  0.10931383  0.42228297  0.82677169  1
  Al  Al16  1  0.22831414  0.53537928  0.65471175  1
  Al  Al17  1  0.77249205  0.43086638  0.40766226  1
  Al  Al18  1  0.89870609  0.54054695  0.06175441  1
  Al  Al19  1  0.43281804  0.43459694  0.90148090  1
  Al  Al20  1  0.55477858  0.53189302  0.65256451  1
  Al  Al21  1  0.12602994  0.75635445  0.41995093  1
  Al  Al22  1  0.77747204  0.75843357  0.82831511  1
  Al  Al23  1  0.89091365  0.86739779  0.59941569  1
  Al  Al24  1  0.44103083  0.75399415  0.41709800  1
  Al  Al25  1  0.56325377  0.87190734  0.06331074  1
  Al  Al26  1  0.11898478  0.75074599  0.89442217  1
  Al  Al27  1  0.22510864  0.86752960  0.65770225  1
  Al  Al28  1  0.88928228  0.86373112  0.06912291  1
  Al  Al29  1  0.44755362  0.75243606  0.89392040  1
  Al  Al30  1  0.55617172  0.87249683  0.58772678  1
  Gd  Gd31  1  0.76810968  0.11398172  0.88802189  1
  Gd  Gd32  1  0.76541816  0.12376316  0.40378192  1
  Gd  Gd33  1  0.11218375  0.41100493  0.33571207  1
  Gd  Gd34  1  0.22630716  0.87635425  0.15620228  1
  Gd  Gd35  1  0.77380134  0.76704054  0.32477861  1
  N  N36  1  0.24167186  0.17531137  0.41372238  1
  N  N37  1  0.09567562  0.11823591  0.07355532  1
  N  N38  1  0.90802325  0.22806093  0.82988719  1
  N  N39  1  0.77298889  0.09727485  0.62932173  1
  N  N40  1  0.51404216  0.22860972  0.33041283  1
  N  N41  1  0.43815200  0.08247284  0.14001808  1
  N  N42  1  0.22765281  0.20841476  0.88564002  1
  N  N43  1  0.10620235  0.08590503  0.59972089  1
  N  N44  1  0.91700905  0.22556439  0.33089027  1
  N  N45  1  0.77888238  0.09286475  0.11706278  1
  N  N46  1  0.51733377  0.23094797  0.83287112  1
  N  N47  1  0.44198579  0.08564665  0.64614387  1
  N  N48  1  0.23124342  0.56444997  0.32841675  1
  N  N49  1  0.11385260  0.42880520  0.12057374  1
  N  N50  1  0.89120711  0.54181828  0.88138442  1
  N  N51  1  0.76953351  0.41781879  0.59111999  1
  N  N52  1  0.56013700  0.53646359  0.33738903  1
  N  N53  1  0.44848560  0.42505985  0.08507332  1
  N  N54  1  0.22457926  0.53978309  0.83475466  1
  N  N55  1  0.10986522  0.41923734  0.64220404  1
  N  N56  1  0.87643972  0.54311113  0.41822894  1
  N  N57  1  0.77849354  0.42604467  0.08128701  1
  N  N58  1  0.55621391  0.53225388  0.83543628  1
  N  N59  1  0.44233858  0.42422868  0.58226223  1
  N  N60  1  0.22536060  0.87000820  0.36952452  1
  N  N61  1  0.11253993  0.74420460  0.07508740  1
  N  N62  1  0.89559264  0.85290512  0.88442504  1
  N  N63  1  0.77600137  0.75913637  0.64764127  1
  N  N64  1  0.53530040  0.88410283  0.40704208  1
  N  N65  1  0.47180918  0.73882735  0.07442442  1
  N  N66  1  0.22395608  0.87197347  0.84216704  1
  N  N67  1  0.12296653  0.74970006  0.60394878  1
  N  N68  1  0.90581762  0.86857519  0.41795043  1
  N  N69  1  0.77964942  0.75825693  0.11188284  1
  N  N70  1  0.55606572  0.87719182  0.88267369  1
  N  N71  1  0.44636813  0.74959692  0.60001991  1
