# generated using pymatgen
data_Gd5Al31N36
_symmetry_space_group_name_H-M   'P 1'
_cell_length_a   9.66326688
_cell_length_b   9.64888902
_cell_length_c   10.58163928
_cell_angle_alpha   90.96897274
_cell_angle_beta   91.02129450
_cell_angle_gamma   60.23957764
_symmetry_Int_Tables_number   1
_chemical_formula_structural   Gd5Al31N36
_chemical_formula_sum   'Gd5 Al31 N36'
_cell_volume   856.32875080
_cell_formula_units_Z   1
loop_
 _symmetry_equiv_pos_site_id
 _symmetry_equiv_pos_as_xyz
  1  'x, y, z'
loop_
 _atom_site_type_symbol
 _atom_site_label
 _atom_site_symmetry_multiplicity
 _atom_site_fract_x
 _atom_site_fract_y
 _atom_site_fract_z
 _atom_site_occupancy
  Al  Al0  1  0.11132811  0.08882973  0.39182151  1
  Al  Al1  1  0.22499063  0.21437493  0.04055439  1
  Al  Al2  1  0.89030688  0.20945136  0.62624183  1
  Al  Al3  1  0.43335440  0.09175452  0.31608360  1
  Al  Al4  1  0.54308881  0.21344668  0.06269710  1
  Al  Al5  1  0.10719374  0.10085829  0.86769994  1
  Al  Al6  1  0.22733634  0.20515095  0.56795555  1
  Al  Al7  1  0.89215784  0.22087143  0.11886816  1
  Al  Al8  1  0.43545097  0.09935667  0.80681629  1
  Al  Al9  1  0.54588627  0.20998510  0.55865525  1
  Al  Al10  1  0.22166224  0.53917884  0.05324697  1
  Al  Al11  1  0.77454341  0.42782573  0.87178399  1
  Al  Al12  1  0.89011442  0.53761644  0.57088046  1
  Al  Al13  1  0.44266711  0.43521084  0.31273162  1
  Al  Al14  1  0.56757123  0.53924927  0.12645398  1
  Al  Al15  1  0.11136805  0.42816676  0.80701951  1
  Al  Al16  1  0.22823874  0.54014536  0.56855701  1
  Al  Al17  1  0.77533048  0.42276576  0.38660488  1
  Al  Al18  1  0.89413858  0.54222302  0.03731398  1
  Al  Al19  1  0.43379808  0.42926423  0.81226444  1
  Al  Al20  1  0.55783769  0.53589895  0.63455026  1
  Al  Al21  1  0.11948806  0.75369087  0.32819054  1
  Al  Al22  1  0.77968284  0.75410640  0.80755691  1
  Al  Al23  1  0.89491984  0.86499151  0.56712809  1
  Al  Al24  1  0.43619530  0.75653587  0.39630792  1
  Al  Al25  1  0.56339976  0.87646081  0.04255977  1
  Al  Al26  1  0.11476452  0.75222900  0.80955305  1
  Al  Al27  1  0.22434261  0.87401886  0.63416817  1
  Al  Al28  1  0.89571884  0.85960014  0.05235882  1
  Al  Al29  1  0.44924813  0.75449132  0.87209782  1
  Al  Al30  1  0.55381334  0.87728188  0.57004753  1
  Gd  Gd31  1  0.76673500  0.09389879  0.82548211  1
  Gd  Gd32  1  0.77682536  0.09119278  0.31942698  1
  Gd  Gd33  1  0.12227784  0.42270028  0.30734366  1
  Gd  Gd34  1  0.22802483  0.87957771  0.12368887  1
  Gd  Gd35  1  0.76712022  0.75372863  0.30496838  1
  N  N36  1  0.23467261  0.18550247  0.38760717  1
  N  N37  1  0.09279083  0.12286036  0.04766003  1
  N  N38  1  0.90053214  0.22290120  0.80471629  1
  N  N39  1  0.77325469  0.09429692  0.59757861  1
  N  N40  1  0.51973622  0.22468778  0.37632642  1
  N  N41  1  0.43990898  0.09078426  0.12343351  1
  N  N42  1  0.22423012  0.20912973  0.85778105  1
  N  N43  1  0.10687637  0.09075378  0.57512799  1
  N  N44  1  0.91086606  0.22184357  0.30562651  1
  N  N45  1  0.77755389  0.09400198  0.09151222  1
  N  N46  1  0.51390376  0.22718083  0.88530335  1
  N  N47  1  0.44537233  0.09541515  0.62696814  1
  N  N48  1  0.24744073  0.55205623  0.39192473  1
  N  N49  1  0.11103067  0.42822899  0.08976749  1
  N  N50  1  0.89046767  0.53792589  0.85569005  1
  N  N51  1  0.76832394  0.42220005  0.56974931  1
  N  N52  1  0.56525767  0.54615453  0.31496162  1
  N  N53  1  0.43837522  0.43025274  0.12675055  1
  N  N54  1  0.22306123  0.54234349  0.87030591  1
  N  N55  1  0.11354854  0.42776522  0.62218286  1
  N  N56  1  0.88977143  0.52671901  0.39359126  1
  N  N57  1  0.77480852  0.42921106  0.05745938  1
  N  N58  1  0.55891760  0.53829326  0.81601005  1
  N  N59  1  0.44242734  0.41989548  0.62983185  1
  N  N60  1  0.22340678  0.87429152  0.33916157  1
  N  N61  1  0.09687230  0.74168917  0.13530164  1
  N  N62  1  0.90962314  0.83860181  0.87333222  1
  N  N63  1  0.77572804  0.76087298  0.62426512  1
  N  N64  1  0.53079402  0.88848867  0.38926056  1
  N  N65  1  0.47376220  0.74176005  0.05245547  1
  N  N66  1  0.22648982  0.87591183  0.82272038  1
  N  N67  1  0.11077162  0.75670363  0.62951095  1
  N  N68  1  0.91684438  0.84685338  0.39166023  1
  N  N69  1  0.77745138  0.75899937  0.09060749  1
  N  N70  1  0.55778830  0.88091235  0.85961014  1
  N  N71  1  0.44241126  0.75308883  0.57935282  1
