# generated using pymatgen
data_Gd5Al31N36
_symmetry_space_group_name_H-M   'P 1'
_cell_length_a   9.67382978
_cell_length_b   9.65199385
_cell_length_c   10.55956591
_cell_angle_alpha   91.01311644
_cell_angle_beta   90.95860059
_cell_angle_gamma   60.23729863
_symmetry_Int_Tables_number   1
_chemical_formula_structural   Gd5Al31N36
_chemical_formula_sum   'Gd5 Al31 N36'
_cell_volume   855.73552900
_cell_formula_units_Z   1
loop_
 _symmetry_equiv_pos_site_id
 _symmetry_equiv_pos_as_xyz
  1  'x, y, z'
loop_
 _atom_site_type_symbol
 _atom_site_label
 _atom_site_symmetry_multiplicity
 _atom_site_fract_x
 _atom_site_fract_y
 _atom_site_fract_z
 _atom_site_occupancy
  Al  Al0  1  0.11548776  0.08924928  0.42115491  1
  Al  Al1  1  0.22224026  0.22087686  0.07877422  1
  Al  Al2  1  0.88522546  0.20574771  0.65928796  1
  Al  Al3  1  0.43121818  0.09666506  0.41591967  1
  Al  Al4  1  0.54440750  0.21309151  0.15578527  1
  Al  Al5  1  0.10705868  0.09804578  0.89125374  1
  Al  Al6  1  0.22013945  0.20013486  0.65492450  1
  Al  Al7  1  0.89340250  0.22434433  0.15718332  1
  Al  Al8  1  0.44064517  0.10309282  0.88007266  1
  Al  Al9  1  0.54808906  0.21098997  0.65383573  1
  Al  Al10  1  0.23244116  0.55062177  0.14508119  1
  Al  Al11  1  0.77453062  0.42776979  0.89948547  1
  Al  Al12  1  0.88502884  0.53618404  0.59274592  1
  Al  Al13  1  0.44330023  0.43341379  0.39857301  1
  Al  Al14  1  0.56692700  0.53837735  0.14838784  1
  Al  Al15  1  0.10505663  0.43603378  0.82923172  1
  Al  Al16  1  0.22628244  0.53943604  0.65222306  1
  Al  Al17  1  0.77271763  0.42023314  0.41430640  1
  Al  Al18  1  0.89977664  0.54826625  0.05990652  1
  Al  Al19  1  0.43934975  0.43305776  0.90221700  1
  Al  Al20  1  0.55391100  0.53119243  0.65768105  1
  Al  Al21  1  0.11851983  0.75267756  0.40802568  1
  Al  Al22  1  0.77776988  0.75133387  0.82562906  1
  Al  Al23  1  0.89402190  0.86376838  0.65534431  1
  Al  Al24  1  0.43341046  0.75290237  0.42627454  1
  Al  Al25  1  0.57211951  0.87320720  0.05166249  1
  Al  Al26  1  0.11625281  0.75427278  0.89933067  1
  Al  Al27  1  0.21823257  0.86749398  0.65456083  1
  Al  Al28  1  0.90480030  0.86783437  0.15049740  1
  Al  Al29  1  0.44456480  0.75448578  0.89072495  1
  Al  Al30  1  0.55324855  0.86888735  0.59969881  1
  Gd  Gd31  1  0.77607738  0.09101363  0.90807910  1
  Gd  Gd32  1  0.77872645  0.09112675  0.39276479  1
  Gd  Gd33  1  0.11748118  0.41432722  0.33883771  1
  Gd  Gd34  1  0.23524706  0.89084740  0.16521039  1
  Gd  Gd35  1  0.74981963  0.74498018  0.31706200  1
  N  N36  1  0.23660250  0.16154451  0.35165997  1
  N  N37  1  0.09377258  0.12809620  0.07021676  1
  N  N38  1  0.89606736  0.21966779  0.83577649  1
  N  N39  1  0.77510050  0.08861986  0.61701439  1
  N  N40  1  0.51555583  0.21915840  0.33673315  1
  N  N41  1  0.44815248  0.10264530  0.06916410  1
  N  N42  1  0.22009396  0.20674621  0.84901856  1
  N  N43  1  0.10588877  0.09229851  0.60505235  1
  N  N44  1  0.90974992  0.21887776  0.33894473  1
  N  N45  1  0.77837715  0.10163964  0.13058188  1
  N  N46  1  0.52789015  0.22655930  0.83154943  1
  N  N47  1  0.43689892  0.10145160  0.60583647  1
  N  N48  1  0.24528484  0.55809848  0.32746319  1
  N  N49  1  0.11600228  0.43798688  0.11487576  1
  N  N50  1  0.89027063  0.53803644  0.88061628  1
  N  N51  1  0.76712033  0.41748107  0.59853125  1
  N  N52  1  0.56171724  0.53922470  0.34091634  1
  N  N53  1  0.45141893  0.43009609  0.08741199  1
  N  N54  1  0.22880542  0.54173410  0.83763902  1
  N  N55  1  0.10589256  0.42762318  0.64289394  1
  N  N56  1  0.88067757  0.52886250  0.41822732  1
  N  N57  1  0.78039371  0.43362132  0.08803398  1
  N  N58  1  0.55655058  0.53347825  0.84065945  1
  N  N59  1  0.44131924  0.42704838  0.58561395  1
  N  N60  1  0.21865302  0.87026023  0.37903714  1
  N  N61  1  0.11091139  0.75993044  0.07934206  1
  N  N62  1  0.90957997  0.84368045  0.83403806  1
  N  N63  1  0.77191470  0.75426557  0.64399389  1
  N  N64  1  0.53155362  0.87687198  0.41897598  1
  N  N65  1  0.47572416  0.74707495  0.07664840  1
  N  N66  1  0.22057288  0.87267294  0.84201165  1
  N  N67  1  0.10829017  0.75441185  0.59250036  1
  N  N68  1  0.91889305  0.84114968  0.32928756  1
  N  N69  1  0.78400410  0.76887218  0.10131348  1
  N  N70  1  0.55669597  0.87414194  0.86856477  1
  N  N71  1  0.43961378  0.74960841  0.61004900  1
