# generated using pymatgen
data_Gd5Al31N36
_symmetry_space_group_name_H-M   'P 1'
_cell_length_a   9.73036042
_cell_length_b   9.69599709
_cell_length_c   10.26210198
_cell_angle_alpha   90.37560300
_cell_angle_beta   90.12995674
_cell_angle_gamma   59.83624013
_symmetry_Int_Tables_number   1
_chemical_formula_structural   Gd5Al31N36
_chemical_formula_sum   'Gd5 Al31 N36'
_cell_volume   837.06600368
_cell_formula_units_Z   1
loop_
 _symmetry_equiv_pos_site_id
 _symmetry_equiv_pos_as_xyz
  1  'x, y, z'
loop_
 _atom_site_type_symbol
 _atom_site_label
 _atom_site_symmetry_multiplicity
 _atom_site_fract_x
 _atom_site_fract_y
 _atom_site_fract_z
 _atom_site_occupancy
  Al  Al0  1  0.11449080  0.09423455  0.40926593  1
  Al  Al1  1  0.22198305  0.20314473  0.13984420  1
  Al  Al2  1  0.89151560  0.20891321  0.65216236  1
  Al  Al3  1  0.43046725  0.08853407  0.39174257  1
  Al  Al4  1  0.54011899  0.21226757  0.14972123  1
  Al  Al5  1  0.11228954  0.10046876  0.89237776  1
  Al  Al6  1  0.22295989  0.20336322  0.65584153  1
  Al  Al7  1  0.89067424  0.21668522  0.15225250  1
  Al  Al8  1  0.43745168  0.09619437  0.89688413  1
  Al  Al9  1  0.54388525  0.20801531  0.64796704  1
  Al  Al10  1  0.22738293  0.54307127  0.13903223  1
  Al  Al11  1  0.77742557  0.43092751  0.89853574  1
  Al  Al12  1  0.88908975  0.53423517  0.64449914  1
  Al  Al13  1  0.44221951  0.43769218  0.39422054  1
  Al  Al14  1  0.56275854  0.53432072  0.14606009  1
  Al  Al15  1  0.11753404  0.42558558  0.89718585  1
  Al  Al16  1  0.22397030  0.53649451  0.65602742  1
  Al  Al17  1  0.77807977  0.42799399  0.39881160  1
  Al  Al18  1  0.89032553  0.53762506  0.11473393  1
  Al  Al19  1  0.43987327  0.43153634  0.89616366  1
  Al  Al20  1  0.55639583  0.53435034  0.64861785  1
  Al  Al21  1  0.12395294  0.75970990  0.40863693  1
  Al  Al22  1  0.77728707  0.75991500  0.89833689  1
  Al  Al23  1  0.89256123  0.86287148  0.65829833  1
  Al  Al24  1  0.44429855  0.75753792  0.40782789  1
  Al  Al25  1  0.55277952  0.87187182  0.13851714  1
  Al  Al26  1  0.11484554  0.75446599  0.89187569  1
  Al  Al27  1  0.22343131  0.87124827  0.64430937  1
  Al  Al28  1  0.89610129  0.86608408  0.14478286  1
  Al  Al29  1  0.44863044  0.75616184  0.89204164  1
  Al  Al30  1  0.55473539  0.87078194  0.65587598  1
  Gd  Gd31  1  0.77321680  0.10088179  0.89573578  1
  Gd  Gd32  1  0.77113431  0.10279197  0.38986142  1
  Gd  Gd33  1  0.13105093  0.42240734  0.38639448  1
  Gd  Gd34  1  0.22404977  0.87303375  0.15789393  1
  Gd  Gd35  1  0.76992576  0.76859800  0.39043941  1
  N  N36  1  0.22780095  0.17316942  0.32321784  1
  N  N37  1  0.09545064  0.12005348  0.07557221  1
  N  N38  1  0.90215856  0.22345723  0.83217624  1
  N  N39  1  0.77650485  0.09231887  0.62027425  1
  N  N40  1  0.50657015  0.22585164  0.33368824  1
  N  N41  1  0.44310469  0.09344780  0.08280643  1
  N  N42  1  0.22411417  0.20424525  0.84100158  1
  N  N43  1  0.11035420  0.09799847  0.59626222  1
  N  N44  1  0.90719575  0.21679700  0.33780846  1
  N  N45  1  0.77224215  0.10059396  0.12397679  1
  N  N46  1  0.51999346  0.22150170  0.83092383  1
  N  N47  1  0.44204756  0.08919414  0.58458986  1
  N  N48  1  0.24333503  0.56637423  0.32138789  1
  N  N49  1  0.12047167  0.42587374  0.09373313  1
  N  N50  1  0.89109098  0.53780319  0.86720378  1
  N  N51  1  0.77563373  0.42608032  0.58913076  1
  N  N52  1  0.56109451  0.53536705  0.33923005  1
  N  N53  1  0.44874857  0.42779783  0.08348308  1
  N  N54  1  0.22581445  0.53712031  0.84058299  1
  N  N55  1  0.11182412  0.42567781  0.61149268  1
  N  N56  1  0.88293230  0.52612274  0.33671407  1
  N  N57  1  0.77578512  0.42630239  0.08618139  1
  N  N58  1  0.55808205  0.53287695  0.83546532  1
  N  N59  1  0.44170340  0.42850490  0.58489524  1
  N  N60  1  0.22503886  0.87387043  0.38053160  1
  N  N61  1  0.10136570  0.75081235  0.07265408  1
  N  N62  1  0.90191592  0.84544040  0.83931497  1
  N  N63  1  0.77685349  0.75692242  0.61230912  1
  N  N64  1  0.52066498  0.87964964  0.32283079  1
  N  N65  1  0.47119308  0.74320662  0.07538375  1
  N  N66  1  0.22282189  0.87221375  0.83855860  1
  N  N67  1  0.11109006  0.75535831  0.59636179  1
  N  N68  1  0.92936527  0.85585603  0.32518320  1
  N  N69  1  0.77474499  0.76784710  0.09306231  1
  N  N70  1  0.55446582  0.87410475  0.84194763  1
  N  N71  1  0.45115167  0.75563771  0.59658355  1
