# generated using pymatgen
data_Gd5Al31N36
_symmetry_space_group_name_H-M   'P 1'
_cell_length_a   9.72718943
_cell_length_b   9.72627604
_cell_length_c   10.30810296
_cell_angle_alpha   90.02751341
_cell_angle_beta   90.47726908
_cell_angle_gamma   59.81988973
_symmetry_Int_Tables_number   1
_chemical_formula_structural   Gd5Al31N36
_chemical_formula_sum   'Gd5 Al31 N36'
_cell_volume   843.01094286
_cell_formula_units_Z   1
loop_
 _symmetry_equiv_pos_site_id
 _symmetry_equiv_pos_as_xyz
  1  'x, y, z'
loop_
 _atom_site_type_symbol
 _atom_site_label
 _atom_site_symmetry_multiplicity
 _atom_site_fract_x
 _atom_site_fract_y
 _atom_site_fract_z
 _atom_site_occupancy
  Al  Al0  1  0.11290528  0.09940909  0.31307559  1
  Al  Al1  1  0.22205558  0.21011771  0.05273302  1
  Al  Al2  1  0.89325597  0.20858185  0.55695929  1
  Al  Al3  1  0.43131419  0.09313619  0.31498421  1
  Al  Al4  1  0.54596087  0.20996988  0.05951820  1
  Al  Al5  1  0.11192010  0.10612832  0.81029170  1
  Al  Al6  1  0.22435877  0.20162029  0.56560532  1
  Al  Al7  1  0.89127409  0.21977417  0.06010790  1
  Al  Al8  1  0.43815203  0.09952253  0.80837331  1
  Al  Al9  1  0.54407939  0.21047653  0.55644780  1
  Al  Al10  1  0.22226947  0.53424677  0.05279502  1
  Al  Al11  1  0.78214949  0.42863189  0.80793877  1
  Al  Al12  1  0.88739504  0.53594930  0.57061363  1
  Al  Al13  1  0.44154538  0.43712299  0.31286784  1
  Al  Al14  1  0.56442123  0.53164117  0.05619862  1
  Al  Al15  1  0.11411608  0.42688596  0.81100625  1
  Al  Al16  1  0.22826834  0.54122676  0.56602301  1
  Al  Al17  1  0.77441049  0.42989904  0.31388380  1
  Al  Al18  1  0.88818158  0.53775008  0.04389602  1
  Al  Al19  1  0.44066333  0.42895425  0.81058900  1
  Al  Al20  1  0.56043037  0.52988755  0.56855972  1
  Al  Al21  1  0.11826608  0.75566631  0.31388217  1
  Al  Al22  1  0.78164825  0.75584286  0.80714145  1
  Al  Al23  1  0.89580642  0.86533528  0.56175564  1
  Al  Al24  1  0.42921603  0.76470210  0.36958635  1
  Al  Al25  1  0.56095509  0.87359062  0.04286542  1
  Al  Al26  1  0.11369640  0.74918100  0.80881135  1
  Al  Al27  1  0.22306023  0.87144265  0.63046057  1
  Al  Al28  1  0.89276450  0.85795696  0.04967752  1
  Al  Al29  1  0.45547824  0.75285932  0.83125814  1
  Al  Al30  1  0.55142960  0.87729013  0.57444873  1
  Gd  Gd31  1  0.77547276  0.10013637  0.81664835  1
  Gd  Gd32  1  0.77639894  0.09636347  0.31432300  1
  Gd  Gd33  1  0.11645283  0.42848240  0.31177196  1
  Gd  Gd34  1  0.21956776  0.87363831  0.07887632  1
  Gd  Gd35  1  0.76202193  0.76147153  0.30711570  1
  N  N36  1  0.22943993  0.18332264  0.38445191  1
  N  N37  1  0.09799607  0.13323094  0.12854184  1
  N  N38  1  0.90757519  0.22274361  0.87758847  1
  N  N39  1  0.77529331  0.09668917  0.58832613  1
  N  N40  1  0.51621661  0.22339748  0.37213309  1
  N  N41  1  0.44510630  0.09046331  0.12147924  1
  N  N42  1  0.22543854  0.20381516  0.86597069  1
  N  N43  1  0.10867125  0.09852584  0.62457848  1
  N  N44  1  0.90237256  0.21943024  0.37485034  1
  N  N45  1  0.78191830  0.09261374  0.08437844  1
  N  N46  1  0.52125953  0.22186935  0.87765423  1
  N  N47  1  0.44333656  0.09797715  0.62478594  1
  N  N48  1  0.24146241  0.55493535  0.38543978  1
  N  N49  1  0.11067219  0.42802988  0.08922057  1
  N  N50  1  0.88928446  0.53753878  0.85734784  1
  N  N51  1  0.77897517  0.42289308  0.62428231  1
  N  N52  1  0.55785743  0.53603922  0.37691559  1
  N  N53  1  0.44439683  0.43049168  0.12183401  1
  N  N54  1  0.22629207  0.53785841  0.86626284  1
  N  N55  1  0.11500118  0.42746405  0.61859593  1
  N  N56  1  0.87543044  0.52704898  0.39010586  1
  N  N57  1  0.77715171  0.43266552  0.12321511  1
  N  N58  1  0.56422933  0.52488772  0.86560165  1
  N  N59  1  0.44795766  0.42453014  0.62495272  1
  N  N60  1  0.21804010  0.87586086  0.32676306  1
  N  N61  1  0.09561316  0.73649359  0.12832669  1
  N  N62  1  0.90659472  0.84264689  0.86685291  1
  N  N63  1  0.77766542  0.76177322  0.61894819  1
  N  N64  1  0.52282115  0.88845033  0.39098907  1
  N  N65  1  0.47509688  0.74721581  0.07457682  1
  N  N66  1  0.22239134  0.87259275  0.83432239  1
  N  N67  1  0.11182477  0.75794866  0.62552519  1
  N  N68  1  0.91636136  0.84890521  0.38280792  1
  N  N69  1  0.77706963  0.75826047  0.08813174  1
  N  N70  1  0.55851491  0.87772026  0.85517764  1
  N  N71  1  0.44841403  0.75426459  0.61583675  1
