# generated using pymatgen
data_Gd5Al31N36
_symmetry_space_group_name_H-M   'P 1'
_cell_length_a   9.65159834
_cell_length_b   9.65082908
_cell_length_c   10.67565411
_cell_angle_alpha   90.90852191
_cell_angle_beta   90.25422670
_cell_angle_gamma   60.07819442
_symmetry_Int_Tables_number   1
_chemical_formula_structural   Gd5Al31N36
_chemical_formula_sum   'Gd5 Al31 N36'
_cell_volume   861.73267741
_cell_formula_units_Z   1
loop_
 _symmetry_equiv_pos_site_id
 _symmetry_equiv_pos_as_xyz
  1  'x, y, z'
loop_
 _atom_site_type_symbol
 _atom_site_label
 _atom_site_symmetry_multiplicity
 _atom_site_fract_x
 _atom_site_fract_y
 _atom_site_fract_z
 _atom_site_occupancy
  Al  Al0  1  0.11435676  0.08415262  0.40592357  1
  Al  Al1  1  0.22677383  0.21344442  0.05252123  1
  Al  Al2  1  0.89298024  0.20918689  0.64538992  1
  Al  Al3  1  0.43255103  0.08500021  0.31787623  1
  Al  Al4  1  0.54936451  0.20916920  0.14084364  1
  Al  Al5  1  0.11149408  0.09810925  0.88152650  1
  Al  Al6  1  0.22907822  0.19708468  0.57705394  1
  Al  Al7  1  0.89364710  0.21759061  0.13746596  1
  Al  Al8  1  0.43525043  0.09116925  0.81180574  1
  Al  Al9  1  0.54485976  0.21337803  0.64361289  1
  Al  Al10  1  0.22839982  0.54253610  0.13184531  1
  Al  Al11  1  0.77493205  0.43294399  0.88250324  1
  Al  Al12  1  0.88711551  0.53791675  0.58031885  1
  Al  Al13  1  0.43401114  0.43885915  0.38336341  1
  Al  Al14  1  0.56607357  0.53331312  0.13262489  1
  Al  Al15  1  0.10916879  0.42229104  0.81401611  1
  Al  Al16  1  0.22818880  0.53537181  0.64195128  1
  Al  Al17  1  0.77246184  0.43130989  0.39484829  1
  Al  Al18  1  0.89848447  0.54061857  0.04883596  1
  Al  Al19  1  0.43258902  0.43466745  0.88867685  1
  Al  Al20  1  0.55475130  0.53186388  0.63967986  1
  Al  Al21  1  0.12605847  0.75630240  0.40711470  1
  Al  Al22  1  0.77741137  0.75866413  0.81554379  1
  Al  Al23  1  0.89088543  0.86772002  0.58643375  1
  Al  Al24  1  0.44125586  0.75389877  0.40428338  1
  Al  Al25  1  0.56313126  0.87182437  0.05056680  1
  Al  Al26  1  0.11884670  0.75083999  0.88180933  1
  Al  Al27  1  0.22513348  0.86741404  0.64485673  1
  Al  Al28  1  0.88913955  0.86382176  0.05642527  1
  Al  Al29  1  0.44742214  0.75244394  0.88108760  1
  Al  Al30  1  0.55633379  0.87246187  0.57490211  1
  Gd  Gd31  1  0.76791865  0.11432568  0.87559216  1
  Gd  Gd32  1  0.76524202  0.12468161  0.39130335  1
  Gd  Gd33  1  0.11177583  0.41043243  0.32244143  1
  Gd  Gd34  1  0.22622499  0.87644266  0.14349698  1
  Gd  Gd35  1  0.77416565  0.76748566  0.31197965  1
  N  N36  1  0.24189236  0.17521196  0.40119771  1
  N  N37  1  0.09552152  0.11812386  0.06053633  1
  N  N38  1  0.90798187  0.22818792  0.81697573  1
  N  N39  1  0.77290551  0.09743926  0.61661062  1
  N  N40  1  0.51412476  0.22854787  0.31759908  1
  N  N41  1  0.43793284  0.08240108  0.12736862  1
  N  N42  1  0.22761789  0.20838708  0.87283034  1
  N  N43  1  0.10617221  0.08578795  0.58688404  1
  N  N44  1  0.91739109  0.22598759  0.31795852  1
  N  N45  1  0.77879361  0.09292003  0.10444427  1
  N  N46  1  0.51726820  0.23098811  0.82006579  1
  N  N47  1  0.44199730  0.08554834  0.63346646  1
  N  N48  1  0.23078341  0.56421808  0.31562839  1
  N  N49  1  0.11364600  0.42874166  0.10751548  1
  N  N50  1  0.89102275  0.54203491  0.86859553  1
  N  N51  1  0.76956919  0.41783212  0.57817106  1
  N  N52  1  0.56009021  0.53636240  0.32454178  1
  N  N53  1  0.44831102  0.42493964  0.07224092  1
  N  N54  1  0.22438024  0.53993281  0.82193731  1
  N  N55  1  0.10978858  0.41914702  0.62962866  1
  N  N56  1  0.87642265  0.54367052  0.40560440  1
  N  N57  1  0.77831155  0.42597975  0.06828534  1
  N  N58  1  0.55609430  0.53227146  0.82249716  1
  N  N59  1  0.44226274  0.42415112  0.56942229  1
  N  N60  1  0.22563234  0.86981918  0.35668598  1
  N  N61  1  0.11247283  0.74419466  0.06240470  1
  N  N62  1  0.89538998  0.85320120  0.87200100  1
  N  N63  1  0.77610860  0.75932747  0.63495758  1
  N  N64  1  0.53565966  0.88399366  0.39429943  1
  N  N65  1  0.47159731  0.73871371  0.06147794  1
  N  N66  1  0.22387582  0.87194179  0.82922717  1
  N  N67  1  0.12295964  0.74960103  0.59098060  1
  N  N68  1  0.90580613  0.86949377  0.40516144  1
  N  N69  1  0.77948966  0.75824647  0.09921870  1
  N  N70  1  0.55600109  0.87722315  0.87001044  1
  N  N71  1  0.44645624  0.74954296  0.58711495  1
