# generated using pymatgen
data_Gd5Al31N36
_symmetry_space_group_name_H-M   'P 1'
_cell_length_a   9.68344638
_cell_length_b   9.65414441
_cell_length_c   10.60389274
_cell_angle_alpha   90.76338118
_cell_angle_beta   90.76726092
_cell_angle_gamma   60.22123376
_symmetry_Int_Tables_number   1
_chemical_formula_structural   Gd5Al31N36
_chemical_formula_sum   'Gd5 Al31 N36'
_cell_volume   860.30368904
_cell_formula_units_Z   1
loop_
 _symmetry_equiv_pos_site_id
 _symmetry_equiv_pos_as_xyz
  1  'x, y, z'
loop_
 _atom_site_type_symbol
 _atom_site_label
 _atom_site_symmetry_multiplicity
 _atom_site_fract_x
 _atom_site_fract_y
 _atom_site_fract_z
 _atom_site_occupancy
  Al  Al0  1  0.11063254  0.09111639  0.39315205  1
  Al  Al1  1  0.22546315  0.21340403  0.04216433  1
  Al  Al2  1  0.89197350  0.20983176  0.62653295  1
  Al  Al3  1  0.43308172  0.09240334  0.31505687  1
  Al  Al4  1  0.54312785  0.21346341  0.06292624  1
  Al  Al5  1  0.10723284  0.09978018  0.87039214  1
  Al  Al6  1  0.22798837  0.20385162  0.56697901  1
  Al  Al7  1  0.89347886  0.22070003  0.11839998  1
  Al  Al8  1  0.43438049  0.09882179  0.80740943  1
  Al  Al9  1  0.54758349  0.20855185  0.55643682  1
  Al  Al10  1  0.22680204  0.53302880  0.04256241  1
  Al  Al11  1  0.77519141  0.42840509  0.87291607  1
  Al  Al12  1  0.88948050  0.53666603  0.56839255  1
  Al  Al13  1  0.44238477  0.43571918  0.31227526  1
  Al  Al14  1  0.56767878  0.53995163  0.12634264  1
  Al  Al15  1  0.10981808  0.42553061  0.80447876  1
  Al  Al16  1  0.23345875  0.52967995  0.57624966  1
  Al  Al17  1  0.77520704  0.42179608  0.38581687  1
  Al  Al18  1  0.89580378  0.54372639  0.03687853  1
  Al  Al19  1  0.43570244  0.42632177  0.81029767  1
  Al  Al20  1  0.55934290  0.53548249  0.63531888  1
  Al  Al21  1  0.12723061  0.76235288  0.41134875  1
  Al  Al22  1  0.77488557  0.75431799  0.80358592  1
  Al  Al23  1  0.88608504  0.86805318  0.57227018  1
  Al  Al24  1  0.43806141  0.75565435  0.39763030  1
  Al  Al25  1  0.56257024  0.87682814  0.04315894  1
  Al  Al26  1  0.11553791  0.75580177  0.84628714  1
  Al  Al27  1  0.22513322  0.87404887  0.63810363  1
  Al  Al28  1  0.88925147  0.86568419  0.03947901  1
  Al  Al29  1  0.44794176  0.75424874  0.87463629  1
  Al  Al30  1  0.55199548  0.87724757  0.56914407  1
  Gd  Gd31  1  0.76157542  0.10153036  0.82223477  1
  Gd  Gd32  1  0.77885258  0.08778774  0.31637473  1
  Gd  Gd33  1  0.12343720  0.42713451  0.30827602  1
  Gd  Gd34  1  0.22467742  0.87484072  0.13267926  1
  Gd  Gd35  1  0.76673243  0.75426013  0.30460817  1
  N  N36  1  0.23402525  0.18719024  0.38636228  1
  N  N37  1  0.09579920  0.11921656  0.05026307  1
  N  N38  1  0.90219172  0.22395290  0.80507036  1
  N  N39  1  0.77281606  0.09605996  0.59733499  1
  N  N40  1  0.52168544  0.22315043  0.37461792  1
  N  N41  1  0.44092231  0.09112733  0.12371384  1
  N  N42  1  0.22355310  0.20798453  0.85900932  1
  N  N43  1  0.10777392  0.09132343  0.57608830  1
  N  N44  1  0.91083515  0.22031287  0.30581112  1
  N  N45  1  0.77750755  0.09528869  0.08903086  1
  N  N46  1  0.51140411  0.22688217  0.88659773  1
  N  N47  1  0.44550477  0.09526444  0.62679351  1
  N  N48  1  0.25205730  0.54646083  0.39759999  1
  N  N49  1  0.11259230  0.42958716  0.09047875  1
  N  N50  1  0.89002064  0.53904816  0.85574644  1
  N  N51  1  0.76886295  0.42185459  0.56919130  1
  N  N52  1  0.56500025  0.54611384  0.31478713  1
  N  N53  1  0.43781079  0.43142393  0.12581593  1
  N  N54  1  0.22431263  0.53379008  0.85828428  1
  N  N55  1  0.11214709  0.42545227  0.62116513  1
  N  N56  1  0.88941725  0.52596760  0.39151756  1
  N  N57  1  0.77604625  0.43024794  0.05824004  1
  N  N58  1  0.55901483  0.53743125  0.81718995  1
  N  N59  1  0.44817256  0.41562709  0.63016422  1
  N  N60  1  0.22127937  0.87266050  0.34907359  1
  N  N61  1  0.10526650  0.75057349  0.06162925  1
  N  N62  1  0.89644976  0.84667307  0.85711010  1
  N  N63  1  0.77250138  0.75858556  0.62188578  1
  N  N64  1  0.52948966  0.88895819  0.38851579  1
  N  N65  1  0.47124257  0.74398117  0.05479737  1
  N  N66  1  0.22570193  0.87492211  0.82111718  1
  N  N67  1  0.11426568  0.75905476  0.60524040  1
  N  N68  1  0.91274149  0.84691608  0.39353959  1
  N  N69  1  0.77911696  0.76125414  0.08976484  1
  N  N70  1  0.55537727  0.88003516  0.85997768  1
  N  N71  1  0.44330528  0.75231123  0.58046239  1
