# generated using pymatgen
data_Gd5Al31N36
_symmetry_space_group_name_H-M   'P 1'
_cell_length_a   9.75438210
_cell_length_b   9.70092892
_cell_length_c   10.29207695
_cell_angle_alpha   90.44314378
_cell_angle_beta   90.17575722
_cell_angle_gamma   59.78233985
_symmetry_Int_Tables_number   1
_chemical_formula_structural   Gd5Al31N36
_chemical_formula_sum   'Gd5 Al31 N36'
_cell_volume   841.54401855
_cell_formula_units_Z   1
loop_
 _symmetry_equiv_pos_site_id
 _symmetry_equiv_pos_as_xyz
  1  'x, y, z'
loop_
 _atom_site_type_symbol
 _atom_site_label
 _atom_site_symmetry_multiplicity
 _atom_site_fract_x
 _atom_site_fract_y
 _atom_site_fract_z
 _atom_site_occupancy
  Al  Al0  1  0.11422228  0.09569642  0.40970540  1
  Al  Al1  1  0.22235923  0.20314127  0.13949460  1
  Al  Al2  1  0.89071975  0.20712412  0.65429948  1
  Al  Al3  1  0.42919156  0.08922526  0.39180362  1
  Al  Al4  1  0.54044675  0.21203363  0.15025681  1
  Al  Al5  1  0.11264214  0.09978113  0.89273006  1
  Al  Al6  1  0.22242332  0.20402342  0.65533446  1
  Al  Al7  1  0.89127345  0.21858723  0.15154738  1
  Al  Al8  1  0.43767514  0.09581092  0.89705854  1
  Al  Al9  1  0.54474134  0.20680472  0.64759618  1
  Al  Al10  1  0.22811247  0.54367454  0.13904751  1
  Al  Al11  1  0.77674167  0.42930736  0.89695326  1
  Al  Al12  1  0.88910364  0.53155506  0.59606378  1
  Al  Al13  1  0.44266453  0.43773794  0.39474058  1
  Al  Al14  1  0.56319581  0.53450021  0.14563958  1
  Al  Al15  1  0.11997915  0.42414395  0.89433083  1
  Al  Al16  1  0.22414393  0.53537456  0.65570143  1
  Al  Al17  1  0.77269486  0.42562744  0.40351298  1
  Al  Al18  1  0.88974695  0.54288897  0.08089589  1
  Al  Al19  1  0.44048154  0.43039462  0.89647544  1
  Al  Al20  1  0.55531829  0.53322900  0.65029571  1
  Al  Al21  1  0.12504379  0.76003863  0.40919441  1
  Al  Al22  1  0.77767001  0.75822489  0.87833311  1
  Al  Al23  1  0.89415972  0.86310824  0.65696318  1
  Al  Al24  1  0.44339856  0.75789770  0.40806656  1
  Al  Al25  1  0.55382427  0.87123813  0.13888926  1
  Al  Al26  1  0.11586696  0.75383503  0.89255390  1
  Al  Al27  1  0.22344514  0.87092679  0.64478399  1
  Al  Al28  1  0.89654114  0.86511276  0.14676485  1
  Al  Al29  1  0.44822404  0.75587916  0.89298706  1
  Al  Al30  1  0.55219835  0.87126517  0.65486464  1
  Gd  Gd31  1  0.77340152  0.09858263  0.89824096  1
  Gd  Gd32  1  0.77283563  0.10500950  0.38843794  1
  Gd  Gd33  1  0.13385706  0.42260582  0.38208661  1
  Gd  Gd34  1  0.22425824  0.87368123  0.15850998  1
  Gd  Gd35  1  0.76448812  0.77826528  0.39100617  1
  N  N36  1  0.22743938  0.17348017  0.32268281  1
  N  N37  1  0.09609536  0.12037424  0.07529275  1
  N  N38  1  0.90203477  0.22092739  0.83406102  1
  N  N39  1  0.77677747  0.09081248  0.61873988  1
  N  N40  1  0.50709441  0.22522484  0.33415264  1
  N  N41  1  0.44338289  0.09350549  0.08263817  1
  N  N42  1  0.22452323  0.20337721  0.84074304  1
  N  N43  1  0.10950101  0.09821782  0.59673616  1
  N  N44  1  0.90780352  0.22037795  0.33581021  1
  N  N45  1  0.77282954  0.10107684  0.12556197  1
  N  N46  1  0.52112568  0.22004701  0.83069053  1
  N  N47  1  0.44173003  0.08879597  0.58403775  1
  N  N48  1  0.24518530  0.56759876  0.32103774  1
  N  N49  1  0.12040386  0.42664107  0.09752856  1
  N  N50  1  0.89303844  0.53664773  0.88721207  1
  N  N51  1  0.77049340  0.41991316  0.59314058  1
  N  N52  1  0.56112138  0.53544324  0.33827654  1
  N  N53  1  0.44918869  0.42741122  0.08337537  1
  N  N54  1  0.22670181  0.53640078  0.84061470  1
  N  N55  1  0.11560488  0.42369671  0.61046901  1
  N  N56  1  0.88131248  0.52983075  0.40053247  1
  N  N57  1  0.77584144  0.42804147  0.08772945  1
  N  N58  1  0.55746847  0.53283685  0.83660553  1
  N  N59  1  0.44149575  0.42782521  0.58502983  1
  N  N60  1  0.22443212  0.87520823  0.38049901  1
  N  N61  1  0.10121525  0.75143832  0.07297929  1
  N  N62  1  0.90455079  0.84487120  0.83752584  1
  N  N63  1  0.77505580  0.75898479  0.61842202  1
  N  N64  1  0.51792734  0.88019866  0.32297553  1
  N  N65  1  0.47093101  0.74372385  0.07554583  1
  N  N66  1  0.22330040  0.87157798  0.83881053  1
  N  N67  1  0.11240355  0.75457760  0.59622060  1
  N  N68  1  0.93076988  0.85662591  0.32711824  1
  N  N69  1  0.77461058  0.76868283  0.10142655  1
  N  N70  1  0.55258783  0.87407860  0.84058790  1
  N  N71  1  0.45057566  0.75463941  0.59636382  1
