# generated using pymatgen
data_Gd5Al31N36
_symmetry_space_group_name_H-M   'P 1'
_cell_length_a   9.67464011
_cell_length_b   9.65651493
_cell_length_c   10.59265145
_cell_angle_alpha   90.90019857
_cell_angle_beta   90.98163072
_cell_angle_gamma   60.35945732
_symmetry_Int_Tables_number   1
_chemical_formula_structural   Gd5Al31N36
_chemical_formula_sum   'Gd5 Al31 N36'
_cell_volume   859.95048235
_cell_formula_units_Z   1
loop_
 _symmetry_equiv_pos_site_id
 _symmetry_equiv_pos_as_xyz
  1  'x, y, z'
loop_
 _atom_site_type_symbol
 _atom_site_label
 _atom_site_symmetry_multiplicity
 _atom_site_fract_x
 _atom_site_fract_y
 _atom_site_fract_z
 _atom_site_occupancy
  Al  Al0  1  0.12067270  0.07872983  0.40383412  1
  Al  Al1  1  0.22651130  0.21545916  0.03734387  1
  Al  Al2  1  0.89005790  0.20177626  0.57366786  1
  Al  Al3  1  0.43349762  0.09242085  0.31300710  1
  Al  Al4  1  0.54450687  0.21421061  0.05547200  1
  Al  Al5  1  0.11615342  0.09487581  0.86190905  1
  Al  Al6  1  0.23011376  0.20646019  0.57078609  1
  Al  Al7  1  0.88040366  0.21987664  0.03392453  1
  Al  Al8  1  0.43729372  0.09874779  0.80369602  1
  Al  Al9  1  0.54662065  0.21024145  0.55124253  1
  Al  Al10  1  0.22242920  0.53898483  0.05233808  1
  Al  Al11  1  0.77853133  0.43168777  0.81540954  1
  Al  Al12  1  0.89235536  0.54342311  0.57647966  1
  Al  Al13  1  0.43757027  0.43318533  0.30954653  1
  Al  Al14  1  0.57229727  0.53676271  0.12892003  1
  Al  Al15  1  0.11578178  0.42921283  0.80553137  1
  Al  Al16  1  0.22622159  0.54181495  0.56176019  1
  Al  Al17  1  0.76476090  0.43323216  0.39893480  1
  Al  Al18  1  0.88963270  0.53722784  0.03234060  1
  Al  Al19  1  0.43398032  0.42922032  0.80859780  1
  Al  Al20  1  0.54775584  0.54382454  0.63316277  1
  Al  Al21  1  0.11457104  0.75171349  0.31689433  1
  Al  Al22  1  0.78089817  0.75673696  0.80585428  1
  Al  Al23  1  0.89596531  0.86626475  0.55741368  1
  Al  Al24  1  0.43229393  0.75790830  0.39510381  1
  Al  Al25  1  0.56586246  0.87673956  0.04054855  1
  Al  Al26  1  0.11599718  0.75026634  0.80730759  1
  Al  Al27  1  0.22839124  0.87125927  0.63850241  1
  Al  Al28  1  0.89681955  0.85897566  0.04641277  1
  Al  Al29  1  0.45245457  0.75174835  0.87528341  1
  Al  Al30  1  0.55483267  0.87876314  0.56625826  1
  Gd  Gd31  1  0.76483907  0.08891929  0.80848332  1
  Gd  Gd32  1  0.78088193  0.09892128  0.30351117  1
  Gd  Gd33  1  0.10940241  0.41867292  0.30418336  1
  Gd  Gd34  1  0.22989800  0.88114701  0.12167313  1
  Gd  Gd35  1  0.76338058  0.75447536  0.29980250  1
  N  N36  1  0.23535744  0.18335920  0.38864591  1
  N  N37  1  0.10056915  0.12018275  0.04650509  1
  N  N38  1  0.89493389  0.21667996  0.84482774  1
  N  N39  1  0.77256066  0.09372818  0.59060611  1
  N  N40  1  0.52431313  0.22087724  0.37054064  1
  N  N41  1  0.44198209  0.09175473  0.11974903  1
  N  N42  1  0.22579056  0.20966782  0.85299933  1
  N  N43  1  0.11763159  0.08707606  0.59025258  1
  N  N44  1  0.90104868  0.21673691  0.38982796  1
  N  N45  1  0.77901788  0.09429942  0.07761926  1
  N  N46  1  0.51558241  0.22694830  0.87895203  1
  N  N47  1  0.44905470  0.09595680  0.62403833  1
  N  N48  1  0.23752436  0.54867832  0.38309952  1
  N  N49  1  0.11064183  0.42912879  0.08553618  1
  N  N50  1  0.89238916  0.53797201  0.84800161  1
  N  N51  1  0.77167577  0.43019672  0.60234808  1
  N  N52  1  0.55959194  0.54424613  0.32313010  1
  N  N53  1  0.44065833  0.42966598  0.12431653  1
  N  N54  1  0.22523634  0.54174854  0.86877115  1
  N  N55  1  0.11615620  0.42953702  0.62099703  1
  N  N56  1  0.88042930  0.53328854  0.40074227  1
  N  N57  1  0.77941921  0.43117073  0.07618864  1
  N  N58  1  0.55412166  0.54122238  0.81346675  1
  N  N59  1  0.44134797  0.42166445  0.62312313  1
  N  N60  1  0.21977226  0.87248871  0.33780580  1
  N  N61  1  0.09727679  0.74329285  0.13071338  1
  N  N62  1  0.91207583  0.83780171  0.86947786  1
  N  N63  1  0.77604816  0.76707324  0.62252418  1
  N  N64  1  0.52835849  0.88842279  0.38546907  1
  N  N65  1  0.47771193  0.74109035  0.05485139  1
  N  N66  1  0.23084256  0.86986775  0.82462385  1
  N  N67  1  0.11101624  0.75778374  0.62574489  1
  N  N68  1  0.91109554  0.85323710  0.38130747  1
  N  N69  1  0.78005920  0.75767738  0.08528103  1
  N  N70  1  0.55866597  0.88066029  0.85759624  1
  N  N71  1  0.44153065  0.75642898  0.57723430  1
