# generated using pymatgen
data_Gd5Al31N36
_symmetry_space_group_name_H-M   'P 1'
_cell_length_a   9.71737780
_cell_length_b   9.71678233
_cell_length_c   10.38475498
_cell_angle_alpha   90.04398776
_cell_angle_beta   90.54899737
_cell_angle_gamma   59.84960723
_symmetry_Int_Tables_number   1
_chemical_formula_structural   Gd5Al31N36
_chemical_formula_sum   'Gd5 Al31 N36'
_cell_volume   847.83942460
_cell_formula_units_Z   1
loop_
 _symmetry_equiv_pos_site_id
 _symmetry_equiv_pos_as_xyz
  1  'x, y, z'
loop_
 _atom_site_type_symbol
 _atom_site_label
 _atom_site_symmetry_multiplicity
 _atom_site_fract_x
 _atom_site_fract_y
 _atom_site_fract_z
 _atom_site_occupancy
  Al  Al0  1  0.11448810  0.09767871  0.31324476  1
  Al  Al1  1  0.22079159  0.21093614  0.05120652  1
  Al  Al2  1  0.89402888  0.20742503  0.55611489  1
  Al  Al3  1  0.43233383  0.09178873  0.31419795  1
  Al  Al4  1  0.54518397  0.21025741  0.05777724  1
  Al  Al5  1  0.11272946  0.10523402  0.81035743  1
  Al  Al6  1  0.22384067  0.20105554  0.56525590  1
  Al  Al7  1  0.89074625  0.22001977  0.05871788  1
  Al  Al8  1  0.43778616  0.09904116  0.80674778  1
  Al  Al9  1  0.54304181  0.21035680  0.55470984  1
  Al  Al10  1  0.21977868  0.53560446  0.05171043  1
  Al  Al11  1  0.78496639  0.42823785  0.80710287  1
  Al  Al12  1  0.88892609  0.53517490  0.56923444  1
  Al  Al13  1  0.44134690  0.43779897  0.31468481  1
  Al  Al14  1  0.56328285  0.53202049  0.08445591  1
  Al  Al15  1  0.11370899  0.42717846  0.81001120  1
  Al  Al16  1  0.22630446  0.54209352  0.56543815  1
  Al  Al17  1  0.77751847  0.42801325  0.31612261  1
  Al  Al18  1  0.88835354  0.53854859  0.04271517  1
  Al  Al19  1  0.43776584  0.42888251  0.80992039  1
  Al  Al20  1  0.55819586  0.53220928  0.59933151  1
  Al  Al21  1  0.11870982  0.75636504  0.31447246  1
  Al  Al22  1  0.78037266  0.75674262  0.80522567  1
  Al  Al23  1  0.89571656  0.86626203  0.56128840  1
  Al  Al24  1  0.42946215  0.76121614  0.39035607  1
  Al  Al25  1  0.56238830  0.87740488  0.04219169  1
  Al  Al26  1  0.11325072  0.74980803  0.80926397  1
  Al  Al27  1  0.22547083  0.87000163  0.63478894  1
  Al  Al28  1  0.89091070  0.85942261  0.04877241  1
  Al  Al29  1  0.45635112  0.75083135  0.86608929  1
  Al  Al30  1  0.55177571  0.87870122  0.56914552  1
  Gd  Gd31  1  0.77436703  0.10131243  0.81475300  1
  Gd  Gd32  1  0.77504994  0.09763509  0.31358707  1
  Gd  Gd33  1  0.11982518  0.42578764  0.31028674  1
  Gd  Gd34  1  0.21809735  0.87451363  0.08751570  1
  Gd  Gd35  1  0.76584097  0.75882945  0.30707023  1
  N  N36  1  0.23059015  0.18153968  0.38510409  1
  N  N37  1  0.09686973  0.13441593  0.12849902  1
  N  N38  1  0.90787571  0.22234549  0.87774051  1
  N  N39  1  0.77410857  0.09748438  0.58818085  1
  N  N40  1  0.51491034  0.22399631  0.37168328  1
  N  N41  1  0.44366667  0.09103731  0.12057820  1
  N  N42  1  0.22521032  0.20424581  0.86575548  1
  N  N43  1  0.10876066  0.09769255  0.62575237  1
  N  N44  1  0.90464673  0.21671620  0.37534473  1
  N  N45  1  0.78062122  0.09389042  0.08433068  1
  N  N46  1  0.52070965  0.22194916  0.87734783  1
  N  N47  1  0.44310887  0.09716996  0.62413939  1
  N  N48  1  0.24052851  0.55596078  0.38626986  1
  N  N49  1  0.10994652  0.42839546  0.08891492  1
  N  N50  1  0.88945123  0.53879517  0.85769276  1
  N  N51  1  0.78312411  0.42113157  0.62368306  1
  N  N52  1  0.55930753  0.53720741  0.35624746  1
  N  N53  1  0.44107646  0.43007729  0.12164664  1
  N  N54  1  0.22468283  0.53859467  0.86695087  1
  N  N55  1  0.11506103  0.42701709  0.61930237  1
  N  N56  1  0.88050441  0.52413378  0.39050398  1
  N  N57  1  0.78087681  0.43196942  0.12338612  1
  N  N58  1  0.56231972  0.52809766  0.83998943  1
  N  N59  1  0.44421861  0.42227639  0.62470719  1
  N  N60  1  0.22371790  0.87299645  0.32022050  1
  N  N61  1  0.09318990  0.73753705  0.12847734  1
  N  N62  1  0.90544199  0.84390243  0.86718245  1
  N  N63  1  0.77707985  0.76156385  0.61821862  1
  N  N64  1  0.52716250  0.88828092  0.38651291  1
  N  N65  1  0.47518044  0.74501308  0.05284748  1
  N  N66  1  0.22611197  0.87067214  0.83337296  1
  N  N67  1  0.11108372  0.75838849  0.62706861  1
  N  N68  1  0.91698904  0.85094447  0.38355334  1
  N  N69  1  0.77585489  0.75881599  0.08902181  1
  N  N70  1  0.55859943  0.87899955  0.85496012  1
  N  N71  1  0.43977749  0.75790923  0.58343381  1
