# generated using pymatgen
data_Gd5Al31N36
_symmetry_space_group_name_H-M   'P 1'
_cell_length_a   9.65798691
_cell_length_b   9.65717318
_cell_length_c   10.66240211
_cell_angle_alpha   90.94912857
_cell_angle_beta   90.29916174
_cell_angle_gamma   60.05702626
_symmetry_Int_Tables_number   1
_chemical_formula_structural   Gd5Al31N36
_chemical_formula_sum   'Gd5 Al31 N36'
_cell_volume   861.60719821
_cell_formula_units_Z   1
loop_
 _symmetry_equiv_pos_site_id
 _symmetry_equiv_pos_as_xyz
  1  'x, y, z'
loop_
 _atom_site_type_symbol
 _atom_site_label
 _atom_site_symmetry_multiplicity
 _atom_site_fract_x
 _atom_site_fract_y
 _atom_site_fract_z
 _atom_site_occupancy
  Al  Al0  1  0.11435498  0.08423763  0.40611234  1
  Al  Al1  1  0.22662067  0.21397490  0.05264080  1
  Al  Al2  1  0.89257301  0.20893798  0.64499590  1
  Al  Al3  1  0.43236074  0.08501465  0.31799383  1
  Al  Al4  1  0.54886119  0.20960473  0.14094256  1
  Al  Al5  1  0.11138599  0.09855078  0.88136869  1
  Al  Al6  1  0.22903053  0.19725983  0.57722423  1
  Al  Al7  1  0.89384232  0.21817909  0.13767788  1
  Al  Al8  1  0.43539641  0.09157731  0.81177227  1
  Al  Al9  1  0.54534243  0.21324922  0.64296332  1
  Al  Al10  1  0.22865971  0.54275612  0.13222235  1
  Al  Al11  1  0.77495783  0.43298803  0.88235818  1
  Al  Al12  1  0.88690838  0.53776194  0.58075226  1
  Al  Al13  1  0.43483893  0.43839540  0.38384097  1
  Al  Al14  1  0.56616311  0.53353957  0.13287285  1
  Al  Al15  1  0.10928615  0.42259976  0.81402866  1
  Al  Al16  1  0.22816931  0.53567892  0.64203637  1
  Al  Al17  1  0.77247495  0.43028715  0.39553346  1
  Al  Al18  1  0.89863799  0.54073018  0.04886576  1
  Al  Al19  1  0.43280068  0.43474415  0.88866837  1
  Al  Al20  1  0.55453145  0.53209396  0.64004038  1
  Al  Al21  1  0.12634116  0.75572016  0.40695936  1
  Al  Al22  1  0.77737753  0.75886057  0.81569717  1
  Al  Al23  1  0.89073846  0.86725197  0.58580563  1
  Al  Al24  1  0.44077547  0.75383514  0.40455535  1
  Al  Al25  1  0.56313820  0.87216030  0.05053941  1
  Al  Al26  1  0.11876800  0.75105500  0.88213102  1
  Al  Al27  1  0.22481527  0.86767506  0.64509246  1
  Al  Al28  1  0.88930426  0.86381041  0.05718121  1
  Al  Al29  1  0.44738162  0.75269757  0.88121243  1
  Al  Al30  1  0.55593534  0.87261227  0.57516911  1
  Gd  Gd31  1  0.76807368  0.11430278  0.87628612  1
  Gd  Gd32  1  0.76664294  0.12164012  0.38850642  1
  Gd  Gd33  1  0.11223459  0.41101475  0.32328984  1
  Gd  Gd34  1  0.22630121  0.87704905  0.14338074  1
  Gd  Gd35  1  0.77316546  0.76566898  0.31205632  1
  N  N36  1  0.24162796  0.17528930  0.40104916  1
  N  N37  1  0.09541801  0.11884499  0.06061033  1
  N  N38  1  0.90765098  0.22802629  0.81696281  1
  N  N39  1  0.77305854  0.09712452  0.61490418  1
  N  N40  1  0.51399973  0.22835740  0.31798137  1
  N  N41  1  0.43788179  0.08274202  0.12722215  1
  N  N42  1  0.22762505  0.20869281  0.87267597  1
  N  N43  1  0.10624072  0.08603824  0.58722455  1
  N  N44  1  0.91737194  0.22543364  0.31830356  1
  N  N45  1  0.77877088  0.09313640  0.10544616  1
  N  N46  1  0.51781491  0.23099455  0.81990068  1
  N  N47  1  0.44204109  0.08584655  0.63329761  1
  N  N48  1  0.23195939  0.56370040  0.31592053  1
  N  N49  1  0.11367935  0.42917618  0.10787804  1
  N  N50  1  0.89105874  0.54200878  0.86839773  1
  N  N51  1  0.76930675  0.41810115  0.57896782  1
  N  N52  1  0.56030637  0.53620783  0.32486263  1
  N  N53  1  0.44845459  0.42512127  0.07238551  1
  N  N54  1  0.22441101  0.54012563  0.82224314  1
  N  N55  1  0.10989008  0.41945216  0.62948007  1
  N  N56  1  0.87659225  0.54225744  0.40586474  1
  N  N57  1  0.77836731  0.42632887  0.06846450  1
  N  N58  1  0.55594806  0.53256724  0.82289279  1
  N  N59  1  0.44213351  0.42453352  0.56982774  1
  N  N60  1  0.22513471  0.86991423  0.35678647  1
  N  N61  1  0.11255765  0.74450702  0.06297217  1
  N  N62  1  0.89535208  0.85330599  0.87238237  1
  N  N63  1  0.77589533  0.75938851  0.63489924  1
  N  N64  1  0.53480946  0.88405141  0.39441008  1
  N  N65  1  0.47183864  0.73902432  0.06187501  1
  N  N66  1  0.22371182  0.87217711  0.82969601  1
  N  N67  1  0.12270235  0.74992100  0.59110796  1
  N  N68  1  0.90627133  0.86656607  0.40421274  1
  N  N69  1  0.77948441  0.75838615  0.09911918  1
  N  N70  1  0.55586233  0.87746744  0.86986623  1
  N  N71  1  0.44610637  0.74977383  0.58756255  1
