# generated using pymatgen
data_Gd5Al31N36
_symmetry_space_group_name_H-M   'P 1'
_cell_length_a   9.61018369
_cell_length_b   9.58494153
_cell_length_c   10.70660110
_cell_angle_alpha   90.68411309
_cell_angle_beta   90.79333377
_cell_angle_gamma   60.47935032
_symmetry_Int_Tables_number   1
_chemical_formula_structural   Gd5Al31N36
_chemical_formula_sum   'Gd5 Al31 N36'
_cell_volume   858.08797932
_cell_formula_units_Z   1
loop_
 _symmetry_equiv_pos_site_id
 _symmetry_equiv_pos_as_xyz
  1  'x, y, z'
loop_
 _atom_site_type_symbol
 _atom_site_label
 _atom_site_symmetry_multiplicity
 _atom_site_fract_x
 _atom_site_fract_y
 _atom_site_fract_z
 _atom_site_occupancy
  Al  Al0  1  0.11174560  0.08740722  0.42624156  1
  Al  Al1  1  0.23186554  0.21825497  0.05576696  1
  Al  Al2  1  0.88391638  0.20474145  0.66229991  1
  Al  Al3  1  0.43774528  0.09749451  0.39538035  1
  Al  Al4  1  0.54589620  0.21102644  0.16031675  1
  Al  Al5  1  0.10685752  0.09770374  0.89368201  1
  Al  Al6  1  0.21690329  0.20593649  0.60251850  1
  Al  Al7  1  0.89685924  0.22347876  0.15619699  1
  Al  Al8  1  0.43602467  0.09516469  0.82280664  1
  Al  Al9  1  0.55252566  0.21264113  0.65490350  1
  Al  Al10  1  0.23249394  0.54710042  0.14275854  1
  Al  Al11  1  0.77463614  0.42649250  0.89996090  1
  Al  Al12  1  0.88577909  0.53786685  0.59267095  1
  Al  Al13  1  0.44017327  0.43742367  0.40094334  1
  Al  Al14  1  0.56809131  0.53727367  0.14606083  1
  Al  Al15  1  0.10828316  0.42692666  0.82698370  1
  Al  Al16  1  0.22450527  0.53966090  0.65338350  1
  Al  Al17  1  0.77308475  0.42375826  0.41545574  1
  Al  Al18  1  0.90210826  0.54845292  0.05580637  1
  Al  Al19  1  0.43894843  0.43115402  0.90202397  1
  Al  Al20  1  0.55366118  0.53198370  0.65803276  1
  Al  Al21  1  0.11687208  0.75215888  0.40687925  1
  Al  Al22  1  0.77827042  0.75018877  0.82566219  1
  Al  Al23  1  0.89285083  0.86507087  0.65517067  1
  Al  Al24  1  0.43126733  0.75644004  0.42645188  1
  Al  Al25  1  0.56796120  0.88227778  0.05099690  1
  Al  Al26  1  0.11567983  0.75226650  0.89806772  1
  Al  Al27  1  0.21705964  0.86777008  0.65839756  1
  Al  Al28  1  0.90503654  0.86709432  0.15086645  1
  Al  Al29  1  0.44678896  0.75338900  0.89312644  1
  Al  Al30  1  0.55388922  0.86827055  0.59940262  1
  Gd  Gd31  1  0.77251432  0.08817788  0.91473236  1
  Gd  Gd32  1  0.78522040  0.09117087  0.39164313  1
  Gd  Gd33  1  0.10852676  0.41228918  0.32680145  1
  Gd  Gd34  1  0.23633636  0.88436843  0.15873044  1
  Gd  Gd35  1  0.74265229  0.74637135  0.30945944  1
  N  N36  1  0.23049961  0.18872970  0.42647930  1
  N  N37  1  0.09647568  0.12502982  0.07362088  1
  N  N38  1  0.89422939  0.21703598  0.83737061  1
  N  N39  1  0.77399198  0.08876020  0.61236654  1
  N  N40  1  0.52145191  0.22332957  0.34072834  1
  N  N41  1  0.44625136  0.09333892  0.10945950  1
  N  N42  1  0.22376842  0.20841339  0.87482301  1
  N  N43  1  0.09982588  0.08842183  0.60695083  1
  N  N44  1  0.91708386  0.22426320  0.33675177  1
  N  N45  1  0.78017394  0.10190614  0.13507208  1
  N  N46  1  0.53060421  0.22629954  0.83162265  1
  N  N47  1  0.44055909  0.09126802  0.64081987  1
  N  N48  1  0.24087320  0.55566213  0.32651254  1
  N  N49  1  0.11813616  0.43371598  0.11115656  1
  N  N50  1  0.89157068  0.53629309  0.87981978  1
  N  N51  1  0.76745515  0.41709880  0.59688838  1
  N  N52  1  0.56084112  0.54350068  0.34085644  1
  N  N53  1  0.45231047  0.42784469  0.08737235  1
  N  N54  1  0.22868092  0.54053142  0.83599008  1
  N  N55  1  0.10470616  0.42615093  0.64678997  1
  N  N56  1  0.87993566  0.53678395  0.41928911  1
  N  N57  1  0.78168967  0.43286942  0.08725923  1
  N  N58  1  0.55685410  0.53367194  0.83922588  1
  N  N59  1  0.43958307  0.42760320  0.58532238  1
  N  N60  1  0.21806553  0.87450746  0.37271505  1
  N  N61  1  0.10974689  0.75694113  0.07644640  1
  N  N62  1  0.90938090  0.84557176  0.83119134  1
  N  N63  1  0.77080722  0.75371454  0.64613001  1
  N  N64  1  0.53026799  0.88468892  0.42139047  1
  N  N65  1  0.47834573  0.74470825  0.07431598  1
  N  N66  1  0.22241560  0.87141104  0.84280700  1
  N  N67  1  0.10780201  0.75456311  0.59003462  1
  N  N68  1  0.91642201  0.84001347  0.32747318  1
  N  N69  1  0.78469181  0.76935279  0.09801200  1
  N  N70  1  0.55711740  0.87610018  0.87152269  1
  N  N71  1  0.43789335  0.75017754  0.60675795  1
