# generated using pymatgen
data_Gd5Al31N36
_symmetry_space_group_name_H-M   'P 1'
_cell_length_a   9.61074535
_cell_length_b   9.59673210
_cell_length_c   10.68865460
_cell_angle_alpha   90.60210311
_cell_angle_beta   90.73197163
_cell_angle_gamma   60.41655005
_symmetry_Int_Tables_number   1
_chemical_formula_structural   Gd5Al31N36
_chemical_formula_sum   'Gd5 Al31 N36'
_cell_volume   857.23770941
_cell_formula_units_Z   1
loop_
 _symmetry_equiv_pos_site_id
 _symmetry_equiv_pos_as_xyz
  1  'x, y, z'
loop_
 _atom_site_type_symbol
 _atom_site_label
 _atom_site_symmetry_multiplicity
 _atom_site_fract_x
 _atom_site_fract_y
 _atom_site_fract_z
 _atom_site_occupancy
  Al  Al0  1  0.11072640  0.08961561  0.42029351  1
  Al  Al1  1  0.22651563  0.21719843  0.06561544  1
  Al  Al2  1  0.88757473  0.20497140  0.65975507  1
  Al  Al3  1  0.43028716  0.09053620  0.33330709  1
  Al  Al4  1  0.54836952  0.21526477  0.15787667  1
  Al  Al5  1  0.10989377  0.09826430  0.89481048  1
  Al  Al6  1  0.22636120  0.20191749  0.59033603  1
  Al  Al7  1  0.89346341  0.22244545  0.15568830  1
  Al  Al8  1  0.43571604  0.09501117  0.82355502  1
  Al  Al9  1  0.55064992  0.21191896  0.65465299  1
  Al  Al10  1  0.23104952  0.54641252  0.14187971  1
  Al  Al11  1  0.77560965  0.42748776  0.89756711  1
  Al  Al12  1  0.88526632  0.53624831  0.59520114  1
  Al  Al13  1  0.44224529  0.43784346  0.39886228  1
  Al  Al14  1  0.56768661  0.53657985  0.14602828  1
  Al  Al15  1  0.11156594  0.42366883  0.82620073  1
  Al  Al16  1  0.22538897  0.53944775  0.65162953  1
  Al  Al17  1  0.77319657  0.42208862  0.41521271  1
  Al  Al18  1  0.90114964  0.54647927  0.05752660  1
  Al  Al19  1  0.43956061  0.43221346  0.89982857  1
  Al  Al20  1  0.55298982  0.53450055  0.65569948  1
  Al  Al21  1  0.11803896  0.75601454  0.40611661  1
  Al  Al22  1  0.77583705  0.75244178  0.82602794  1
  Al  Al23  1  0.89317437  0.86427507  0.65434943  1
  Al  Al24  1  0.43274021  0.75875652  0.42127570  1
  Al  Al25  1  0.56539613  0.87878835  0.05909039  1
  Al  Al26  1  0.11579568  0.75128772  0.89508905  1
  Al  Al27  1  0.21893236  0.87017497  0.65464812  1
  Al  Al28  1  0.90176369  0.86659152  0.14863971  1
  Al  Al29  1  0.44658347  0.75503609  0.89365799  1
  Al  Al30  1  0.55143863  0.87625926  0.58939305  1
  Gd  Gd31  1  0.77783171  0.08937373  0.90803839  1
  Gd  Gd32  1  0.77839754  0.09160028  0.39477944  1
  Gd  Gd33  1  0.11245276  0.41982942  0.33491363  1
  Gd  Gd34  1  0.23106450  0.87917646  0.15699843  1
  Gd  Gd35  1  0.75010162  0.74247021  0.31422526  1
  N  N36  1  0.23798119  0.18270347  0.41366190  1
  N  N37  1  0.09391559  0.12204201  0.07523705  1
  N  N38  1  0.89986063  0.21913125  0.83440546  1
  N  N39  1  0.77460318  0.08918669  0.61511348  1
  N  N40  1  0.52012241  0.22852514  0.33437631  1
  N  N41  1  0.43876173  0.08632804  0.14112319  1
  N  N42  1  0.22840939  0.20910046  0.88600032  1
  N  N43  1  0.10250518  0.09039645  0.60125233  1
  N  N44  1  0.91088675  0.22230022  0.33598814  1
  N  N45  1  0.77776535  0.09978484  0.12810311  1
  N  N46  1  0.53144309  0.22579189  0.83370308  1
  N  N47  1  0.43974732  0.09005826  0.64682670  1
  N  N48  1  0.24387100  0.56175083  0.32448928  1
  N  N49  1  0.11534523  0.43263293  0.11885428  1
  N  N50  1  0.89338804  0.53719196  0.87976929  1
  N  N51  1  0.76677155  0.41698532  0.59705751  1
  N  N52  1  0.56276941  0.54399118  0.33894489  1
  N  N53  1  0.45017294  0.42813466  0.08422002  1
  N  N54  1  0.22936740  0.53992308  0.83376315  1
  N  N55  1  0.10865857  0.42168500  0.64408520  1
  N  N56  1  0.88210870  0.53202326  0.42244249  1
  N  N57  1  0.78024221  0.43091874  0.08459654  1
  N  N58  1  0.55687945  0.53608500  0.83738625  1
  N  N59  1  0.44049571  0.42740227  0.58420616  1
  N  N60  1  0.21879996  0.87625692  0.37001557  1
  N  N61  1  0.10567632  0.75371098  0.07281421  1
  N  N62  1  0.90935906  0.84422804  0.82992142  1
  N  N63  1  0.76781450  0.75563416  0.64449178  1
  N  N64  1  0.52782461  0.89129608  0.41123671  1
  N  N65  1  0.47446062  0.74337820  0.07490384  1
  N  N66  1  0.22274225  0.87270717  0.84094082  1
  N  N67  1  0.10856112  0.75547383  0.58905240  1
  N  N68  1  0.91818557  0.84224564  0.32625327  1
  N  N69  1  0.78233545  0.76586628  0.10252722  1
  N  N70  1  0.55686178  0.88022596  0.88057255  1
  N  N71  1  0.43964755  0.75254066  0.60177878  1
