# generated using pymatgen
data_Gd5Al31N36
_symmetry_space_group_name_H-M   'P 1'
_cell_length_a   9.65808147
_cell_length_b   9.64675293
_cell_length_c   10.63375441
_cell_angle_alpha   90.76624539
_cell_angle_beta   90.50988102
_cell_angle_gamma   60.07052411
_symmetry_Int_Tables_number   1
_chemical_formula_structural   Gd5Al31N36
_chemical_formula_sum   'Gd5 Al31 N36'
_cell_volume   858.53340508
_cell_formula_units_Z   1
loop_
 _symmetry_equiv_pos_site_id
 _symmetry_equiv_pos_as_xyz
  1  'x, y, z'
loop_
 _atom_site_type_symbol
 _atom_site_label
 _atom_site_symmetry_multiplicity
 _atom_site_fract_x
 _atom_site_fract_y
 _atom_site_fract_z
 _atom_site_occupancy
  Al  Al0  1  0.11246424  0.08717697  0.41845229  1
  Al  Al1  1  0.22628517  0.21534732  0.06645566  1
  Al  Al2  1  0.89058598  0.20717621  0.65959258  1
  Al  Al3  1  0.43082518  0.08804040  0.33118732  1
  Al  Al4  1  0.54771578  0.21378746  0.15502504  1
  Al  Al5  1  0.11108088  0.09794913  0.89498134  1
  Al  Al6  1  0.22768873  0.19917071  0.58995402  1
  Al  Al7  1  0.89335142  0.22066993  0.15313093  1
  Al  Al8  1  0.43558667  0.09312592  0.82503683  1
  Al  Al9  1  0.54754894  0.21262569  0.65625460  1
  Al  Al10  1  0.22845810  0.54581566  0.14248919  1
  Al  Al11  1  0.77546480  0.42983436  0.89785305  1
  Al  Al12  1  0.88624766  0.53532692  0.59376436  1
  Al  Al13  1  0.43924329  0.43830296  0.39718533  1
  Al  Al14  1  0.56714918  0.53527331  0.14655845  1
  Al  Al15  1  0.11080910  0.42333753  0.82685837  1
  Al  Al16  1  0.22625497  0.53807750  0.65224872  1
  Al  Al17  1  0.77359824  0.42410114  0.41093274  1
  Al  Al18  1  0.89954303  0.54528460  0.06145904  1
  Al  Al19  1  0.43696823  0.43322973  0.90079599  1
  Al  Al20  1  0.55421938  0.53260464  0.65442026  1
  Al  Al21  1  0.11910276  0.75940544  0.40941455  1
  Al  Al22  1  0.77567173  0.75314654  0.82608907  1
  Al  Al23  1  0.89455143  0.86456127  0.65488746  1
  Al  Al24  1  0.43671025  0.75573436  0.41924422  1
  Al  Al25  1  0.56512240  0.87514292  0.06229815  1
  Al  Al26  1  0.11417178  0.75155002  0.89461818  1
  Al  Al27  1  0.22177669  0.86879233  0.65531664  1
  Al  Al28  1  0.89784261  0.87139882  0.14508327  1
  Al  Al29  1  0.44699162  0.75337886  0.89389804  1
  Al  Al30  1  0.55196412  0.87470140  0.58877744  1
  Gd  Gd31  1  0.77611076  0.09608178  0.89909233  1
  Gd  Gd32  1  0.77241334  0.10511190  0.40125317  1
  Gd  Gd33  1  0.11570454  0.41650735  0.33695160  1
  Gd  Gd34  1  0.22875472  0.87617402  0.15613193  1
  Gd  Gd35  1  0.76029757  0.75268710  0.32438984  1
  N  N36  1  0.23907359  0.17910044  0.41283684  1
  N  N37  1  0.09563295  0.11962092  0.07565552  1
  N  N38  1  0.90331166  0.22304769  0.83360031  1
  N  N39  1  0.77479626  0.09180780  0.62268707  1
  N  N40  1  0.51686810  0.22840499  0.33262030  1
  N  N41  1  0.43854637  0.08518758  0.13996579  1
  N  N42  1  0.22760488  0.20874802  0.88585956  1
  N  N43  1  0.10451847  0.08835902  0.60067356  1
  N  N44  1  0.91257335  0.22190936  0.33396546  1
  N  N45  1  0.77607334  0.10085785  0.12052628  1
  N  N46  1  0.52570491  0.22710267  0.83488501  1
  N  N47  1  0.44071740  0.08824348  0.64680951  1
  N  N48  1  0.23942263  0.56404031  0.32597467  1
  N  N49  1  0.11469080  0.43094082  0.12044606  1
  N  N50  1  0.89234806  0.53949063  0.88151954  1
  N  N51  1  0.76819995  0.41683154  0.59440706  1
  N  N52  1  0.56201275  0.53960725  0.33844618  1
  N  N53  1  0.44811118  0.42861166  0.08493419  1
  N  N54  1  0.22759038  0.53958815  0.83432139  1
  N  N55  1  0.10942964  0.42072285  0.64272089  1
  N  N56  1  0.88229092  0.53201911  0.41981589  1
  N  N57  1  0.77962657  0.42956870  0.08408798  1
  N  N58  1  0.55691689  0.53380799  0.83703163  1
  N  N59  1  0.44138780  0.42591219  0.58371596  1
  N  N60  1  0.22337636  0.87322549  0.37000485  1
  N  N61  1  0.10326686  0.75182598  0.07286309  1
  N  N62  1  0.90709956  0.84538443  0.83180721  1
  N  N63  1  0.76986311  0.75598120  0.64240440  1
  N  N64  1  0.52752087  0.88932733  0.40983163  1
  N  N65  1  0.47344738  0.74147488  0.07526107  1
  N  N66  1  0.22294515  0.87178106  0.84184796  1
  N  N67  1  0.11169541  0.75490502  0.59267038  1
  N  N68  1  0.91739920  0.85899511  0.33340682  1
  N  N69  1  0.78114058  0.76433149  0.11024558  1
  N  N70  1  0.55710885  0.87796405  0.88181468  1
  N  N71  1  0.44261455  0.75042602  0.60161198  1
