# generated using pymatgen
data_Gd5Al31N36
_symmetry_space_group_name_H-M   'P 1'
_cell_length_a   9.76312927
_cell_length_b   9.70354092
_cell_length_c   10.31213407
_cell_angle_alpha   90.41870652
_cell_angle_beta   90.15172505
_cell_angle_gamma   59.75173789
_symmetry_Int_Tables_number   1
_chemical_formula_structural   Gd5Al31N36
_chemical_formula_sum   'Gd5 Al31 N36'
_cell_volume   843.90713188
_cell_formula_units_Z   1
loop_
 _symmetry_equiv_pos_site_id
 _symmetry_equiv_pos_as_xyz
  1  'x, y, z'
loop_
 _atom_site_type_symbol
 _atom_site_label
 _atom_site_symmetry_multiplicity
 _atom_site_fract_x
 _atom_site_fract_y
 _atom_site_fract_z
 _atom_site_occupancy
  Al  Al0  1  0.11370780  0.09544267  0.40828271  1
  Al  Al1  1  0.22048708  0.20572445  0.13992084  1
  Al  Al2  1  0.88982258  0.20679344  0.65513688  1
  Al  Al3  1  0.42918164  0.08940818  0.39113592  1
  Al  Al4  1  0.53918921  0.21267099  0.14973864  1
  Al  Al5  1  0.11199051  0.09948929  0.89359561  1
  Al  Al6  1  0.22349402  0.19999802  0.65379896  1
  Al  Al7  1  0.89125291  0.21995508  0.15068720  1
  Al  Al8  1  0.43797111  0.09468985  0.89719292  1
  Al  Al9  1  0.54439488  0.20726631  0.64790163  1
  Al  Al10  1  0.22579811  0.54365134  0.13940973  1
  Al  Al11  1  0.77613047  0.42909819  0.89819130  1
  Al  Al12  1  0.88942808  0.52823513  0.59459354  1
  Al  Al13  1  0.44310061  0.43887281  0.39337709  1
  Al  Al14  1  0.56469778  0.53473972  0.14456117  1
  Al  Al15  1  0.11516148  0.42614930  0.86442628  1
  Al  Al16  1  0.22671329  0.53757534  0.65428760  1
  Al  Al17  1  0.77386001  0.42482378  0.40413112  1
  Al  Al18  1  0.89209548  0.54753377  0.07906902  1
  Al  Al19  1  0.44037137  0.43022359  0.89727994  1
  Al  Al20  1  0.55493032  0.53298736  0.65077207  1
  Al  Al21  1  0.12654378  0.76154332  0.40867489  1
  Al  Al22  1  0.78021789  0.75045211  0.82880840  1
  Al  Al23  1  0.89766112  0.86654600  0.65216516  1
  Al  Al24  1  0.44272994  0.75818471  0.40734789  1
  Al  Al25  1  0.55588494  0.86988526  0.14158817  1
  Al  Al26  1  0.11483676  0.75383547  0.89312508  1
  Al  Al27  1  0.22323569  0.87105313  0.64599628  1
  Al  Al28  1  0.89647808  0.86494256  0.15110922  1
  Al  Al29  1  0.44911579  0.75620573  0.89307640  1
  Al  Al30  1  0.54493731  0.87472453  0.65015796  1
  Gd  Gd31  1  0.77379317  0.09471840  0.89934554  1
  Gd  Gd32  1  0.77030506  0.10853648  0.38778331  1
  Gd  Gd33  1  0.13672957  0.42143472  0.38039265  1
  Gd  Gd34  1  0.22476185  0.87319341  0.15697677  1
  Gd  Gd35  1  0.76848372  0.77235895  0.38008265  1
  N  N36  1  0.22761465  0.17312574  0.32371532  1
  N  N37  1  0.09639797  0.12037286  0.07534460  1
  N  N38  1  0.90109285  0.22004291  0.83474675  1
  N  N39  1  0.77566561  0.09174341  0.61740903  1
  N  N40  1  0.50455776  0.22708015  0.33324099  1
  N  N41  1  0.44374025  0.09235075  0.08246698  1
  N  N42  1  0.22527822  0.20022893  0.83867356  1
  N  N43  1  0.10844297  0.09758750  0.59573684  1
  N  N44  1  0.90761353  0.22112677  0.33468925  1
  N  N45  1  0.77207802  0.10115558  0.12590116  1
  N  N46  1  0.52120869  0.21968144  0.83064550  1
  N  N47  1  0.44057689  0.09051028  0.58264155  1
  N  N48  1  0.24568254  0.56940411  0.32156285  1
  N  N49  1  0.11690958  0.42903104  0.11140009  1
  N  N50  1  0.89085745  0.53999881  0.88511151  1
  N  N51  1  0.76924119  0.41873592  0.59412945  1
  N  N52  1  0.56298814  0.53555176  0.33765227  1
  N  N53  1  0.44831307  0.42861504  0.08340495  1
  N  N54  1  0.22792528  0.53782315  0.83866607  1
  N  N55  1  0.11415664  0.42477322  0.62292638  1
  N  N56  1  0.88604837  0.52530752  0.40904940  1
  N  N57  1  0.77705953  0.42921273  0.08617690  1
  N  N58  1  0.55704300  0.53320682  0.83660004  1
  N  N59  1  0.44185670  0.42757617  0.58392211  1
  N  N60  1  0.22524100  0.87587000  0.37801406  1
  N  N61  1  0.09885464  0.75255169  0.07309851  1
  N  N62  1  0.90650597  0.84349165  0.83249777  1
  N  N63  1  0.77518517  0.75633914  0.62855312  1
  N  N64  1  0.51694540  0.88109312  0.32666085  1
  N  N65  1  0.47211884  0.74455316  0.07522455  1
  N  N66  1  0.22307636  0.87136705  0.83927861  1
  N  N67  1  0.11440378  0.75492446  0.59457251  1
  N  N68  1  0.93109013  0.86169841  0.33217937  1
  N  N69  1  0.77833783  0.76194017  0.13370372  1
  N  N70  1  0.55112369  0.87436064  0.83597947  1
  N  N71  1  0.44874847  0.75419698  0.59522948  1
