# generated using pymatgen
data_Gd5Al31N36
_symmetry_space_group_name_H-M   'P 1'
_cell_length_a   9.66575424
_cell_length_b   9.63245192
_cell_length_c   10.66089222
_cell_angle_alpha   90.84731731
_cell_angle_beta   90.91012788
_cell_angle_gamma   60.31160245
_symmetry_Int_Tables_number   1
_chemical_formula_structural   Gd5Al31N36
_chemical_formula_sum   'Gd5 Al31 N36'
_cell_volume   862.15093736
_cell_formula_units_Z   1
loop_
 _symmetry_equiv_pos_site_id
 _symmetry_equiv_pos_as_xyz
  1  'x, y, z'
loop_
 _atom_site_type_symbol
 _atom_site_label
 _atom_site_symmetry_multiplicity
 _atom_site_fract_x
 _atom_site_fract_y
 _atom_site_fract_z
 _atom_site_occupancy
  Al  Al0  1  0.11111360  0.09019497  0.39570525  1
  Al  Al1  1  0.22574273  0.21379712  0.04316002  1
  Al  Al2  1  0.89272720  0.20978097  0.62732560  1
  Al  Al3  1  0.43279695  0.09245399  0.31731873  1
  Al  Al4  1  0.54523609  0.21255878  0.06384769  1
  Al  Al5  1  0.10661310  0.09954643  0.87189184  1
  Al  Al6  1  0.22816454  0.20366188  0.56921195  1
  Al  Al7  1  0.89381190  0.22069247  0.12075182  1
  Al  Al8  1  0.43402326  0.09905781  0.80927491  1
  Al  Al9  1  0.54640101  0.20942654  0.55666757  1
  Al  Al10  1  0.22964451  0.52996770  0.04548459  1
  Al  Al11  1  0.77541502  0.42734860  0.87443908  1
  Al  Al12  1  0.88942463  0.53731076  0.57041816  1
  Al  Al13  1  0.44220707  0.43531048  0.31268987  1
  Al  Al14  1  0.56864060  0.53976241  0.12794130  1
  Al  Al15  1  0.11033128  0.42658060  0.80565884  1
  Al  Al16  1  0.23259430  0.53112697  0.57521768  1
  Al  Al17  1  0.77518148  0.42201597  0.38829883  1
  Al  Al18  1  0.89636869  0.54383461  0.03753842  1
  Al  Al19  1  0.43517263  0.42677316  0.81145097  1
  Al  Al20  1  0.55913422  0.53575645  0.63721970  1
  Al  Al21  1  0.12642658  0.76190677  0.41036298  1
  Al  Al22  1  0.77632050  0.75430277  0.80514026  1
  Al  Al23  1  0.88679864  0.86693594  0.56879534  1
  Al  Al24  1  0.43686621  0.75572237  0.40037546  1
  Al  Al25  1  0.56343753  0.87684544  0.04364689  1
  Al  Al26  1  0.11666297  0.75720693  0.86949813  1
  Al  Al27  1  0.22278941  0.87177528  0.64081957  1
  Al  Al28  1  0.88655453  0.86923484  0.04259105  1
  Al  Al29  1  0.44826602  0.75402446  0.87578263  1
  Al  Al30  1  0.55161087  0.87735273  0.57125726  1
  Gd  Gd31  1  0.76014568  0.09949409  0.81692928  1
  Gd  Gd32  1  0.77813948  0.08951932  0.31929676  1
  Gd  Gd33  1  0.12133056  0.42570272  0.30992084  1
  Gd  Gd34  1  0.22688088  0.87635961  0.13496349  1
  Gd  Gd35  1  0.76327528  0.75321241  0.30449924  1
  N  N36  1  0.23455658  0.18660775  0.38957069  1
  N  N37  1  0.09566953  0.11941444  0.05124411  1
  N  N38  1  0.90136615  0.22266551  0.80581509  1
  N  N39  1  0.77334308  0.09570472  0.59450530  1
  N  N40  1  0.52085205  0.22358043  0.37618863  1
  N  N41  1  0.44127022  0.09068239  0.12529720  1
  N  N42  1  0.22317434  0.20843805  0.86087828  1
  N  N43  1  0.10839580  0.09026938  0.57799165  1
  N  N44  1  0.91221474  0.22133612  0.30737300  1
  N  N45  1  0.77783932  0.09570569  0.09353725  1
  N  N46  1  0.51277269  0.22653954  0.88840436  1
  N  N47  1  0.44596399  0.09550304  0.62934152  1
  N  N48  1  0.25143455  0.54513002  0.39597962  1
  N  N49  1  0.11275493  0.42997777  0.09293794  1
  N  N50  1  0.89057100  0.53866142  0.85739494  1
  N  N51  1  0.76853182  0.42202716  0.57087009  1
  N  N52  1  0.56520121  0.54653314  0.31601185  1
  N  N53  1  0.43937001  0.43059209  0.12745159  1
  N  N54  1  0.22510392  0.53357533  0.86205528  1
  N  N55  1  0.11236002  0.42585834  0.62317070  1
  N  N56  1  0.88862657  0.52723868  0.39493819  1
  N  N57  1  0.77662883  0.42999394  0.05934509  1
  N  N58  1  0.55941038  0.53737210  0.81820287  1
  N  N59  1  0.44706808  0.41617687  0.63159010  1
  N  N60  1  0.22101529  0.87254638  0.34868893  1
  N  N61  1  0.10751461  0.75199904  0.05712811  1
  N  N62  1  0.89615846  0.84787108  0.86153672  1
  N  N63  1  0.77287299  0.75948692  0.62400754  1
  N  N64  1  0.52847487  0.88944536  0.39159478  1
  N  N65  1  0.47190729  0.74370165  0.05560059  1
  N  N66  1  0.22481813  0.87365305  0.82351270  1
  N  N67  1  0.11385692  0.76016775  0.59590103  1
  N  N68  1  0.91100098  0.84585924  0.38971980  1
  N  N69  1  0.77997178  0.76096827  0.09119784  1
  N  N70  1  0.55593288  0.87995230  0.86147116  1
  N  N71  1  0.44216473  0.75249522  0.58243651  1
