# generated using pymatgen
data_Gd5Al31N36
_symmetry_space_group_name_H-M   'P 1'
_cell_length_a   9.67504027
_cell_length_b   9.66036000
_cell_length_c   10.62601307
_cell_angle_alpha   90.79848965
_cell_angle_beta   90.40704863
_cell_angle_gamma   60.02007999
_symmetry_Int_Tables_number   1
_chemical_formula_structural   Gd5Al31N36
_chemical_formula_sum   'Gd5 Al31 N36'
_cell_volume   860.18670954
_cell_formula_units_Z   1
loop_
 _symmetry_equiv_pos_site_id
 _symmetry_equiv_pos_as_xyz
  1  'x, y, z'
loop_
 _atom_site_type_symbol
 _atom_site_label
 _atom_site_symmetry_multiplicity
 _atom_site_fract_x
 _atom_site_fract_y
 _atom_site_fract_z
 _atom_site_occupancy
  Al  Al0  1  0.11257352  0.08612384  0.41794313  1
  Al  Al1  1  0.22659031  0.21473927  0.06665278  1
  Al  Al2  1  0.89195015  0.20891722  0.65921299  1
  Al  Al3  1  0.43108414  0.08715873  0.33102066  1
  Al  Al4  1  0.54772024  0.21223713  0.15410427  1
  Al  Al5  1  0.11175568  0.09805744  0.89511448  1
  Al  Al6  1  0.22804898  0.19832130  0.58955193  1
  Al  Al7  1  0.89435611  0.21934695  0.15232912  1
  Al  Al8  1  0.43515310  0.09254409  0.82492169  1
  Al  Al9  1  0.54543640  0.21375351  0.65635346  1
  Al  Al10  1  0.22864879  0.54449782  0.14328100  1
  Al  Al11  1  0.77542043  0.43118837  0.89733749  1
  Al  Al12  1  0.88612102  0.53613180  0.59234407  1
  Al  Al13  1  0.43798736  0.43850815  0.39594207  1
  Al  Al14  1  0.56703654  0.53480187  0.14703362  1
  Al  Al15  1  0.11043797  0.42295100  0.82671067  1
  Al  Al16  1  0.22808916  0.53646763  0.65354184  1
  Al  Al17  1  0.77321902  0.42530511  0.40895109  1
  Al  Al18  1  0.90007118  0.54222529  0.06201725  1
  Al  Al19  1  0.43572780  0.43374269  0.90135659  1
  Al  Al20  1  0.55460794  0.53242027  0.65350155  1
  Al  Al21  1  0.12164096  0.75868565  0.41654465  1
  Al  Al22  1  0.77561868  0.75378048  0.82583657  1
  Al  Al23  1  0.89462964  0.86485381  0.64863341  1
  Al  Al24  1  0.43820058  0.75508379  0.41808069  1
  Al  Al25  1  0.56329619  0.87468668  0.06259119  1
  Al  Al26  1  0.11594553  0.75149018  0.89101889  1
  Al  Al27  1  0.22400122  0.86834312  0.65641488  1
  Al  Al28  1  0.89227721  0.87094045  0.11209359  1
  Al  Al29  1  0.44749230  0.75292618  0.89396240  1
  Al  Al30  1  0.55325733  0.87390744  0.58770598  1
  Gd  Gd31  1  0.77300416  0.10336428  0.89013380  1
  Gd  Gd32  1  0.76898452  0.11164899  0.40616296  1
  Gd  Gd33  1  0.11540633  0.41628677  0.33836561  1
  Gd  Gd34  1  0.22760654  0.87532694  0.15637447  1
  Gd  Gd35  1  0.76535467  0.75821145  0.32582012  1
  N  N36  1  0.23919780  0.17797628  0.41251243  1
  N  N37  1  0.09650266  0.11862985  0.07561977  1
  N  N38  1  0.90580403  0.22569240  0.83272435  1
  N  N39  1  0.77365906  0.09536197  0.62838746  1
  N  N40  1  0.51507392  0.22852155  0.33122050  1
  N  N41  1  0.43868445  0.08426385  0.13933863  1
  N  N42  1  0.22751565  0.20872422  0.88592148  1
  N  N43  1  0.10521435  0.08762743  0.60050297  1
  N  N44  1  0.91369681  0.22164921  0.33254510  1
  N  N45  1  0.77720977  0.09750944  0.11552458  1
  N  N46  1  0.52142105  0.22896470  0.83446975  1
  N  N47  1  0.44106924  0.08749221  0.64629842  1
  N  N48  1  0.23718047  0.56585356  0.32624754  1
  N  N49  1  0.11456100  0.43031286  0.12125829  1
  N  N50  1  0.89231502  0.54024932  0.88207547  1
  N  N51  1  0.76859412  0.41724845  0.59319020  1
  N  N52  1  0.56130066  0.53818272  0.33800954  1
  N  N53  1  0.44836257  0.42780989  0.08519078  1
  N  N54  1  0.22736177  0.53852875  0.83499741  1
  N  N55  1  0.10958337  0.42055512  0.64199702  1
  N  N56  1  0.88011708  0.53400189  0.41801328  1
  N  N57  1  0.77941018  0.42837682  0.08368972  1
  N  N58  1  0.55697802  0.53304960  0.83677161  1
  N  N59  1  0.44197870  0.42528351  0.58299832  1
  N  N60  1  0.22420887  0.87188137  0.36987160  1
  N  N61  1  0.10563789  0.74886964  0.07077186  1
  N  N62  1  0.90511216  0.84788954  0.83551895  1
  N  N63  1  0.77058949  0.75581834  0.64364808  1
  N  N64  1  0.52894917  0.88771263  0.40843901  1
  N  N65  1  0.47296375  0.74076980  0.07558292  1
  N  N66  1  0.22406609  0.87204263  0.84248920  1
  N  N67  1  0.11802742  0.75242019  0.59977637  1
  N  N68  1  0.91042516  0.86140508  0.37639122  1
  N  N69  1  0.78068751  0.76241047  0.10907087  1
  N  N70  1  0.55685527  0.87759793  0.88213492  1
  N  N71  1  0.44413580  0.75012637  0.60119770  1
