# generated using pymatgen
data_Gd5Al31N36
_symmetry_space_group_name_H-M   'P 1'
_cell_length_a   9.66561984
_cell_length_b   9.63231826
_cell_length_c   10.66110238
_cell_angle_alpha   90.84813795
_cell_angle_beta   90.91145285
_cell_angle_gamma   60.31276681
_symmetry_Int_Tables_number   1
_chemical_formula_structural   Gd5Al31N36
_chemical_formula_sum   'Gd5 Al31 N36'
_cell_volume   862.15362985
_cell_formula_units_Z   1
loop_
 _symmetry_equiv_pos_site_id
 _symmetry_equiv_pos_as_xyz
  1  'x, y, z'
loop_
 _atom_site_type_symbol
 _atom_site_label
 _atom_site_symmetry_multiplicity
 _atom_site_fract_x
 _atom_site_fract_y
 _atom_site_fract_z
 _atom_site_occupancy
  Al  Al0  1  0.11114468  0.09016843  0.40246260  1
  Al  Al1  1  0.22577520  0.21377058  0.04991003  1
  Al  Al2  1  0.89275855  0.20975291  0.63407704  1
  Al  Al3  1  0.43282776  0.09242993  0.32407665  1
  Al  Al4  1  0.54527471  0.21252948  0.07060131  1
  Al  Al5  1  0.10663940  0.09951713  0.87864362  1
  Al  Al6  1  0.22819598  0.20363757  0.57596927  1
  Al  Al7  1  0.89384314  0.22066338  0.12750588  1
  Al  Al8  1  0.43405169  0.09903264  0.81602908  1
  Al  Al9  1  0.54643008  0.20940289  0.56341672  1
  Al  Al10  1  0.22968198  0.52994144  0.05224297  1
  Al  Al11  1  0.77544592  0.42731480  0.88119516  1
  Al  Al12  1  0.88945608  0.53728564  0.57717980  1
  Al  Al13  1  0.44223844  0.43528459  0.31944000  1
  Al  Al14  1  0.56867527  0.53973483  0.13469303  1
  Al  Al15  1  0.11036525  0.42655473  0.81241649  1
  Al  Al16  1  0.23262409  0.53109975  0.58196318  1
  Al  Al17  1  0.77521251  0.42199041  0.39505748  1
  Al  Al18  1  0.89640413  0.54380765  0.04428844  1
  Al  Al19  1  0.43520404  0.42674711  0.81820536  1
  Al  Al20  1  0.55916485  0.53573048  0.64397408  1
  Al  Al21  1  0.12645370  0.76187572  0.41710525  1
  Al  Al22  1  0.77635749  0.75427293  0.81189994  1
  Al  Al23  1  0.88682953  0.86690308  0.57553201  1
  Al  Al24  1  0.43689412  0.75569828  0.40713409  1
  Al  Al25  1  0.56347473  0.87681941  0.05039552  1
  Al  Al26  1  0.11669866  0.75718176  0.87626666  1
  Al  Al27  1  0.22281795  0.87174587  0.64757282  1
  Al  Al28  1  0.88659103  0.86921365  0.04935094  1
  Al  Al29  1  0.44829880  0.75399651  0.88253648  1
  Al  Al30  1  0.55164363  0.87732675  0.57801698  1
  Gd  Gd31  1  0.76016840  0.09945443  0.82365888  1
  Gd  Gd32  1  0.77817096  0.08949262  0.32605333  1
  Gd  Gd33  1  0.12135069  0.42567278  0.31667077  1
  Gd  Gd34  1  0.22692434  0.87634056  0.14172235  1
  Gd  Gd35  1  0.76329160  0.75317687  0.31124431  1
  N  N36  1  0.23459025  0.18658304  0.39633119  1
  N  N37  1  0.09569722  0.11938815  0.05799273  1
  N  N38  1  0.90138984  0.22263137  0.81256588  1
  N  N39  1  0.77337668  0.09567309  0.60124292  1
  N  N40  1  0.52088480  0.22355784  0.38294276  1
  N  N41  1  0.44130283  0.09065269  0.13205188  1
  N  N42  1  0.22320422  0.20841052  0.86763211  1
  N  N43  1  0.10842681  0.09024222  0.58474617  1
  N  N44  1  0.91224928  0.22131423  0.31412674  1
  N  N45  1  0.77787166  0.09567849  0.10030134  1
  N  N46  1  0.51280852  0.22651299  0.89516071  1
  N  N47  1  0.44599752  0.09547792  0.63609951  1
  N  N48  1  0.25146494  0.54509757  0.40272676  1
  N  N49  1  0.11278946  0.42995019  0.09969090  1
  N  N50  1  0.89060496  0.53862976  0.86414924  1
  N  N51  1  0.76856072  0.42199956  0.57762516  1
  N  N52  1  0.56523354  0.54651372  0.32276413  1
  N  N53  1  0.43940781  0.43056171  0.13420668  1
  N  N54  1  0.22513927  0.53355026  0.86881754  1
  N  N55  1  0.11239217  0.42583204  0.62993154  1
  N  N56  1  0.88865724  0.52721735  0.40170398  1
  N  N57  1  0.77666225  0.42996504  0.06609787  1
  N  N58  1  0.55944337  0.53734685  0.82495405  1
  N  N59  1  0.44709592  0.41614982  0.63834532  1
  N  N60  1  0.22104394  0.87252117  0.35544242  1
  N  N61  1  0.10755545  0.75197545  0.06388953  1
  N  N62  1  0.89619542  0.84784432  0.86830254  1
  N  N63  1  0.77290577  0.75946207  0.63076976  1
  N  N64  1  0.52850552  0.88942388  0.39835697  1
  N  N65  1  0.47194379  0.74367239  0.06235035  1
  N  N66  1  0.22485048  0.87362424  0.83026318  1
  N  N67  1  0.11388576  0.76013985  0.60263846  1
  N  N68  1  0.91102593  0.84582348  0.39646056  1
  N  N69  1  0.78000868  0.76093999  0.09794862  1
  N  N70  1  0.55596722  0.87992709  0.86822447  1
  N  N71  1  0.44219400  0.75246849  0.58919066  1
