# generated using pymatgen
data_Gd5Al31N36
_symmetry_space_group_name_H-M   'P 1'
_cell_length_a   9.71238019
_cell_length_b   9.70554273
_cell_length_c   10.40419798
_cell_angle_alpha   90.61113624
_cell_angle_beta   90.54446252
_cell_angle_gamma   59.95528542
_symmetry_Int_Tables_number   1
_chemical_formula_structural   Gd5Al31N36
_chemical_formula_sum   'Gd5 Al31 N36'
_cell_volume   848.90512408
_cell_formula_units_Z   1
loop_
 _symmetry_equiv_pos_site_id
 _symmetry_equiv_pos_as_xyz
  1  'x, y, z'
loop_
 _atom_site_type_symbol
 _atom_site_label
 _atom_site_symmetry_multiplicity
 _atom_site_fract_x
 _atom_site_fract_y
 _atom_site_fract_z
 _atom_site_occupancy
  Al  Al0  1  0.11347861  0.09334912  0.40991318  1
  Al  Al1  1  0.22026081  0.20826369  0.14492267  1
  Al  Al2  1  0.88713733  0.20710411  0.65713602  1
  Al  Al3  1  0.43401489  0.08641793  0.39918654  1
  Al  Al4  1  0.53982630  0.21491716  0.15206089  1
  Al  Al5  1  0.11004576  0.10182345  0.89656079  1
  Al  Al6  1  0.22234062  0.19683578  0.65399036  1
  Al  Al7  1  0.89095444  0.22027832  0.15395868  1
  Al  Al8  1  0.43012893  0.10742377  0.89258500  1
  Al  Al9  1  0.54206606  0.21125968  0.65026674  1
  Al  Al10  1  0.22599029  0.54633153  0.14680623  1
  Al  Al11  1  0.77557138  0.42822739  0.89848570  1
  Al  Al12  1  0.88369581  0.53434248  0.59505509  1
  Al  Al13  1  0.44592571  0.43975937  0.39478924  1
  Al  Al14  1  0.56711200  0.53620001  0.14610346  1
  Al  Al15  1  0.10962878  0.43014533  0.82937982  1
  Al  Al16  1  0.22705761  0.54377781  0.65355887  1
  Al  Al17  1  0.77640919  0.41808375  0.41050071  1
  Al  Al18  1  0.90530783  0.53825200  0.06870005  1
  Al  Al19  1  0.43717682  0.43353644  0.90070357  1
  Al  Al20  1  0.55338448  0.53293593  0.65453338  1
  Al  Al21  1  0.12133047  0.76168460  0.40817587  1
  Al  Al22  1  0.78237170  0.74990492  0.83295772  1
  Al  Al23  1  0.89314036  0.86522578  0.65427260  1
  Al  Al24  1  0.44200887  0.75831221  0.41904798  1
  Al  Al25  1  0.56518235  0.87226485  0.07868786  1
  Al  Al26  1  0.11522581  0.75540723  0.89634849  1
  Al  Al27  1  0.21789598  0.87318799  0.64876433  1
  Al  Al28  1  0.90093408  0.86960070  0.14556496  1
  Al  Al29  1  0.44382200  0.75539328  0.88820619  1
  Al  Al30  1  0.54783694  0.87430344  0.64583001  1
  Gd  Gd31  1  0.77178028  0.09606961  0.89941239  1
  Gd  Gd32  1  0.76989557  0.09749928  0.39215224  1
  Gd  Gd33  1  0.14360679  0.41469049  0.38289724  1
  Gd  Gd34  1  0.23342864  0.87651321  0.16180450  1
  Gd  Gd35  1  0.77389717  0.74010505  0.32863221  1
  N  N36  1  0.23319360  0.16513007  0.32528721  1
  N  N37  1  0.09671858  0.12228904  0.07727933  1
  N  N38  1  0.89954595  0.22017536  0.83576692  1
  N  N39  1  0.77296552  0.09159466  0.61997756  1
  N  N40  1  0.50458930  0.22816277  0.33454930  1
  N  N41  1  0.44142548  0.09920977  0.07760167  1
  N  N42  1  0.22007934  0.20318189  0.83677354  1
  N  N43  1  0.10534884  0.09792649  0.59585898  1
  N  N44  1  0.90520127  0.21567031  0.33725261  1
  N  N45  1  0.77244713  0.10196517  0.12478665  1
  N  N46  1  0.51848848  0.22633795  0.83083148  1
  N  N47  1  0.43670947  0.09636828  0.59024887  1
  N  N48  1  0.24689213  0.56930347  0.32670773  1
  N  N49  1  0.11391235  0.43323784  0.13612563  1
  N  N50  1  0.89488292  0.53547066  0.88268033  1
  N  N51  1  0.76631562  0.41881464  0.59815567  1
  N  N52  1  0.56574832  0.53803040  0.33938490  1
  N  N53  1  0.44797017  0.43078375  0.08624905  1
  N  N54  1  0.22651702  0.54202639  0.83731925  1
  N  N55  1  0.11102840  0.42750023  0.63526415  1
  N  N56  1  0.89462968  0.51335610  0.41800134  1
  N  N57  1  0.77976442  0.42973927  0.08650739  1
  N  N58  1  0.55601140  0.53306260  0.83842453  1
  N  N59  1  0.44023962  0.42940363  0.58388436  1
  N  N60  1  0.22378781  0.87405695  0.38029781  1
  N  N61  1  0.10640950  0.75420814  0.07607048  1
  N  N62  1  0.90741662  0.84549630  0.83493223  1
  N  N63  1  0.77372011  0.75423420  0.64040971  1
  N  N64  1  0.52762185  0.87691536  0.36493747  1
  N  N65  1  0.47442553  0.74344419  0.07047408  1
  N  N66  1  0.21925143  0.87492885  0.83991723  1
  N  N67  1  0.10873514  0.75822730  0.59343700  1
  N  N68  1  0.92449940  0.85332448  0.32815432  1
  N  N69  1  0.78299818  0.76381049  0.10509568  1
  N  N70  1  0.55069564  0.87805056  0.84871027  1
  N  N71  1  0.44349455  0.75464527  0.60583396  1
