# generated using pymatgen
data_Gd5Al31N36
_symmetry_space_group_name_H-M   'P 1'
_cell_length_a   9.72687113
_cell_length_b   9.69320824
_cell_length_c   10.26004632
_cell_angle_alpha   90.36761881
_cell_angle_beta   90.12321632
_cell_angle_gamma   59.84302082
_symmetry_Int_Tables_number   1
_chemical_formula_structural   Gd5Al31N36
_chemical_formula_sum   'Gd5 Al31 N36'
_cell_volume   836.41580425
_cell_formula_units_Z   1
loop_
 _symmetry_equiv_pos_site_id
 _symmetry_equiv_pos_as_xyz
  1  'x, y, z'
loop_
 _atom_site_type_symbol
 _atom_site_label
 _atom_site_symmetry_multiplicity
 _atom_site_fract_x
 _atom_site_fract_y
 _atom_site_fract_z
 _atom_site_occupancy
  Al  Al0  1  0.11460955  0.09412970  0.40928681  1
  Al  Al1  1  0.22191417  0.20330953  0.13973546  1
  Al  Al2  1  0.89152179  0.20918114  0.65195241  1
  Al  Al3  1  0.43053732  0.08865666  0.39183028  1
  Al  Al4  1  0.54013129  0.21227156  0.14971585  1
  Al  Al5  1  0.11227479  0.10048017  0.89231945  1
  Al  Al6  1  0.22292084  0.20351227  0.65582351  1
  Al  Al7  1  0.89065679  0.21667985  0.15214699  1
  Al  Al8  1  0.43743521  0.09617952  0.89685251  1
  Al  Al9  1  0.54387559  0.20805819  0.64798927  1
  Al  Al10  1  0.22725126  0.54297164  0.13893940  1
  Al  Al11  1  0.77768356  0.43110983  0.89861959  1
  Al  Al12  1  0.88916259  0.53446821  0.65075841  1
  Al  Al13  1  0.44218952  0.43767580  0.39428444  1
  Al  Al14  1  0.56281682  0.53428231  0.14592195  1
  Al  Al15  1  0.11693166  0.42584866  0.89745289  1
  Al  Al16  1  0.22394964  0.53643221  0.65600704  1
  Al  Al17  1  0.77868369  0.42843582  0.39842150  1
  Al  Al18  1  0.88989412  0.53730423  0.12217311  1
  Al  Al19  1  0.43984916  0.43156949  0.89609373  1
  Al  Al20  1  0.55667573  0.53433920  0.64843409  1
  Al  Al21  1  0.12385203  0.75968540  0.40865898  1
  Al  Al22  1  0.77758913  0.75931247  0.89859333  1
  Al  Al23  1  0.89249865  0.86288107  0.65830772  1
  Al  Al24  1  0.44429534  0.75758391  0.40783351  1
  Al  Al25  1  0.55300372  0.87178512  0.13842512  1
  Al  Al26  1  0.11484541  0.75445872  0.89188157  1
  Al  Al27  1  0.22345038  0.87123925  0.64438847  1
  Al  Al28  1  0.89598430  0.86596135  0.14469686  1
  Al  Al29  1  0.44869537  0.75612888  0.89199456  1
  Al  Al30  1  0.55487245  0.87076465  0.65589918  1
  Gd  Gd31  1  0.77322944  0.10089660  0.89567825  1
  Gd  Gd32  1  0.77105676  0.10288918  0.38992584  1
  Gd  Gd33  1  0.13009852  0.42272892  0.38673080  1
  Gd  Gd34  1  0.22407282  0.87304244  0.15769314  1
  Gd  Gd35  1  0.77037494  0.76743782  0.39096757  1
  N  N36  1  0.22780016  0.17346217  0.32329609  1
  N  N37  1  0.09545268  0.12005276  0.07558399  1
  N  N38  1  0.90215376  0.22349063  0.83206587  1
  N  N39  1  0.77649560  0.09242877  0.62024773  1
  N  N40  1  0.50664141  0.22589555  0.33368982  1
  N  N41  1  0.44312210  0.09344253  0.08284664  1
  N  N42  1  0.22404767  0.20433454  0.84103476  1
  N  N43  1  0.11046762  0.09790423  0.59621646  1
  N  N44  1  0.90729051  0.21692411  0.33792208  1
  N  N45  1  0.77229816  0.10053968  0.12405125  1
  N  N46  1  0.51998743  0.22151716  0.83093312  1
  N  N47  1  0.44207337  0.08922485  0.58459181  1
  N  N48  1  0.24304436  0.56604300  0.32154505  1
  N  N49  1  0.11982353  0.42617737  0.09328527  1
  N  N50  1  0.89079317  0.53774784  0.86174292  1
  N  N51  1  0.77626962  0.42676016  0.58875193  1
  N  N52  1  0.56123588  0.53541936  0.33926010  1
  N  N53  1  0.44870741  0.42781749  0.08351656  1
  N  N54  1  0.22571730  0.53712182  0.84062989  1
  N  N55  1  0.11149155  0.42589832  0.61133638  1
  N  N56  1  0.88259293  0.52602907  0.32971797  1
  N  N57  1  0.77595722  0.42638896  0.08570582  1
  N  N58  1  0.55815384  0.53284794  0.83538548  1
  N  N59  1  0.44179794  0.42851881  0.58488712  1
  N  N60  1  0.22504328  0.87380587  0.38031643  1
  N  N61  1  0.10138025  0.75082971  0.07275046  1
  N  N62  1  0.90191566  0.84541152  0.83940103  1
  N  N63  1  0.77705371  0.75666464  0.61231624  1
  N  N64  1  0.52117446  0.87966282  0.32297385  1
  N  N65  1  0.47122453  0.74320762  0.07542440  1
  N  N66  1  0.22283707  0.87220490  0.83861143  1
  N  N67  1  0.11110506  0.75540520  0.59633616  1
  N  N68  1  0.92888599  0.85563824  0.32534290  1
  N  N69  1  0.77509280  0.76714773  0.09260768  1
  N  N70  1  0.55449525  0.87408596  0.84200707  1
  N  N71  1  0.45110930  0.75572155  0.59652947  1
