# generated using pymatgen
data_Gd5Al31N36
_symmetry_space_group_name_H-M   'P 1'
_cell_length_a   9.68005252
_cell_length_b   9.64594276
_cell_length_c   10.58089294
_cell_angle_alpha   91.01383915
_cell_angle_beta   90.93260722
_cell_angle_gamma   60.24152269
_symmetry_Int_Tables_number   1
_chemical_formula_structural   Gd5Al31N36
_chemical_formula_sum   'Gd5 Al31 N36'
_cell_volume   857.51749587
_cell_formula_units_Z   1
loop_
 _symmetry_equiv_pos_site_id
 _symmetry_equiv_pos_as_xyz
  1  'x, y, z'
loop_
 _atom_site_type_symbol
 _atom_site_label
 _atom_site_symmetry_multiplicity
 _atom_site_fract_x
 _atom_site_fract_y
 _atom_site_fract_z
 _atom_site_occupancy
  Al  Al0  1  0.11032154  0.08677039  0.42575426  1
  Al  Al1  1  0.22137388  0.22495844  0.05463943  1
  Al  Al2  1  0.88445729  0.20522704  0.66098986  1
  Al  Al3  1  0.43818853  0.09718104  0.42285194  1
  Al  Al4  1  0.54374272  0.21217402  0.15494423  1
  Al  Al5  1  0.10669284  0.09787567  0.88997769  1
  Al  Al6  1  0.21840576  0.20319271  0.61305490  1
  Al  Al7  1  0.89443924  0.22399431  0.15643755  1
  Al  Al8  1  0.44141951  0.10160708  0.87291621  1
  Al  Al9  1  0.55076816  0.21068025  0.65587238  1
  Al  Al10  1  0.23228602  0.54912035  0.14394038  1
  Al  Al11  1  0.77425172  0.42806366  0.89965561  1
  Al  Al12  1  0.88592439  0.53598842  0.59216851  1
  Al  Al13  1  0.44158697  0.43360361  0.39876007  1
  Al  Al14  1  0.56736993  0.53816179  0.14812413  1
  Al  Al15  1  0.10663378  0.43139473  0.82619311  1
  Al  Al16  1  0.22635520  0.53892271  0.65204464  1
  Al  Al17  1  0.77276954  0.42114043  0.41432600  1
  Al  Al18  1  0.90037390  0.54857472  0.05834703  1
  Al  Al19  1  0.43916480  0.43330902  0.90217293  1
  Al  Al20  1  0.55399268  0.53101867  0.65731198  1
  Al  Al21  1  0.11835253  0.75293714  0.40747384  1
  Al  Al22  1  0.77863402  0.75028077  0.82474877  1
  Al  Al23  1  0.89425395  0.86390009  0.65473933  1
  Al  Al24  1  0.43268767  0.75413112  0.42573357  1
  Al  Al25  1  0.57189136  0.87456370  0.05082673  1
  Al  Al26  1  0.11594310  0.75268372  0.89853506  1
  Al  Al27  1  0.21803052  0.86673765  0.65719030  1
  Al  Al28  1  0.90427999  0.86802072  0.15059538  1
  Al  Al29  1  0.44558996  0.75375819  0.89101047  1
  Al  Al30  1  0.55441545  0.86736280  0.60104544  1
  Gd  Gd31  1  0.77610581  0.09007171  0.90978263  1
  Gd  Gd32  1  0.77851647  0.09276312  0.39181978  1
  Gd  Gd33  1  0.11412657  0.41241292  0.33190703  1
  Gd  Gd34  1  0.23425950  0.88727890  0.16006727  1
  Gd  Gd35  1  0.74871661  0.74645352  0.31624264  1
  N  N36  1  0.22822434  0.18183509  0.41353701  1
  N  N37  1  0.09508165  0.12775999  0.07278845  1
  N  N38  1  0.89487138  0.21957826  0.83717115  1
  N  N39  1  0.77542070  0.08854347  0.61595045  1
  N  N40  1  0.51473589  0.21849377  0.33616604  1
  N  N41  1  0.44938482  0.10187520  0.06955715  1
  N  N42  1  0.21926237  0.21020214  0.86530711  1
  N  N43  1  0.10195642  0.08826873  0.60923051  1
  N  N44  1  0.91216914  0.21940884  0.33814664  1
  N  N45  1  0.77862069  0.10194396  0.13169318  1
  N  N46  1  0.52977987  0.22709575  0.83257560  1
  N  N47  1  0.44542116  0.09635328  0.61384623  1
  N  N48  1  0.24276826  0.55686804  0.32747710  1
  N  N49  1  0.11708407  0.43648089  0.11180939  1
  N  N50  1  0.89059897  0.53741048  0.87967546  1
  N  N51  1  0.76765367  0.41711600  0.59794447  1
  N  N52  1  0.56109630  0.53915223  0.34108659  1
  N  N53  1  0.45135219  0.43041518  0.08763923  1
  N  N54  1  0.22907940  0.54077664  0.83670029  1
  N  N55  1  0.10554933  0.42758455  0.64362460  1
  N  N56  1  0.88094664  0.53022782  0.41740141  1
  N  N57  1  0.78070763  0.43382058  0.08822378  1
  N  N58  1  0.55667121  0.53344121  0.84013407  1
  N  N59  1  0.44162567  0.42623588  0.58532130  1
  N  N60  1  0.21872616  0.87221945  0.37490205  1
  N  N61  1  0.10964012  0.75846810  0.07835933  1
  N  N62  1  0.90967552  0.84359488  0.83303629  1
  N  N63  1  0.77285789  0.75333966  0.64329651  1
  N  N64  1  0.52985940  0.87908163  0.41822128  1
  N  N65  1  0.47688304  0.74654230  0.07617257  1
  N  N66  1  0.22135468  0.87134056  0.84359741  1
  N  N67  1  0.10910344  0.75401393  0.59161752  1
  N  N68  1  0.91829457  0.84237388  0.32939008  1
  N  N69  1  0.78409259  0.76895252  0.10123036  1
  N  N70  1  0.55771034  0.87267978  0.86783307  1
  N  N71  1  0.43895705  0.74971038  0.60906230  1
