# generated using pymatgen
data_Gd5Al31N36
_symmetry_space_group_name_H-M   'P 1'
_cell_length_a   9.71559440
_cell_length_b   9.68161391
_cell_length_c   10.50937762
_cell_angle_alpha   90.64432321
_cell_angle_beta   90.58034691
_cell_angle_gamma   59.98303219
_symmetry_Int_Tables_number   1
_chemical_formula_structural   Gd5Al31N36
_chemical_formula_sum   'Gd5 Al31 N36'
_cell_volume   855.88841440
_cell_formula_units_Z   1
loop_
 _symmetry_equiv_pos_site_id
 _symmetry_equiv_pos_as_xyz
  1  'x, y, z'
loop_
 _atom_site_type_symbol
 _atom_site_label
 _atom_site_symmetry_multiplicity
 _atom_site_fract_x
 _atom_site_fract_y
 _atom_site_fract_z
 _atom_site_occupancy
  Al  Al0  1  0.12135804  0.07864862  0.39709044  1
  Al  Al1  1  0.22459611  0.21400589  0.04006801  1
  Al  Al2  1  0.88229701  0.21357253  0.56209748  1
  Al  Al3  1  0.43368139  0.08961289  0.31285338  1
  Al  Al4  1  0.54302098  0.21322807  0.05637486  1
  Al  Al5  1  0.11325676  0.09986374  0.84704982  1
  Al  Al6  1  0.22789326  0.20634578  0.57198415  1
  Al  Al7  1  0.88467102  0.22097125  0.04581995  1
  Al  Al8  1  0.43812482  0.09888421  0.80432076  1
  Al  Al9  1  0.54478087  0.21031818  0.55257124  1
  Al  Al10  1  0.21969272  0.53951358  0.05192820  1
  Al  Al11  1  0.78326781  0.43153678  0.80251509  1
  Al  Al12  1  0.88803803  0.53669334  0.56692392  1
  Al  Al13  1  0.43913369  0.43314066  0.31086679  1
  Al  Al14  1  0.56155919  0.54085789  0.12816783  1
  Al  Al15  1  0.11142559  0.43194102  0.80729023  1
  Al  Al16  1  0.22556254  0.54223344  0.56397357  1
  Al  Al17  1  0.78626843  0.42181676  0.31331700  1
  Al  Al18  1  0.88946897  0.53716609  0.04110618  1
  Al  Al19  1  0.43363028  0.43009145  0.80942033  1
  Al  Al20  1  0.55226764  0.53996040  0.63122648  1
  Al  Al21  1  0.11671755  0.75265701  0.31790462  1
  Al  Al22  1  0.78005263  0.75638727  0.80526141  1
  Al  Al23  1  0.89541045  0.86696763  0.56112690  1
  Al  Al24  1  0.43616431  0.75382691  0.39308319  1
  Al  Al25  1  0.56489616  0.87639907  0.04114256  1
  Al  Al26  1  0.11389611  0.75197383  0.80818010  1
  Al  Al27  1  0.22690681  0.87036075  0.63590855  1
  Al  Al28  1  0.89354414  0.86044867  0.04701466  1
  Al  Al29  1  0.45369431  0.75123502  0.87219822  1
  Al  Al30  1  0.55386343  0.87747316  0.56655105  1
  Gd  Gd31  1  0.76786423  0.09723936  0.81232567  1
  Gd  Gd32  1  0.77905821  0.09563977  0.30682313  1
  Gd  Gd33  1  0.12073567  0.41769988  0.30622702  1
  Gd  Gd34  1  0.22841036  0.87781748  0.11538367  1
  Gd  Gd35  1  0.76807928  0.75657647  0.30406751  1
  N  N36  1  0.23619633  0.18102423  0.39046903  1
  N  N37  1  0.10054489  0.12427673  0.06569331  1
  N  N38  1  0.89364340  0.22602608  0.86300305  1
  N  N39  1  0.77171189  0.09785369  0.59029457  1
  N  N40  1  0.52075593  0.22050901  0.37035976  1
  N  N41  1  0.44179839  0.09158850  0.11949050  1
  N  N42  1  0.22461647  0.21036190  0.85417256  1
  N  N43  1  0.11099088  0.09169466  0.59629426  1
  N  N44  1  0.90172397  0.21667505  0.38076327  1
  N  N45  1  0.77738334  0.09620614  0.08027202  1
  N  N46  1  0.51613465  0.22571636  0.87830152  1
  N  N47  1  0.44746777  0.09555467  0.62392329  1
  N  N48  1  0.24013292  0.55088617  0.38524840  1
  N  N49  1  0.11095472  0.42925753  0.08721056  1
  N  N50  1  0.88855443  0.53916967  0.85791235  1
  N  N51  1  0.77948374  0.42759568  0.62079542  1
  N  N52  1  0.55717520  0.54381750  0.31822109  1
  N  N53  1  0.43774780  0.43006370  0.12211772  1
  N  N54  1  0.22290672  0.54243093  0.86805055  1
  N  N55  1  0.11243505  0.43121668  0.61980796  1
  N  N56  1  0.88209356  0.52348650  0.38974373  1
  N  N57  1  0.78798052  0.42710621  0.12287216  1
  N  N58  1  0.55556748  0.53810054  0.81660151  1
  N  N59  1  0.44159636  0.42209437  0.62341068  1
  N  N60  1  0.22307817  0.87047489  0.33597355  1
  N  N61  1  0.09338275  0.74348119  0.13114723  1
  N  N62  1  0.90755731  0.84150443  0.86782274  1
  N  N63  1  0.77680197  0.76246666  0.61904914  1
  N  N64  1  0.52954056  0.88569964  0.38469913  1
  N  N65  1  0.48044272  0.73897920  0.05219885  1
  N  N66  1  0.22842817  0.87148059  0.82615815  1
  N  N67  1  0.11047992  0.75853773  0.62665476  1
  N  N68  1  0.91489437  0.85247074  0.38491853  1
  N  N69  1  0.77780800  0.75943480  0.08856253  1
  N  N70  1  0.55793418  0.88033057  0.85655898  1
  N  N71  1  0.44186305  0.75484585  0.57763924  1
