# generated using pymatgen
data_Gd5Al31N36
_symmetry_space_group_name_H-M   'P 1'
_cell_length_a   9.70167845
_cell_length_b   9.67271286
_cell_length_c   10.29059436
_cell_angle_alpha   90.00531201
_cell_angle_beta   90.22139196
_cell_angle_gamma   59.95412681
_symmetry_Int_Tables_number   1
_chemical_formula_structural   Gd5Al31N36
_chemical_formula_sum   'Gd5 Al31 N36'
_cell_volume   835.91303916
_cell_formula_units_Z   1
loop_
 _symmetry_equiv_pos_site_id
 _symmetry_equiv_pos_as_xyz
  1  'x, y, z'
loop_
 _atom_site_type_symbol
 _atom_site_label
 _atom_site_symmetry_multiplicity
 _atom_site_fract_x
 _atom_site_fract_y
 _atom_site_fract_z
 _atom_site_occupancy
  Al  Al0  1  0.11420761  0.09722076  0.31033851  1
  Al  Al1  1  0.22138259  0.20805418  0.04459537  1
  Al  Al2  1  0.89129716  0.21042173  0.55063333  1
  Al  Al3  1  0.43302260  0.09265099  0.30797566  1
  Al  Al4  1  0.54452358  0.21069364  0.05183479  1
  Al  Al5  1  0.11529880  0.09638864  0.79713261  1
  Al  Al6  1  0.22466182  0.20138892  0.55961168  1
  Al  Al7  1  0.89272740  0.21644049  0.05145378  1
  Al  Al8  1  0.43675948  0.09743697  0.80312255  1
  Al  Al9  1  0.54338269  0.21119827  0.55086770  1
  Al  Al10  1  0.22132196  0.53623677  0.04485108  1
  Al  Al11  1  0.77878401  0.43139797  0.80283379  1
  Al  Al12  1  0.88617038  0.53681260  0.56532169  1
  Al  Al13  1  0.44189418  0.43574379  0.30617411  1
  Al  Al14  1  0.56374284  0.53556758  0.05697222  1
  Al  Al15  1  0.11382759  0.42721775  0.80371064  1
  Al  Al16  1  0.22819850  0.54117069  0.55986455  1
  Al  Al17  1  0.77689495  0.42782379  0.30633203  1
  Al  Al18  1  0.89023391  0.53594143  0.03536906  1
  Al  Al19  1  0.43900070  0.43342852  0.80543849  1
  Al  Al20  1  0.55767729  0.53500639  0.55514073  1
  Al  Al21  1  0.11905311  0.75571597  0.31115800  1
  Al  Al22  1  0.77860785  0.75681313  0.80325836  1
  Al  Al23  1  0.89394374  0.86608641  0.55600513  1
  Al  Al24  1  0.44616468  0.75808131  0.31313250  1
  Al  Al25  1  0.55855337  0.87058726  0.04360405  1
  Al  Al26  1  0.11739988  0.75621209  0.79532079  1
  Al  Al27  1  0.22225354  0.87193148  0.55282250  1
  Al  Al28  1  0.89318661  0.85972812  0.04031293  1
  Al  Al29  1  0.44494637  0.75903012  0.79665425  1
  Al  Al30  1  0.55006234  0.87555150  0.56100855  1
  Gd  Gd31  1  0.77347737  0.10143248  0.80825153  1
  Gd  Gd32  1  0.77499442  0.09743308  0.30719552  1
  Gd  Gd33  1  0.11748660  0.42660088  0.30513860  1
  Gd  Gd34  1  0.22410778  0.86996843  0.06291575  1
  Gd  Gd35  1  0.76745315  0.75896203  0.29761283  1
  N  N36  1  0.23147387  0.18208433  0.37801449  1
  N  N37  1  0.10046793  0.12463428  0.12467695  1
  N  N38  1  0.90837350  0.22180217  0.86848511  1
  N  N39  1  0.77358603  0.09792657  0.58101556  1
  N  N40  1  0.51595003  0.22346132  0.36617527  1
  N  N41  1  0.44326041  0.09100871  0.11449086  1
  N  N42  1  0.22271364  0.20254560  0.85746046  1
  N  N43  1  0.10971436  0.09396155  0.61132311  1
  N  N44  1  0.90328362  0.21833953  0.36811361  1
  N  N45  1  0.77990564  0.09326936  0.07669868  1
  N  N46  1  0.51853214  0.22384335  0.87044688  1
  N  N47  1  0.44410832  0.09550981  0.61858665  1
  N  N48  1  0.24174122  0.55304816  0.37855903  1
  N  N49  1  0.11109973  0.42727162  0.08179880  1
  N  N50  1  0.88955428  0.53734569  0.84991166  1
  N  N51  1  0.77489735  0.42543418  0.61838377  1
  N  N52  1  0.56022853  0.53337259  0.36588949  1
  N  N53  1  0.44268599  0.43198455  0.11497318  1
  N  N54  1  0.22345848  0.54261804  0.85798351  1
  N  N55  1  0.11456687  0.42767405  0.61177292  1
  N  N56  1  0.87632422  0.52606697  0.38446192  1
  N  N57  1  0.78037789  0.43038218  0.11484730  1
  N  N58  1  0.55691860  0.53864699  0.86588294  1
  N  N59  1  0.44807190  0.42692646  0.61875197  1
  N  N60  1  0.22214206  0.87297063  0.35569251  1
  N  N61  1  0.09631192  0.74141583  0.12475264  1
  N  N62  1  0.90805605  0.84323436  0.85707816  1
  N  N63  1  0.77457825  0.76319604  0.61372849  1
  N  N64  1  0.52676065  0.88597149  0.37892384  1
  N  N65  1  0.47956516  0.74626684  0.12654618  1
  N  N66  1  0.22334033  0.87251756  0.84309514  1
  N  N67  1  0.11349106  0.76175670  0.61216497  1
  N  N68  1  0.91585525  0.85066327  0.37661905  1
  N  N69  1  0.77808139  0.75752090  0.07756073  1
  N  N70  1  0.55125932  0.87373088  0.85600177  1
  N  N71  1  0.44508042  0.75695817  0.61007770  1
