# generated using pymatgen
data_Gd5Al31N36
_symmetry_space_group_name_H-M   'P 1'
_cell_length_a   9.69006498
_cell_length_b   9.67638262
_cell_length_c   10.61154509
_cell_angle_alpha   91.17633271
_cell_angle_beta   91.08210097
_cell_angle_gamma   59.95399555
_symmetry_Int_Tables_number   1
_chemical_formula_structural   Gd5Al31N36
_chemical_formula_sum   'Gd5 Al31 N36'
_cell_volume   861.06205721
_cell_formula_units_Z   1
loop_
 _symmetry_equiv_pos_site_id
 _symmetry_equiv_pos_as_xyz
  1  'x, y, z'
loop_
 _atom_site_type_symbol
 _atom_site_label
 _atom_site_symmetry_multiplicity
 _atom_site_fract_x
 _atom_site_fract_y
 _atom_site_fract_z
 _atom_site_occupancy
  Al  Al0  1  0.11265448  0.08440863  0.40831034  1
  Al  Al1  1  0.22717708  0.21748555  0.05242138  1
  Al  Al2  1  0.89184082  0.21156857  0.63903729  1
  Al  Al3  1  0.43408625  0.08797446  0.32509203  1
  Al  Al4  1  0.54892683  0.20680872  0.07324114  1
  Al  Al5  1  0.10857368  0.09806250  0.88136900  1
  Al  Al6  1  0.22849323  0.19998399  0.58055259  1
  Al  Al7  1  0.89627552  0.22346913  0.13119458  1
  Al  Al8  1  0.43607200  0.09650902  0.81761636  1
  Al  Al9  1  0.54607739  0.20588833  0.56407102  1
  Al  Al10  1  0.22844036  0.54632072  0.13708794  1
  Al  Al11  1  0.77483604  0.42839698  0.88493556  1
  Al  Al12  1  0.88552171  0.53932074  0.58202143  1
  Al  Al13  1  0.43720025  0.44094158  0.38951318  1
  Al  Al14  1  0.56675880  0.53814247  0.13832973  1
  Al  Al15  1  0.10880748  0.42255444  0.81455926  1
  Al  Al16  1  0.22808630  0.53782719  0.64451716  1
  Al  Al17  1  0.77160564  0.42442426  0.40005390  1
  Al  Al18  1  0.89930117  0.54442767  0.04827410  1
  Al  Al19  1  0.43275235  0.43738361  0.89782823  1
  Al  Al20  1  0.55324793  0.53415378  0.64516088  1
  Al  Al21  1  0.12801938  0.75161194  0.40728334  1
  Al  Al22  1  0.77783044  0.75497110  0.81546061  1
  Al  Al23  1  0.88906452  0.86761108  0.57546942  1
  Al  Al24  1  0.43824793  0.75565022  0.40971070  1
  Al  Al25  1  0.56417753  0.87587147  0.05161869  1
  Al  Al26  1  0.12140057  0.74791107  0.88417678  1
  Al  Al27  1  0.22316998  0.86881098  0.64770155  1
  Al  Al28  1  0.88910456  0.86856234  0.05256387  1
  Al  Al29  1  0.44785156  0.75273549  0.88358820  1
  Al  Al30  1  0.55358701  0.87640724  0.58061333  1
  Gd  Gd31  1  0.76379322  0.09903841  0.82883821  1
  Gd  Gd32  1  0.77728685  0.09686660  0.32970941  1
  Gd  Gd33  1  0.11149070  0.41152988  0.32573777  1
  Gd  Gd34  1  0.22794237  0.87930931  0.14424823  1
  Gd  Gd35  1  0.76615899  0.75708698  0.31249009  1
  N  N36  1  0.23978801  0.17447538  0.40250590  1
  N  N37  1  0.09838700  0.12181622  0.06148032  1
  N  N38  1  0.90246273  0.22373310  0.81766586  1
  N  N39  1  0.77215805  0.09812632  0.60576588  1
  N  N40  1  0.51966847  0.21679930  0.38242391  1
  N  N41  1  0.44221393  0.09065205  0.13397112  1
  N  N42  1  0.22439869  0.20733479  0.86977223  1
  N  N43  1  0.10757074  0.08817630  0.59044705  1
  N  N44  1  0.91627283  0.22462048  0.31827907  1
  N  N45  1  0.78123362  0.09599204  0.10409142  1
  N  N46  1  0.51692919  0.21628543  0.89619063  1
  N  N47  1  0.44661891  0.09631749  0.63827813  1
  N  N48  1  0.23566304  0.55875669  0.31938650  1
  N  N49  1  0.11476882  0.43184346  0.10793511  1
  N  N50  1  0.89049122  0.53861718  0.86714803  1
  N  N51  1  0.76715277  0.42318586  0.58369017  1
  N  N52  1  0.55990283  0.53828430  0.32920956  1
  N  N53  1  0.44578955  0.43883779  0.08288370  1
  N  N54  1  0.22784595  0.53576501  0.82492540  1
  N  N55  1  0.10918488  0.42235388  0.62961320  1
  N  N56  1  0.87699112  0.53534040  0.40661460  1
  N  N57  1  0.77815959  0.43292565  0.07122495  1
  N  N58  1  0.55505816  0.53045943  0.82789346  1
  N  N59  1  0.43806787  0.43587096  0.57659533  1
  N  N60  1  0.22223581  0.86976203  0.35890736  1
  N  N61  1  0.11222918  0.74797831  0.06576333  1
  N  N62  1  0.89947773  0.84595819  0.87133497  1
  N  N63  1  0.77515835  0.76182324  0.63377972  1
  N  N64  1  0.53131318  0.88507751  0.39927843  1
  N  N65  1  0.47359016  0.74428848  0.06603834  1
  N  N66  1  0.22313770  0.87071147  0.83289676  1
  N  N67  1  0.11989660  0.75285690  0.59216165  1
  N  N68  1  0.90886701  0.85349291  0.39677233  1
  N  N69  1  0.78109500  0.76270134  0.09843593  1
  N  N70  1  0.55563515  0.87672240  0.86881009  1
  N  N71  1  0.44425072  0.75413691  0.59386007  1
