# generated using pymatgen
data_Gd5Al31N36
_symmetry_space_group_name_H-M   'P 1'
_cell_length_a   9.60717031
_cell_length_b   9.58247078
_cell_length_c   10.71130265
_cell_angle_alpha   90.68261485
_cell_angle_beta   90.80256497
_cell_angle_gamma   60.49145685
_symmetry_Int_Tables_number   1
_chemical_formula_structural   Gd5Al31N36
_chemical_formula_sum   'Gd5 Al31 N36'
_cell_volume   858.07568978
_cell_formula_units_Z   1
loop_
 _symmetry_equiv_pos_site_id
 _symmetry_equiv_pos_as_xyz
  1  'x, y, z'
loop_
 _atom_site_type_symbol
 _atom_site_label
 _atom_site_symmetry_multiplicity
 _atom_site_fract_x
 _atom_site_fract_y
 _atom_site_fract_z
 _atom_site_occupancy
  Al  Al0  1  0.11168461  0.08764244  0.42593043  1
  Al  Al1  1  0.23127920  0.21818467  0.05729153  1
  Al  Al2  1  0.88428089  0.20476103  0.66218361  1
  Al  Al3  1  0.43615383  0.09599506  0.38190114  1
  Al  Al4  1  0.54658270  0.21169583  0.16012676  1
  Al  Al5  1  0.10724634  0.09781720  0.89407043  1
  Al  Al6  1  0.21894937  0.20515804  0.60105365  1
  Al  Al7  1  0.89657346  0.22344705  0.15634335  1
  Al  Al8  1  0.43583213  0.09500644  0.82298774  1
  Al  Al9  1  0.55194538  0.21206070  0.65502012  1
  Al  Al10  1  0.23242647  0.54706535  0.14287667  1
  Al  Al11  1  0.77473657  0.42658662  0.89983272  1
  Al  Al12  1  0.88560343  0.53781484  0.59320715  1
  Al  Al13  1  0.44025776  0.43746075  0.40112186  1
  Al  Al14  1  0.56808124  0.53718167  0.14616984  1
  Al  Al15  1  0.10870541  0.42642237  0.82703551  1
  Al  Al16  1  0.22453677  0.53959171  0.65339178  1
  Al  Al17  1  0.77293549  0.42363927  0.41573981  1
  Al  Al18  1  0.90210037  0.54841571  0.05584623  1
  Al  Al19  1  0.43906142  0.43125078  0.90189338  1
  Al  Al20  1  0.55356180  0.53223797  0.65796126  1
  Al  Al21  1  0.11688059  0.75237456  0.40698203  1
  Al  Al22  1  0.77786431  0.75054484  0.82583797  1
  Al  Al23  1  0.89279683  0.86499117  0.65528213  1
  Al  Al24  1  0.43134185  0.75654922  0.42620864  1
  Al  Al25  1  0.56774737  0.88198101  0.05228976  1
  Al  Al26  1  0.11580819  0.75215782  0.89794838  1
  Al  Al27  1  0.21729115  0.86808812  0.65816068  1
  Al  Al28  1  0.90487732  0.86707653  0.15083665  1
  Al  Al29  1  0.44686570  0.75362856  0.89347362  1
  Al  Al30  1  0.55314647  0.87015454  0.59819272  1
  Gd  Gd31  1  0.77340105  0.08813728  0.91418667  1
  Gd  Gd32  1  0.78483202  0.09098003  0.39235827  1
  Gd  Gd33  1  0.10801694  0.41344251  0.32749043  1
  Gd  Gd34  1  0.23598930  0.88399005  0.15885137  1
  Gd  Gd35  1  0.74324918  0.74552165  0.30959618  1
  N  N36  1  0.23181002  0.18806086  0.42507103  1
  N  N37  1  0.09612336  0.12473059  0.07400496  1
  N  N38  1  0.89490234  0.21723723  0.83714333  1
  N  N39  1  0.77392377  0.08878430  0.61278350  1
  N  N40  1  0.52209109  0.22431373  0.33974532  1
  N  N41  1  0.44496231  0.09210981  0.11579231  1
  N  N42  1  0.22445559  0.20858755  0.87695121  1
  N  N43  1  0.10016970  0.08877546  0.60637721  1
  N  N44  1  0.91658858  0.22424351  0.33683810  1
  N  N45  1  0.78008957  0.10169154  0.13444108  1
  N  N46  1  0.53089932  0.22609140  0.83239647  1
  N  N47  1  0.44004293  0.09073101  0.64351262  1
  N  N48  1  0.24103071  0.55600349  0.32655028  1
  N  N49  1  0.11780304  0.43379319  0.11201855  1
  N  N50  1  0.89176237  0.53639914  0.87986015  1
  N  N51  1  0.76732630  0.41707240  0.59703428  1
  N  N52  1  0.56091937  0.54363634  0.34085164  1
  N  N53  1  0.45212025  0.42784769  0.08710607  1
  N  N54  1  0.22877105  0.54048279  0.83589139  1
  N  N55  1  0.10514112  0.42543713  0.64671027  1
  N  N56  1  0.87980867  0.53666546  0.41997290  1
  N  N57  1  0.78160844  0.43277742  0.08715727  1
  N  N58  1  0.55686538  0.53402605  0.83916553  1
  N  N59  1  0.43962112  0.42742528  0.58545278  1
  N  N60  1  0.21803985  0.87466485  0.37262752  1
  N  N61  1  0.10956905  0.75671962  0.07628054  1
  N  N62  1  0.90953744  0.84533073  0.83113894  1
  N  N63  1  0.77011700  0.75410249  0.64620735  1
  N  N64  1  0.52995665  0.88563931  0.42025128  1
  N  N65  1  0.47804310  0.74451230  0.07465090  1
  N  N66  1  0.22254354  0.87159989  0.84272640  1
  N  N67  1  0.10779662  0.75464164  0.59003764  1
  N  N68  1  0.91645633  0.83999968  0.32740643  1
  N  N69  1  0.78466092  0.76910015  0.09843693  1
  N  N70  1  0.55720702  0.87673613  0.87338257  1
  N  N71  1  0.43813168  0.75049665  0.60627181  1
