# generated using pymatgen
data_Gd5Al31N36
_symmetry_space_group_name_H-M   'P 1'
_cell_length_a   9.72179020
_cell_length_b   9.68919116
_cell_length_c   10.25983415
_cell_angle_alpha   90.35411228
_cell_angle_beta   90.11208970
_cell_angle_gamma   59.85361383
_symmetry_Int_Tables_number   1
_chemical_formula_structural   Gd5Al31N36
_chemical_formula_sum   'Gd5 Al31 N36'
_cell_volume   835.70606029
_cell_formula_units_Z   1
loop_
 _symmetry_equiv_pos_site_id
 _symmetry_equiv_pos_as_xyz
  1  'x, y, z'
loop_
 _atom_site_type_symbol
 _atom_site_label
 _atom_site_symmetry_multiplicity
 _atom_site_fract_x
 _atom_site_fract_y
 _atom_site_fract_z
 _atom_site_occupancy
  Al  Al0  1  0.11480171  0.09398519  0.40930035  1
  Al  Al1  1  0.22179200  0.20358537  0.13958796  1
  Al  Al2  1  0.89152764  0.20960895  0.65166566  1
  Al  Al3  1  0.43066002  0.08883826  0.39195726  1
  Al  Al4  1  0.54016074  0.21227427  0.14972336  1
  Al  Al5  1  0.11225540  0.10049380  0.89225068  1
  Al  Al6  1  0.22286341  0.20374577  0.65581459  1
  Al  Al7  1  0.89062335  0.21668702  0.15196735  1
  Al  Al8  1  0.43740942  0.09616785  0.89683016  1
  Al  Al9  1  0.54388021  0.20813430  0.64802421  1
  Al  Al10  1  0.22700835  0.54281123  0.13884461  1
  Al  Al11  1  0.77799275  0.43132215  0.89867189  1
  Al  Al12  1  0.88930275  0.53480664  0.65665982  1
  Al  Al13  1  0.44214470  0.43768157  0.39436939  1
  Al  Al14  1  0.56291209  0.53421859  0.14568612  1
  Al  Al15  1  0.11615745  0.42617919  0.89776864  1
  Al  Al16  1  0.22392688  0.53635874  0.65599377  1
  Al  Al17  1  0.77929290  0.42884168  0.39796737  1
  Al  Al18  1  0.88934059  0.53690748  0.12950156  1
  Al  Al19  1  0.43980396  0.43161742  0.89600662  1
  Al  Al20  1  0.55710580  0.53433099  0.64817861  1
  Al  Al21  1  0.12368533  0.75963928  0.40868087  1
  Al  Al22  1  0.77796384  0.75854262  0.89889143  1
  Al  Al23  1  0.89241431  0.86291528  0.65835141  1
  Al  Al24  1  0.44428029  0.75768935  0.40783063  1
  Al  Al25  1  0.55337448  0.87164207  0.13831281  1
  Al  Al26  1  0.11484188  0.75444640  0.89193230  1
  Al  Al27  1  0.22347742  0.87122652  0.64452673  1
  Al  Al28  1  0.89578798  0.86571934  0.14462321  1
  Al  Al29  1  0.44878655  0.75608481  0.89194916  1
  Al  Al30  1  0.55506953  0.87075604  0.65595837  1
  Gd  Gd31  1  0.77325562  0.10090938  0.89561173  1
  Gd  Gd32  1  0.77100200  0.10298244  0.39000985  1
  Gd  Gd33  1  0.12893817  0.42307733  0.38718150  1
  Gd  Gd34  1  0.22410777  0.87305376  0.15739717  1
  Gd  Gd35  1  0.77087757  0.76597093  0.39173681  1
  N  N36  1  0.22782582  0.17385632  0.32339066  1
  N  N37  1  0.09546289  0.12005293  0.07556594  1
  N  N38  1  0.90215371  0.22357858  0.83189286  1
  N  N39  1  0.77650106  0.09259788  0.62021371  1
  N  N40  1  0.50678425  0.22596665  0.33369760  1
  N  N41  1  0.44315087  0.09343763  0.08288845  1
  N  N42  1  0.22393196  0.20448861  0.84107723  1
  N  N43  1  0.11063823  0.09778268  0.59613891  1
  N  N44  1  0.90744639  0.21711061  0.33799232  1
  N  N45  1  0.77239220  0.10043001  0.12414336  1
  N  N46  1  0.51998592  0.22154172  0.83093337  1
  N  N47  1  0.44211663  0.08928473  0.58460396  1
  N  N48  1  0.24262928  0.56557233  0.32177889  1
  N  N49  1  0.11887655  0.42659975  0.09282979  1
  N  N50  1  0.89042479  0.53770238  0.85609577  1
  N  N51  1  0.77704569  0.42760755  0.58827878  1
  N  N52  1  0.56141822  0.53552675  0.33924313  1
  N  N53  1  0.44862112  0.42785062  0.08354311  1
  N  N54  1  0.22555033  0.53712869  0.84069777  1
  N  N55  1  0.11114767  0.42617246  0.61120841  1
  N  N56  1  0.88214197  0.52580008  0.32332331  1
  N  N57  1  0.77618729  0.42650807  0.08515566  1
  N  N58  1  0.55827560  0.53282087  0.83526106  1
  N  N59  1  0.44194673  0.42855796  0.58487640  1
  N  N60  1  0.22503109  0.87371303  0.37995877  1
  N  N61  1  0.10138437  0.75084670  0.07289043  1
  N  N62  1  0.90191319  0.84533424  0.83952958  1
  N  N63  1  0.77727722  0.75644978  0.61243748  1
  N  N64  1  0.52189082  0.87969552  0.32317615  1
  N  N65  1  0.47127898  0.74321665  0.07545727  1
  N  N66  1  0.22285716  0.87219249  0.83868895  1
  N  N67  1  0.11112663  0.75548280  0.59630907  1
  N  N68  1  0.92819589  0.85527691  0.32559391  1
  N  N69  1  0.77556668  0.76613185  0.09212333  1
  N  N70  1  0.55455772  0.87403920  0.84209303  1
  N  N71  1  0.45105720  0.75585758  0.59644247  1
