# generated using pymatgen
data_Gd5Al31N36
_symmetry_space_group_name_H-M   'P 1'
_cell_length_a   9.72405738
_cell_length_b   9.73036312
_cell_length_c   10.32399476
_cell_angle_alpha   90.03863604
_cell_angle_beta   90.50237415
_cell_angle_gamma   59.81795588
_symmetry_Int_Tables_number   1
_chemical_formula_structural   Gd5Al31N36
_chemical_formula_sum   'Gd5 Al31 N36'
_cell_volume   844.37356184
_cell_formula_units_Z   1
loop_
 _symmetry_equiv_pos_site_id
 _symmetry_equiv_pos_as_xyz
  1  'x, y, z'
loop_
 _atom_site_type_symbol
 _atom_site_label
 _atom_site_symmetry_multiplicity
 _atom_site_fract_x
 _atom_site_fract_y
 _atom_site_fract_z
 _atom_site_occupancy
  Al  Al0  1  0.11323593  0.09914640  0.31333011  1
  Al  Al1  1  0.22160786  0.21054566  0.05238807  1
  Al  Al2  1  0.89367478  0.20815640  0.55690499  1
  Al  Al3  1  0.43160054  0.09309680  0.31492362  1
  Al  Al4  1  0.54580809  0.21021089  0.05923204  1
  Al  Al5  1  0.11213337  0.10606799  0.81037905  1
  Al  Al6  1  0.22414896  0.20155897  0.56553606  1
  Al  Al7  1  0.89085487  0.22024480  0.05995979  1
  Al  Al8  1  0.43800723  0.09984516  0.80768966  1
  Al  Al9  1  0.54386035  0.21051949  0.55596912  1
  Al  Al10  1  0.22190227  0.53439964  0.05255476  1
  Al  Al11  1  0.78228182  0.42838093  0.80743050  1
  Al  Al12  1  0.88749049  0.53571333  0.57038453  1
  Al  Al13  1  0.44188310  0.43758519  0.31306020  1
  Al  Al14  1  0.56522401  0.52897025  0.05561463  1
  Al  Al15  1  0.11397894  0.42693298  0.81078468  1
  Al  Al16  1  0.22810046  0.54146162  0.56604394  1
  Al  Al17  1  0.77405308  0.42984122  0.31438678  1
  Al  Al18  1  0.88796704  0.53796334  0.04372904  1
  Al  Al19  1  0.44054422  0.42854358  0.80992266  1
  Al  Al20  1  0.56107121  0.52798371  0.56787150  1
  Al  Al21  1  0.11873736  0.75573568  0.31429732  1
  Al  Al22  1  0.78163662  0.75586799  0.80630580  1
  Al  Al23  1  0.89616632  0.86539261  0.56172321  1
  Al  Al24  1  0.42646085  0.76636314  0.38823303  1
  Al  Al25  1  0.56180358  0.87614137  0.04214588  1
  Al  Al26  1  0.11378061  0.74891500  0.80902373  1
  Al  Al27  1  0.22474673  0.87034201  0.63331888  1
  Al  Al28  1  0.89229929  0.85806356  0.04964628  1
  Al  Al29  1  0.45536263  0.75300700  0.85584826  1
  Al  Al30  1  0.55179626  0.87819994  0.57353619  1
  Gd  Gd31  1  0.77539470  0.10016460  0.81639486  1
  Gd  Gd32  1  0.77618236  0.09650720  0.31448382  1
  Gd  Gd33  1  0.11680799  0.42826617  0.31182391  1
  Gd  Gd34  1  0.21853426  0.87427919  0.08355419  1
  Gd  Gd35  1  0.76278023  0.76100826  0.30773444  1
  N  N36  1  0.22948090  0.18326116  0.38452885  1
  N  N37  1  0.09737517  0.13402552  0.12852620  1
  N  N38  1  0.90774527  0.22257515  0.87774555  1
  N  N39  1  0.77516747  0.09672130  0.58832903  1
  N  N40  1  0.51586354  0.22386050  0.37180996  1
  N  N41  1  0.44469474  0.09069614  0.12114167  1
  N  N42  1  0.22541636  0.20396505  0.86599438  1
  N  N43  1  0.10890704  0.09812152  0.62500796  1
  N  N44  1  0.90279578  0.21895898  0.37491152  1
  N  N45  1  0.78179062  0.09276096  0.08447756  1
  N  N46  1  0.52121378  0.22178313  0.87766380  1
  N  N47  1  0.44308217  0.09832921  0.62453039  1
  N  N48  1  0.24144467  0.55516345  0.38563917  1
  N  N49  1  0.11040805  0.42823800  0.08930722  1
  N  N50  1  0.88895497  0.53777161  0.85744194  1
  N  N51  1  0.77928734  0.42263054  0.62423244  1
  N  N52  1  0.55876242  0.53462304  0.37616585  1
  N  N53  1  0.44403453  0.43087302  0.12172403  1
  N  N54  1  0.22628247  0.53768623  0.86635315  1
  N  N55  1  0.11496383  0.42741622  0.61871266  1
  N  N56  1  0.87597618  0.52638271  0.39026187  1
  N  N57  1  0.77649200  0.43350910  0.12333854  1
  N  N58  1  0.56524591  0.52208270  0.86429792  1
  N  N59  1  0.44775020  0.42403889  0.62481272  1
  N  N60  1  0.22051681  0.87480060  0.32393418  1
  N  N61  1  0.09501545  0.73653201  0.12833674  1
  N  N62  1  0.90652699  0.84261022  0.86717397  1
  N  N63  1  0.77784001  0.76156494  0.61865621  1
  N  N64  1  0.52420868  0.88964730  0.38944747  1
  N  N65  1  0.47388642  0.74743068  0.05588068  1
  N  N66  1  0.22380003  0.87174667  0.83369233  1
  N  N67  1  0.11181294  0.75796044  0.62608895  1
  N  N68  1  0.91685980  0.84923605  0.38304066  1
  N  N69  1  0.77627878  0.75844879  0.08872767  1
  N  N70  1  0.55921121  0.87884490  0.85365839  1
  N  N71  1  0.44409375  0.75576690  0.59610500  1
