# generated using pymatgen
data_Gd5Al31N36
_symmetry_space_group_name_H-M   'P 1'
_cell_length_a   9.67315057
_cell_length_b   9.63848003
_cell_length_c   10.65743512
_cell_angle_alpha   90.83520693
_cell_angle_beta   91.19912948
_cell_angle_gamma   60.24326273
_symmetry_Int_Tables_number   1
_chemical_formula_structural   Gd5Al31N36
_chemical_formula_sum   'Gd5 Al31 N36'
_cell_volume   862.42038461
_cell_formula_units_Z   1
loop_
 _symmetry_equiv_pos_site_id
 _symmetry_equiv_pos_as_xyz
  1  'x, y, z'
loop_
 _atom_site_type_symbol
 _atom_site_label
 _atom_site_symmetry_multiplicity
 _atom_site_fract_x
 _atom_site_fract_y
 _atom_site_fract_z
 _atom_site_occupancy
  Al  Al0  1  0.11137724  0.08978964  0.40641425  1
  Al  Al1  1  0.22919716  0.21075591  0.05358307  1
  Al  Al2  1  0.89220136  0.21107016  0.63780563  1
  Al  Al3  1  0.43289273  0.09306705  0.32789392  1
  Al  Al4  1  0.54891260  0.21027444  0.07329242  1
  Al  Al5  1  0.10772544  0.09726211  0.88310299  1
  Al  Al6  1  0.22713244  0.20422650  0.57973940  1
  Al  Al7  1  0.89693074  0.21920859  0.13161076  1
  Al  Al8  1  0.43440514  0.09848105  0.81910665  1
  Al  Al9  1  0.54392673  0.21237692  0.56558711  1
  Al  Al10  1  0.23261053  0.52784103  0.05343627  1
  Al  Al11  1  0.77590284  0.42656425  0.88542399  1
  Al  Al12  1  0.88619091  0.53944062  0.58117792  1
  Al  Al13  1  0.43906020  0.43642073  0.31981579  1
  Al  Al14  1  0.57139531  0.53871822  0.13745307  1
  Al  Al15  1  0.10843386  0.42405111  0.81752078  1
  Al  Al16  1  0.22669995  0.53334053  0.59513476  1
  Al  Al17  1  0.77328821  0.42432095  0.39842410  1
  Al  Al18  1  0.89814071  0.54332568  0.04749658  1
  Al  Al19  1  0.43663293  0.42588745  0.82210631  1
  Al  Al20  1  0.55780310  0.53668022  0.64762841  1
  Al  Al21  1  0.12563986  0.75957483  0.42011150  1
  Al  Al22  1  0.77613862  0.75469060  0.81534905  1
  Al  Al23  1  0.88496641  0.86943860  0.57846029  1
  Al  Al24  1  0.43649304  0.75564256  0.41077777  1
  Al  Al25  1  0.56566082  0.87585201  0.05355745  1
  Al  Al26  1  0.11694739  0.75683152  0.87780255  1
  Al  Al27  1  0.22258589  0.87253257  0.65022048  1
  Al  Al28  1  0.88947279  0.86799316  0.05230288  1
  Al  Al29  1  0.44869327  0.75389286  0.88608463  1
  Al  Al30  1  0.55075042  0.87871550  0.58113982  1
  Gd  Gd31  1  0.76018954  0.09935720  0.82558657  1
  Gd  Gd32  1  0.77781677  0.09306244  0.33045034  1
  Gd  Gd33  1  0.11687021  0.42430042  0.31876852  1
  Gd  Gd34  1  0.22971664  0.87254411  0.14655586  1
  Gd  Gd35  1  0.76219740  0.75688530  0.31459093  1
  N  N36  1  0.23521238  0.18572015  0.40055077  1
  N  N37  1  0.09915540  0.11625863  0.06302351  1
  N  N38  1  0.90200736  0.22206379  0.81675124  1
  N  N39  1  0.77180765  0.09824204  0.60399586  1
  N  N40  1  0.52021161  0.22466613  0.38518118  1
  N  N41  1  0.44468852  0.08919208  0.13553725  1
  N  N42  1  0.22428727  0.20574756  0.87160202  1
  N  N43  1  0.10744315  0.09112498  0.58850120  1
  N  N44  1  0.91294577  0.22399033  0.31792019  1
  N  N45  1  0.78144395  0.09387729  0.10418514  1
  N  N46  1  0.51381319  0.22524559  0.89812206  1
  N  N47  1  0.44542560  0.09691750  0.63928988  1
  N  N48  1  0.24636744  0.54452188  0.40068433  1
  N  N49  1  0.11619320  0.42789307  0.10047181  1
  N  N50  1  0.88941589  0.53882165  0.86773473  1
  N  N51  1  0.76661671  0.42340614  0.58123084  1
  N  N52  1  0.56325891  0.54701164  0.32532802  1
  N  N53  1  0.44355834  0.42899237  0.13378500  1
  N  N54  1  0.22423794  0.53329670  0.86640726  1
  N  N55  1  0.10851701  0.42523273  0.63539646  1
  N  N56  1  0.88469445  0.53131828  0.40587677  1
  N  N57  1  0.77964840  0.42885824  0.07012507  1
  N  N58  1  0.55969234  0.53690608  0.82897883  1
  N  N59  1  0.44515628  0.41792606  0.64175367  1
  N  N60  1  0.21961889  0.87215316  0.36049760  1
  N  N61  1  0.11109410  0.74959165  0.06414916  1
  N  N62  1  0.89618022  0.84812505  0.87112593  1
  N  N63  1  0.77200237  0.76143503  0.63438724  1
  N  N64  1  0.52767423  0.88949225  0.40161557  1
  N  N65  1  0.47392369  0.74337430  0.06588307  1
  N  N66  1  0.22536085  0.87281737  0.83283834  1
  N  N67  1  0.11259765  0.76099189  0.60627004  1
  N  N68  1  0.90904525  0.84966644  0.40043815  1
  N  N69  1  0.78298921  0.75989254  0.10107093  1
  N  N70  1  0.55642033  0.87945461  0.87144827  1
  N  N71  1  0.44182917  0.75344385  0.59292754  1
