# generated using pymatgen
data_Gd5Al31N36
_symmetry_space_group_name_H-M   'P 1'
_cell_length_a   9.67622154
_cell_length_b   9.65212103
_cell_length_c   10.60165321
_cell_angle_alpha   90.76906867
_cell_angle_beta   90.77035259
_cell_angle_gamma   60.21863984
_symmetry_Int_Tables_number   1
_chemical_formula_structural   Gd5Al31N36
_chemical_formula_sum   'Gd5 Al31 N36'
_cell_volume   859.27668343
_cell_formula_units_Z   1
loop_
 _symmetry_equiv_pos_site_id
 _symmetry_equiv_pos_as_xyz
  1  'x, y, z'
loop_
 _atom_site_type_symbol
 _atom_site_label
 _atom_site_symmetry_multiplicity
 _atom_site_fract_x
 _atom_site_fract_y
 _atom_site_fract_z
 _atom_site_occupancy
  Al  Al0  1  0.11016394  0.09268034  0.39284635  1
  Al  Al1  1  0.22520371  0.21262135  0.04158757  1
  Al  Al2  1  0.89104139  0.21001056  0.62706017  1
  Al  Al3  1  0.43341463  0.09255616  0.31489434  1
  Al  Al4  1  0.54211389  0.21394031  0.06273609  1
  Al  Al5  1  0.10737421  0.09906263  0.86970697  1
  Al  Al6  1  0.22788279  0.20488150  0.56692607  1
  Al  Al7  1  0.89306147  0.22048515  0.11733149  1
  Al  Al8  1  0.43457606  0.09889542  0.80705793  1
  Al  Al9  1  0.54813520  0.20850213  0.55730029  1
  Al  Al10  1  0.22240712  0.53861506  0.04494387  1
  Al  Al11  1  0.77487698  0.42849574  0.87270163  1
  Al  Al12  1  0.88971891  0.53684603  0.56877679  1
  Al  Al13  1  0.44305253  0.43556916  0.31196906  1
  Al  Al14  1  0.56702835  0.53987541  0.12568358  1
  Al  Al15  1  0.11012572  0.42588934  0.80612817  1
  Al  Al16  1  0.23366728  0.52913805  0.57497377  1
  Al  Al17  1  0.77534672  0.42207236  0.38560879  1
  Al  Al18  1  0.89523434  0.54337751  0.03682037  1
  Al  Al19  1  0.43494524  0.42736032  0.81145451  1
  Al  Al20  1  0.55938816  0.53533140  0.63538891  1
  Al  Al21  1  0.12644257  0.76118175  0.39713490  1
  Al  Al22  1  0.77588360  0.75429842  0.80535035  1
  Al  Al23  1  0.88563001  0.86880209  0.57246268  1
  Al  Al24  1  0.43973840  0.75555427  0.39727317  1
  Al  Al25  1  0.56173349  0.87668244  0.04293194  1
  Al  Al26  1  0.11407130  0.75334426  0.81016758  1
  Al  Al27  1  0.22736210  0.87655327  0.63530042  1
  Al  Al28  1  0.89440871  0.86106649  0.04189576  1
  Al  Al29  1  0.44699355  0.75446508  0.87416322  1
  Al  Al30  1  0.55313328  0.87733944  0.56923636  1
  Gd  Gd31  1  0.76351244  0.09969491  0.82604013  1
  Gd  Gd32  1  0.77897589  0.08739307  0.31448713  1
  Gd  Gd33  1  0.12361255  0.42761392  0.30603570  1
  Gd  Gd34  1  0.22407692  0.87471771  0.13274160  1
  Gd  Gd35  1  0.76841341  0.75422540  0.30358566  1
  N  N36  1  0.23402499  0.18834128  0.38615525  1
  N  N37  1  0.09508788  0.11872773  0.04918686  1
  N  N38  1  0.90180444  0.22399423  0.80503865  1
  N  N39  1  0.77279210  0.09574814  0.59958843  1
  N  N40  1  0.52252103  0.22335146  0.37504611  1
  N  N41  1  0.44050858  0.09108966  0.12374088  1
  N  N42  1  0.22370746  0.20769588  0.85844735  1
  N  N43  1  0.10698513  0.09259402  0.57538438  1
  N  N44  1  0.91037108  0.22036283  0.30541564  1
  N  N45  1  0.77698056  0.09513413  0.08796859  1
  N  N46  1  0.51119858  0.22731983  0.88607384  1
  N  N47  1  0.44538583  0.09532498  0.62644723  1
  N  N48  1  0.25237372  0.54666335  0.39867725  1
  N  N49  1  0.11227458  0.42787427  0.08886818  1
  N  N50  1  0.88990862  0.53870971  0.85557916  1
  N  N51  1  0.76886121  0.42192480  0.56890665  1
  N  N52  1  0.56502991  0.54651486  0.31460080  1
  N  N53  1  0.43755018  0.43108643  0.12604411  1
  N  N54  1  0.22235168  0.53904260  0.86069323  1
  N  N55  1  0.11241063  0.42605108  0.62198376  1
  N  N56  1  0.89009293  0.52612755  0.39144289  1
  N  N57  1  0.77544274  0.43003232  0.05787894  1
  N  N58  1  0.55888931  0.53772310  0.81681220  1
  N  N59  1  0.44729591  0.41621555  0.63068260  1
  N  N60  1  0.22275005  0.87408678  0.35037063  1
  N  N61  1  0.09957902  0.74604417  0.09663541  1
  N  N62  1  0.90287858  0.84264831  0.86025080  1
  N  N63  1  0.77325572  0.75887358  0.62307126  1
  N  N64  1  0.53125078  0.88883869  0.38829945  1
  N  N65  1  0.47052471  0.74343889  0.05381803  1
  N  N66  1  0.22569210  0.87515986  0.81902313  1
  N  N67  1  0.11345559  0.75744430  0.61703820  1
  N  N68  1  0.91280630  0.84783706  0.39664328  1
  N  N69  1  0.77732216  0.76100719  0.08885201  1
  N  N70  1  0.55550831  0.88040339  0.85973040  1
  N  N71  1  0.44437306  0.75213677  0.57968541  1
