# generated using pymatgen
data_Gd5Al31N36
_symmetry_space_group_name_H-M   'P 1'
_cell_length_a   9.60485944
_cell_length_b   9.58096259
_cell_length_c   10.71165414
_cell_angle_alpha   90.67982905
_cell_angle_beta   90.80723460
_cell_angle_gamma   60.49823782
_symmetry_Int_Tables_number   1
_chemical_formula_structural   Gd5Al31N36
_chemical_formula_sum   'Gd5 Al31 N36'
_cell_volume   857.81937841
_cell_formula_units_Z   1
loop_
 _symmetry_equiv_pos_site_id
 _symmetry_equiv_pos_as_xyz
  1  'x, y, z'
loop_
 _atom_site_type_symbol
 _atom_site_label
 _atom_site_symmetry_multiplicity
 _atom_site_fract_x
 _atom_site_fract_y
 _atom_site_fract_z
 _atom_site_occupancy
  Al  Al0  1  0.11172209  0.08788080  0.42550106  1
  Al  Al1  1  0.23059976  0.21811956  0.05888580  1
  Al  Al2  1  0.88468552  0.20478227  0.66204871  1
  Al  Al3  1  0.43458450  0.09447079  0.36884518  1
  Al  Al4  1  0.54728081  0.21250896  0.16017640  1
  Al  Al5  1  0.10764763  0.09789283  0.89441841  1
  Al  Al6  1  0.22074554  0.20450103  0.59940046  1
  Al  Al7  1  0.89626920  0.22343479  0.15650747  1
  Al  Al8  1  0.43568474  0.09490443  0.82310100  1
  Al  Al9  1  0.55150682  0.21166800  0.65509136  1
  Al  Al10  1  0.23232405  0.54702912  0.14304409  1
  Al  Al11  1  0.77483156  0.42669346  0.89971965  1
  Al  Al12  1  0.88543768  0.53772787  0.59373713  1
  Al  Al13  1  0.44039360  0.43733191  0.40121695  1
  Al  Al14  1  0.56808381  0.53709246  0.14637236  1
  Al  Al15  1  0.10913624  0.42595504  0.82711105  1
  Al  Al16  1  0.22458540  0.53953513  0.65337414  1
  Al  Al17  1  0.77280172  0.42350259  0.41596081  1
  Al  Al18  1  0.90205738  0.54837144  0.05596689  1
  Al  Al19  1  0.43915149  0.43136968  0.90177482  1
  Al  Al20  1  0.55345663  0.53251881  0.65786078  1
  Al  Al21  1  0.11689731  0.75262363  0.40706205  1
  Al  Al22  1  0.77748488  0.75091674  0.82604115  1
  Al  Al23  1  0.89277601  0.86489987  0.65536605  1
  Al  Al24  1  0.43146385  0.75677762  0.42585311  1
  Al  Al25  1  0.56749222  0.88161645  0.05369602  1
  Al  Al26  1  0.11591873  0.75204288  0.89782698  1
  Al  Al27  1  0.21752603  0.86839271  0.65787566  1
  Al  Al28  1  0.90468271  0.86705096  0.15083144  1
  Al  Al29  1  0.44689552  0.75387206  0.89378737  1
  Al  Al30  1  0.55255383  0.87177371  0.59678011  1
  Gd  Gd31  1  0.77424745  0.08813306  0.91358868  1
  Gd  Gd32  1  0.78422582  0.09089234  0.39305706  1
  Gd  Gd33  1  0.10776816  0.41438308  0.32833515  1
  Gd  Gd34  1  0.23556316  0.88354634  0.15896083  1
  Gd  Gd35  1  0.74387934  0.74478804  0.30996033  1
  N  N36  1  0.23339015  0.18709889  0.42342096  1
  N  N37  1  0.09580143  0.12443322  0.07438639  1
  N  N38  1  0.89559385  0.21745462  0.83695462  1
  N  N39  1  0.77391208  0.08881659  0.61328059  1
  N  N40  1  0.52253709  0.22510859  0.33897558  1
  N  N41  1  0.44356437  0.09082328  0.12287758  1
  N  N42  1  0.22525220  0.20866106  0.87897922  1
  N  N43  1  0.10053818  0.08911266  0.60583421  1
  N  N44  1  0.91604635  0.22418563  0.33691019  1
  N  N45  1  0.77994669  0.10148060  0.13375800  1
  N  N46  1  0.53110628  0.22589568  0.83310250  1
  N  N47  1  0.43972130  0.09037493  0.64535071  1
  N  N48  1  0.24119928  0.55638036  0.32658981  1
  N  N49  1  0.11750100  0.43382670  0.11285101  1
  N  N50  1  0.89194049  0.53651196  0.87989527  1
  N  N51  1  0.76720106  0.41704330  0.59721176  1
  N  N52  1  0.56100854  0.54373120  0.34080985  1
  N  N53  1  0.45191498  0.42784262  0.08684679  1
  N  N54  1  0.22885531  0.54042356  0.83581554  1
  N  N55  1  0.10559891  0.42475140  0.64659930  1
  N  N56  1  0.87975413  0.53643088  0.42064316  1
  N  N57  1  0.78151314  0.43268953  0.08705985  1
  N  N58  1  0.55687058  0.53436949  0.83913000  1
  N  N59  1  0.43966803  0.42731098  0.58560653  1
  N  N60  1  0.21800971  0.87478017  0.37252488  1
  N  N61  1  0.10934078  0.75646794  0.07612400  1
  N  N62  1  0.90967340  0.84508928  0.83112330  1
  N  N63  1  0.76947760  0.75448597  0.64625509  1
  N  N64  1  0.52944473  0.88679876  0.41890445  1
  N  N65  1  0.47772435  0.74432916  0.07497737  1
  N  N66  1  0.22265373  0.87177658  0.84267315  1
  N  N67  1  0.10781058  0.75471988  0.59007092  1
  N  N68  1  0.91650549  0.84007428  0.32738191  1
  N  N69  1  0.78454828  0.76888931  0.09887056  1
  N  N70  1  0.55717999  0.87752810  0.87517445  1
  N  N71  1  0.43837325  0.75082260  0.60582101  1
