# generated using pymatgen
data_Gd5Al31N36
_symmetry_space_group_name_H-M   'P 1'
_cell_length_a   9.70167611
_cell_length_b   9.67271523
_cell_length_c   10.29059382
_cell_angle_alpha   90.00528177
_cell_angle_beta   90.22139190
_cell_angle_gamma   59.95413158
_symmetry_Int_Tables_number   1
_chemical_formula_structural   Gd5Al31N36
_chemical_formula_sum   'Gd5 Al31 N36'
_cell_volume   835.91303886
_cell_formula_units_Z   1
loop_
 _symmetry_equiv_pos_site_id
 _symmetry_equiv_pos_as_xyz
  1  'x, y, z'
loop_
 _atom_site_type_symbol
 _atom_site_label
 _atom_site_symmetry_multiplicity
 _atom_site_fract_x
 _atom_site_fract_y
 _atom_site_fract_z
 _atom_site_occupancy
  Al  Al0  1  0.11422656  0.09720375  0.31428280  1
  Al  Al1  1  0.22140010  0.20803787  0.04853773  1
  Al  Al2  1  0.89131425  0.21040673  0.55457335  1
  Al  Al3  1  0.43304122  0.09263470  0.31191153  1
  Al  Al4  1  0.54454203  0.21067759  0.05577360  1
  Al  Al5  1  0.11531705  0.09637269  0.80106848  1
  Al  Al6  1  0.22468121  0.20137274  0.56355356  1
  Al  Al7  1  0.89274641  0.21642369  0.05539486  1
  Al  Al8  1  0.43677837  0.09741992  0.80706275  1
  Al  Al9  1  0.54340110  0.21118122  0.55480560  1
  Al  Al10  1  0.22134055  0.53622128  0.04879196  1
  Al  Al11  1  0.77880291  0.43138104  0.80677382  1
  Al  Al12  1  0.88618839  0.53679612  0.56926162  1
  Al  Al13  1  0.44191251  0.43572713  0.31010814  1
  Al  Al14  1  0.56375963  0.53555198  0.06090410  1
  Al  Al15  1  0.11384594  0.42720125  0.80765349  1
  Al  Al16  1  0.22821685  0.54115353  0.56380368  1
  Al  Al17  1  0.77691303  0.42780768  0.31026639  1
  Al  Al18  1  0.89025212  0.53592530  0.03931042  1
  Al  Al19  1  0.43901869  0.43341153  0.80937239  1
  Al  Al20  1  0.55769644  0.53498974  0.55907412  1
  Al  Al21  1  0.11907266  0.75569925  0.31509838  1
  Al  Al22  1  0.77862542  0.75679655  0.80719927  1
  Al  Al23  1  0.89396165  0.86606960  0.55994228  1
  Al  Al24  1  0.44618277  0.75806505  0.31706672  1
  Al  Al25  1  0.55857070  0.87057104  0.04754358  1
  Al  Al26  1  0.11741858  0.75619475  0.79925767  1
  Al  Al27  1  0.22227280  0.87191409  0.55676271  1
  Al  Al28  1  0.89320520  0.85971201  0.04424829  1
  Al  Al29  1  0.44496538  0.75901356  0.80058881  1
  Al  Al30  1  0.55008122  0.87553496  0.56494450  1
  Gd  Gd31  1  0.77349586  0.10141660  0.81218922  1
  Gd  Gd32  1  0.77501389  0.09741632  0.31113392  1
  Gd  Gd33  1  0.11750481  0.42658319  0.30907960  1
  Gd  Gd34  1  0.22412319  0.86995518  0.06685111  1
  Gd  Gd35  1  0.76747366  0.75894497  0.30155043  1
  N  N36  1  0.23149436  0.18206710  0.38195588  1
  N  N37  1  0.10048584  0.12461866  0.12862002  1
  N  N38  1  0.90839304  0.22178470  0.87242511  1
  N  N39  1  0.77360437  0.09790989  0.58495329  1
  N  N40  1  0.51596910  0.22344457  0.37011194  1
  N  N41  1  0.44327836  0.09099274  0.11842841  1
  N  N42  1  0.22273205  0.20252831  0.86140141  1
  N  N43  1  0.10973241  0.09394546  0.61526030  1
  N  N44  1  0.90330082  0.21832470  0.37205317  1
  N  N45  1  0.77992405  0.09325289  0.08063674  1
  N  N46  1  0.51855101  0.22382715  0.87438494  1
  N  N47  1  0.44412762  0.09549241  0.62252616  1
  N  N48  1  0.24176041  0.55303027  0.38249713  1
  N  N49  1  0.11111814  0.42725584  0.08573936  1
  N  N50  1  0.88957253  0.53732910  0.85385281  1
  N  N51  1  0.77491515  0.42541809  0.62232335  1
  N  N52  1  0.56024675  0.53335628  0.36982378  1
  N  N53  1  0.44270468  0.43196830  0.11890909  1
  N  N54  1  0.22347743  0.54260151  0.86192301  1
  N  N55  1  0.11458515  0.42765753  0.61571389  1
  N  N56  1  0.87634127  0.52605052  0.38840080  1
  N  N57  1  0.78039449  0.43036698  0.11878333  1
  N  N58  1  0.55693638  0.53863038  0.86981733  1
  N  N59  1  0.44809072  0.42690982  0.62268715  1
  N  N60  1  0.22216145  0.87295348  0.35963267  1
  N  N61  1  0.09633014  0.74140108  0.12869123  1
  N  N62  1  0.90807463  0.84321811  0.86101442  1
  N  N63  1  0.77459634  0.76317941  0.61766770  1
  N  N64  1  0.52678022  0.88595447  0.38285892  1
  N  N65  1  0.47958076  0.74625066  0.13048060  1
  N  N66  1  0.22335898  0.87250089  0.84702969  1
  N  N67  1  0.11350951  0.76173940  0.61610222  1
  N  N68  1  0.91587418  0.85064665  0.38055699  1
  N  N69  1  0.77809930  0.75750556  0.08149815  1
  N  N70  1  0.55127726  0.87371399  0.85994089  1
  N  N71  1  0.44510000  0.75694113  0.61401317  1
