# generated using pymatgen
data_Gd5Al31N36
_symmetry_space_group_name_H-M   'P 1'
_cell_length_a   9.65935712
_cell_length_b   9.65279458
_cell_length_c   10.59222627
_cell_angle_alpha   91.02634215
_cell_angle_beta   90.92945271
_cell_angle_gamma   60.49254372
_symmetry_Int_Tables_number   1
_chemical_formula_structural   Gd5Al31N36
_chemical_formula_sum   'Gd5 Al31 N36'
_cell_volume   859.34578226
_cell_formula_units_Z   1
loop_
 _symmetry_equiv_pos_site_id
 _symmetry_equiv_pos_as_xyz
  1  'x, y, z'
loop_
 _atom_site_type_symbol
 _atom_site_label
 _atom_site_symmetry_multiplicity
 _atom_site_fract_x
 _atom_site_fract_y
 _atom_site_fract_z
 _atom_site_occupancy
  Al  Al0  1  0.11597396  0.08063127  0.40411580  1
  Al  Al1  1  0.22416202  0.21661389  0.03561748  1
  Al  Al2  1  0.88953609  0.20809290  0.60931078  1
  Al  Al3  1  0.43416632  0.09140460  0.31485421  1
  Al  Al4  1  0.54139283  0.21459236  0.05653903  1
  Al  Al5  1  0.11206511  0.09774120  0.85702699  1
  Al  Al6  1  0.23082547  0.20555972  0.57046521  1
  Al  Al7  1  0.88090652  0.21287622  0.04821181  1
  Al  Al8  1  0.43586774  0.09965867  0.80396781  1
  Al  Al9  1  0.54696675  0.21145181  0.55201152  1
  Al  Al10  1  0.22234305  0.53956553  0.05243499  1
  Al  Al11  1  0.76919067  0.43499949  0.85933649  1
  Al  Al12  1  0.89069773  0.54189720  0.57325391  1
  Al  Al13  1  0.44082570  0.43337511  0.30952643  1
  Al  Al14  1  0.56913999  0.53823239  0.12618394  1
  Al  Al15  1  0.11301595  0.43023591  0.80360390  1
  Al  Al16  1  0.22785585  0.54175888  0.56249031  1
  Al  Al17  1  0.77038005  0.42630285  0.39847404  1
  Al  Al18  1  0.89400639  0.54108712  0.03287898  1
  Al  Al19  1  0.43260275  0.43020574  0.80863731  1
  Al  Al20  1  0.55429332  0.54105900  0.63465924  1
  Al  Al21  1  0.11822258  0.75119225  0.31870966  1
  Al  Al22  1  0.78096269  0.75458522  0.80493495  1
  Al  Al23  1  0.89783045  0.86580348  0.55873096  1
  Al  Al24  1  0.43589061  0.75585305  0.39432349  1
  Al  Al25  1  0.56506597  0.87691233  0.04117470  1
  Al  Al26  1  0.11600604  0.75073994  0.80763789  1
  Al  Al27  1  0.22907592  0.87052422  0.63653613  1
  Al  Al28  1  0.89772182  0.85775823  0.04708357  1
  Al  Al29  1  0.44922914  0.75514364  0.87373324  1
  Al  Al30  1  0.55541498  0.87833297  0.56666091  1
  Gd  Gd31  1  0.76136443  0.08646326  0.80926483  1
  Gd  Gd32  1  0.78100629  0.09492970  0.30871474  1
  Gd  Gd33  1  0.11605670  0.41576176  0.30735937  1
  Gd  Gd34  1  0.22880648  0.88505655  0.12352600  1
  Gd  Gd35  1  0.76679835  0.75418935  0.30219407  1
  N  N36  1  0.23716198  0.18032358  0.39039418  1
  N  N37  1  0.09557411  0.12208351  0.04016202  1
  N  N38  1  0.89384035  0.21805614  0.81792012  1
  N  N39  1  0.77367511  0.09427132  0.59031607  1
  N  N40  1  0.52200263  0.22316578  0.37156154  1
  N  N41  1  0.43880016  0.09193581  0.11969938  1
  N  N42  1  0.22412714  0.21124324  0.85233679  1
  N  N43  1  0.11566237  0.08824292  0.58967773  1
  N  N44  1  0.90639909  0.21582385  0.36302689  1
  N  N45  1  0.77696636  0.09337709  0.07838162  1
  N  N46  1  0.51362342  0.22851564  0.88044589  1
  N  N47  1  0.44981351  0.09570504  0.62495574  1
  N  N48  1  0.24205707  0.54940329  0.38436220  1
  N  N49  1  0.10999436  0.42905413  0.08801978  1
  N  N50  1  0.89147073  0.53825108  0.85026335  1
  N  N51  1  0.76788544  0.43088425  0.58375179  1
  N  N52  1  0.56518978  0.54347848  0.31627886  1
  N  N53  1  0.43984688  0.42948123  0.12367824  1
  N  N54  1  0.22359178  0.54223426  0.86916553  1
  N  N55  1  0.11530172  0.42953229  0.61979535  1
  N  N56  1  0.88452974  0.53125324  0.39620671  1
  N  N57  1  0.77154953  0.43178877  0.04904026  1
  N  N58  1  0.55281139  0.54302211  0.81446379  1
  N  N59  1  0.44212345  0.42185814  0.62485741  1
  N  N60  1  0.22319418  0.87181408  0.33864566  1
  N  N61  1  0.09842759  0.74438307  0.13084866  1
  N  N62  1  0.91186483  0.83686911  0.87051124  1
  N  N63  1  0.77679721  0.76581868  0.62230194  1
  N  N64  1  0.53090885  0.88779010  0.38625445  1
  N  N65  1  0.47532103  0.74227443  0.05380853  1
  N  N66  1  0.22947666  0.87215299  0.82310483  1
  N  N67  1  0.11178996  0.75705131  0.62678681  1
  N  N68  1  0.91642492  0.84952203  0.38401076  1
  N  N69  1  0.77929981  0.75773265  0.08728626  1
  N  N70  1  0.55870167  0.88180478  0.85830141  1
  N  N71  1  0.44325275  0.75471227  0.57726141  1
