# generated using pymatgen
data_Gd5Al31N36
_symmetry_space_group_name_H-M   'P 1'
_cell_length_a   9.67380792
_cell_length_b   9.64091464
_cell_length_c   10.64430358
_cell_angle_alpha   90.80454504
_cell_angle_beta   90.83780726
_cell_angle_gamma   60.25812917
_symmetry_Int_Tables_number   1
_chemical_formula_structural   Gd5Al31N36
_chemical_formula_sum   'Gd5 Al31 N36'
_cell_volume   861.84198118
_cell_formula_units_Z   1
loop_
 _symmetry_equiv_pos_site_id
 _symmetry_equiv_pos_as_xyz
  1  'x, y, z'
loop_
 _atom_site_type_symbol
 _atom_site_label
 _atom_site_symmetry_multiplicity
 _atom_site_fract_x
 _atom_site_fract_y
 _atom_site_fract_z
 _atom_site_occupancy
  Al  Al0  1  0.11104429  0.09024270  0.39390770  1
  Al  Al1  1  0.22569009  0.21374513  0.04189810  1
  Al  Al2  1  0.89263810  0.20978268  0.62609334  1
  Al  Al3  1  0.43288167  0.09231909  0.31564488  1
  Al  Al4  1  0.54459572  0.21280458  0.06252349  1
  Al  Al5  1  0.10696264  0.09970150  0.87044999  1
  Al  Al6  1  0.22811339  0.20353723  0.56747106  1
  Al  Al7  1  0.89379897  0.22078126  0.11914417  1
  Al  Al8  1  0.43420795  0.09896095  0.80768362  1
  Al  Al9  1  0.54672506  0.20911171  0.55568041  1
  Al  Al10  1  0.22922040  0.53006956  0.04344606  1
  Al  Al11  1  0.77538869  0.42783297  0.87294004  1
  Al  Al12  1  0.88945463  0.53706411  0.56866962  1
  Al  Al13  1  0.44227302  0.43532512  0.31163740  1
  Al  Al14  1  0.56838197  0.53983746  0.12658145  1
  Al  Al15  1  0.11015214  0.42638386  0.80408157  1
  Al  Al16  1  0.23275629  0.53101139  0.57449161  1
  Al  Al17  1  0.77523935  0.42187165  0.38652445  1
  Al  Al18  1  0.89615004  0.54382417  0.03636906  1
  Al  Al19  1  0.43526956  0.42666367  0.80993543  1
  Al  Al20  1  0.55918689  0.53569219  0.63560627  1
  Al  Al21  1  0.12674807  0.76218708  0.40996927  1
  Al  Al22  1  0.77585857  0.75444134  0.80342145  1
  Al  Al23  1  0.88682660  0.86729154  0.56885319  1
  Al  Al24  1  0.43712031  0.75564410  0.39851219  1
  Al  Al25  1  0.56312833  0.87684346  0.04255115  1
  Al  Al26  1  0.11638877  0.75700700  0.86603819  1
  Al  Al27  1  0.22315703  0.87206048  0.63940962  1
  Al  Al28  1  0.88652468  0.86859581  0.04051619  1
  Al  Al29  1  0.44818571  0.75410589  0.87443987  1
  Al  Al30  1  0.55159641  0.87725564  0.56953463  1
  Gd  Gd31  1  0.76072584  0.10044173  0.81759056  1
  Gd  Gd32  1  0.77819492  0.08921900  0.31749287  1
  Gd  Gd33  1  0.12214894  0.42600760  0.30867220  1
  Gd  Gd34  1  0.22605671  0.87582571  0.13310292  1
  Gd  Gd35  1  0.76441067  0.75363327  0.30376873  1
  N  N36  1  0.23437747  0.18654912  0.38755919  1
  N  N37  1  0.09588471  0.11935790  0.05007493  1
  N  N38  1  0.90186572  0.22324130  0.80461412  1
  N  N39  1  0.77317309  0.09589765  0.59449735  1
  N  N40  1  0.52095075  0.22332718  0.37477613  1
  N  N41  1  0.44118800  0.09087767  0.12381455  1
  N  N42  1  0.22333460  0.20840286  0.85937344  1
  N  N43  1  0.10833048  0.09034432  0.57645024  1
  N  N44  1  0.91185593  0.22093321  0.30588712  1
  N  N45  1  0.77779672  0.09561996  0.09113809  1
  N  N46  1  0.51235200  0.22661234  0.88684169  1
  N  N47  1  0.44578441  0.09537377  0.62753822  1
  N  N48  1  0.25158745  0.54556069  0.39518554  1
  N  N49  1  0.11262819  0.43002089  0.09140161  1
  N  N50  1  0.89038910  0.53894887  0.85593966  1
  N  N51  1  0.76868366  0.42196360  0.56934763  1
  N  N52  1  0.56518359  0.54616300  0.31466016  1
  N  N53  1  0.43885858  0.43089925  0.12594976  1
  N  N54  1  0.22489884  0.53340492  0.85977855  1
  N  N55  1  0.11231442  0.42571892  0.62136586  1
  N  N56  1  0.88886355  0.52672077  0.39279485  1
  N  N57  1  0.77646487  0.43012996  0.05802104  1
  N  N58  1  0.55929961  0.53734103  0.81692129  1
  N  N59  1  0.44740164  0.41608625  0.63004626  1
  N  N60  1  0.22114363  0.87245664  0.34732035  1
  N  N61  1  0.10701225  0.75175034  0.05486561  1
  N  N62  1  0.89582664  0.84781147  0.85902344  1
  N  N63  1  0.77275756  0.75920420  0.62212067  1
  N  N64  1  0.52865201  0.88915725  0.38960433  1
  N  N65  1  0.47161209  0.74390017  0.05450152  1
  N  N66  1  0.22490232  0.87388010  0.82221196  1
  N  N67  1  0.11410079  0.76009875  0.59613920  1
  N  N68  1  0.91151204  0.84640156  0.38950031  1
  N  N69  1  0.77971973  0.76104926  0.08997041  1
  N  N70  1  0.55573216  0.87990566  0.86006877  1
  N  N71  1  0.44235119  0.75247356  0.58088470  1
