# generated using pymatgen
data_Gd5Al31N36
_symmetry_space_group_name_H-M   'P 1'
_cell_length_a   9.68231740
_cell_length_b   9.65166101
_cell_length_c   10.61451516
_cell_angle_alpha   90.76817282
_cell_angle_beta   90.77511270
_cell_angle_gamma   60.22412825
_symmetry_Int_Tables_number   1
_chemical_formula_structural   Gd5Al31N36
_chemical_formula_sum   'Gd5 Al31 N36'
_cell_volume   860.86676947
_cell_formula_units_Z   1
loop_
 _symmetry_equiv_pos_site_id
 _symmetry_equiv_pos_as_xyz
  1  'x, y, z'
loop_
 _atom_site_type_symbol
 _atom_site_label
 _atom_site_symmetry_multiplicity
 _atom_site_fract_x
 _atom_site_fract_y
 _atom_site_fract_z
 _atom_site_occupancy
  Al  Al0  1  0.11078878  0.09071426  0.39334861  1
  Al  Al1  1  0.22554301  0.21356695  0.04212324  1
  Al  Al2  1  0.89224987  0.20977929  0.62639586  1
  Al  Al3  1  0.43301965  0.09234512  0.31524249  1
  Al  Al4  1  0.54353910  0.21324369  0.06280677  1
  Al  Al5  1  0.10725772  0.09979384  0.87037488  1
  Al  Al6  1  0.22801671  0.20364778  0.56708949  1
  Al  Al7  1  0.89361468  0.22076435  0.11871792  1
  Al  Al8  1  0.43435501  0.09884964  0.80748340  1
  Al  Al9  1  0.54732345  0.20868629  0.55625236  1
  Al  Al10  1  0.22803235  0.53129597  0.04256765  1
  Al  Al11  1  0.77525521  0.42831141  0.87287279  1
  Al  Al12  1  0.88947649  0.53672040  0.56839993  1
  Al  Al13  1  0.44235838  0.43556920  0.31220457  1
  Al  Al14  1  0.56790672  0.53995331  0.12650531  1
  Al  Al15  1  0.10988751  0.42582964  0.80416947  1
  Al  Al16  1  0.23314171  0.53039616  0.57587875  1
  Al  Al17  1  0.77523030  0.42176126  0.38600148  1
  Al  Al18  1  0.89586545  0.54372950  0.03674986  1
  Al  Al19  1  0.43558503  0.42638743  0.81004090  1
  Al  Al20  1  0.55927156  0.53558194  0.63535356  1
  Al  Al21  1  0.12717843  0.76241547  0.41164899  1
  Al  Al22  1  0.77511660  0.75438980  0.80331814  1
  Al  Al23  1  0.88661090  0.86772959  0.57142248  1
  Al  Al24  1  0.43765880  0.75567668  0.39786092  1
  Al  Al25  1  0.56274859  0.87685111  0.04302884  1
  Al  Al26  1  0.11595567  0.75640938  0.85769704  1
  Al  Al27  1  0.22420887  0.87308402  0.63884382  1
  Al  Al28  1  0.88765576  0.86697152  0.03954788  1
  Al  Al29  1  0.44803539  0.75426040  0.87453049  1
  Al  Al30  1  0.55178228  0.87722846  0.56921099  1
  Gd  Gd31  1  0.76134340  0.10143166  0.82084727  1
  Gd  Gd32  1  0.77858528  0.08828813  0.31688353  1
  Gd  Gd33  1  0.12317686  0.42674322  0.30866564  1
  Gd  Gd34  1  0.22501945  0.87509265  0.13267563  1
  Gd  Gd35  1  0.76606501  0.75411034  0.30460557  1
  N  N36  1  0.23411779  0.18685673  0.38665065  1
  N  N37  1  0.09596731  0.11922168  0.05035685  1
  N  N38  1  0.90223331  0.22383763  0.80498849  1
  N  N39  1  0.77291248  0.09603589  0.59654035  1
  N  N40  1  0.52139852  0.22314232  0.37465695  1
  N  N41  1  0.44100713  0.09109202  0.12373021  1
  N  N42  1  0.22349662  0.20816137  0.85916625  1
  N  N43  1  0.10801142  0.09089019  0.57623629  1
  N  N44  1  0.91114186  0.22044149  0.30582377  1
  N  N45  1  0.77767946  0.09532458  0.08963309  1
  N  N46  1  0.51166917  0.22677289  0.88669708  1
  N  N47  1  0.44556696  0.09527505  0.62699039  1
  N  N48  1  0.25192996  0.54620784  0.39667340  1
  N  N49  1  0.11254867  0.42992758  0.09090866  1
  N  N50  1  0.89010767  0.53909504  0.85583113  1
  N  N51  1  0.76883007  0.42185766  0.56924575  1
  N  N52  1  0.56507426  0.54602687  0.31475105  1
  N  N53  1  0.43803755  0.43136968  0.12584119  1
  N  N54  1  0.22462945  0.53324915  0.85846894  1
  N  N55  1  0.11218782  0.42549279  0.62107359  1
  N  N56  1  0.88925163  0.52606560  0.39181455  1
  N  N57  1  0.77616739  0.43023039  0.05820369  1
  N  N58  1  0.55909041  0.53740019  0.81716122  1
  N  N59  1  0.44801368  0.41576336  0.63002704  1
  N  N60  1  0.22119186  0.87250871  0.34816080  1
  N  N61  1  0.10625388  0.75126296  0.05570031  1
  N  N62  1  0.89573297  0.84733400  0.85734188  1
  N  N63  1  0.77254762  0.75871019  0.62175478  1
  N  N64  1  0.52911113  0.88899498  0.38877210  1
  N  N65  1  0.47127362  0.74409646  0.05486403  1
  N  N66  1  0.22536087  0.87451580  0.82177484  1
  N  N67  1  0.11437968  0.75959459  0.60088915  1
  N  N68  1  0.91238529  0.84683902  0.39201601  1
  N  N69  1  0.77944114  0.76114234  0.08999233  1
  N  N70  1  0.55546477  0.87995119  0.86004859  1
  N  N71  1  0.44291889  0.75240922  0.58063236  1
