# generated using pymatgen
data_Gd5Al31N36
_symmetry_space_group_name_H-M   'P 1'
_cell_length_a   9.71015139
_cell_length_b   9.70970077
_cell_length_c   10.53796391
_cell_angle_alpha   91.11416453
_cell_angle_beta   90.76008693
_cell_angle_gamma   59.93710406
_symmetry_Int_Tables_number   1
_chemical_formula_structural   Gd5Al31N36
_chemical_formula_sum   'Gd5 Al31 N36'
_cell_volume   859.72166056
_cell_formula_units_Z   1
loop_
 _symmetry_equiv_pos_site_id
 _symmetry_equiv_pos_as_xyz
  1  'x, y, z'
loop_
 _atom_site_type_symbol
 _atom_site_label
 _atom_site_symmetry_multiplicity
 _atom_site_fract_x
 _atom_site_fract_y
 _atom_site_fract_z
 _atom_site_occupancy
  Al  Al0  1  0.11440517  0.08541997  0.40730032  1
  Al  Al1  1  0.22590964  0.21675853  0.05120331  1
  Al  Al2  1  0.89122614  0.21163698  0.64085853  1
  Al  Al3  1  0.43261453  0.08754318  0.31896679  1
  Al  Al4  1  0.54550915  0.20846237  0.08982961  1
  Al  Al5  1  0.10991843  0.09890740  0.87949906  1
  Al  Al6  1  0.22808561  0.19962175  0.58125645  1
  Al  Al7  1  0.89671710  0.22359622  0.13269773  1
  Al  Al8  1  0.43849091  0.09505455  0.82013775  1
  Al  Al9  1  0.54846275  0.20660893  0.58511185  1
  Al  Al10  1  0.22727253  0.54687233  0.13688659  1
  Al  Al11  1  0.77435679  0.43093448  0.88351762  1
  Al  Al12  1  0.88519260  0.53898883  0.58194848  1
  Al  Al13  1  0.43748616  0.43905395  0.38225231  1
  Al  Al14  1  0.56607819  0.53806857  0.13748602  1
  Al  Al15  1  0.10894761  0.42269824  0.81452095  1
  Al  Al16  1  0.22764061  0.53704368  0.64272619  1
  Al  Al17  1  0.77184377  0.42667456  0.39804685  1
  Al  Al18  1  0.89892743  0.54302116  0.04910158  1
  Al  Al19  1  0.43324562  0.43499386  0.89840791  1
  Al  Al20  1  0.55331698  0.53303091  0.64278337  1
  Al  Al21  1  0.12696670  0.75431765  0.40749253  1
  Al  Al22  1  0.77721169  0.75574586  0.81558533  1
  Al  Al23  1  0.88924188  0.86736483  0.58048821  1
  Al  Al24  1  0.43838819  0.75615382  0.40720576  1
  Al  Al25  1  0.56321821  0.87344722  0.05052306  1
  Al  Al26  1  0.12131631  0.74679761  0.88298723  1
  Al  Al27  1  0.22326204  0.86856792  0.64711853  1
  Al  Al28  1  0.88995619  0.86475683  0.05568288  1
  Al  Al29  1  0.44753396  0.75146167  0.88180077  1
  Al  Al30  1  0.55363908  0.87549828  0.57964950  1
  Gd  Gd31  1  0.77085551  0.10188752  0.84988513  1
  Gd  Gd32  1  0.77854970  0.10118974  0.33925724  1
  Gd  Gd33  1  0.11352035  0.41168506  0.32720012  1
  Gd  Gd34  1  0.22687094  0.87940533  0.14170322  1
  Gd  Gd35  1  0.76782740  0.75998796  0.31431472  1
  N  N36  1  0.24179151  0.17446892  0.40287136  1
  N  N37  1  0.09720158  0.12195000  0.06042321  1
  N  N38  1  0.90483031  0.22743587  0.81757111  1
  N  N39  1  0.77126141  0.09823242  0.61250910  1
  N  N40  1  0.51610882  0.22366529  0.34476527  1
  N  N41  1  0.43749026  0.08567189  0.12856723  1
  N  N42  1  0.22495932  0.20752752  0.86776561  1
  N  N43  1  0.10711080  0.08769701  0.59055059  1
  N  N44  1  0.91852646  0.22670092  0.31821564  1
  N  N45  1  0.78298171  0.09357843  0.10593286  1
  N  N46  1  0.51851526  0.21549742  0.89671762  1
  N  N47  1  0.44585738  0.09515429  0.63838809  1
  N  N48  1  0.23291536  0.56263758  0.31980158  1
  N  N49  1  0.11482399  0.43113341  0.10757975  1
  N  N50  1  0.89037871  0.53975909  0.86665337  1
  N  N51  1  0.76731285  0.42194356  0.58254273  1
  N  N52  1  0.55993979  0.53917144  0.32832103  1
  N  N53  1  0.44431110  0.43966452  0.08314888  1
  N  N54  1  0.22885289  0.53457448  0.82411429  1
  N  N55  1  0.10899775  0.42240874  0.62816651  1
  N  N56  1  0.87678714  0.53693822  0.40547957  1
  N  N57  1  0.77764396  0.43180169  0.07070230  1
  N  N58  1  0.55476740  0.52945348  0.82629149  1
  N  N59  1  0.43929838  0.43076815  0.57265252  1
  N  N60  1  0.22223977  0.87117539  0.35785448  1
  N  N61  1  0.11169034  0.74695774  0.06560250  1
  N  N62  1  0.89956269  0.84492121  0.87112161  1
  N  N63  1  0.77461105  0.76114689  0.63317103  1
  N  N64  1  0.53041071  0.88646201  0.39749946  1
  N  N65  1  0.47316587  0.74221015  0.06468611  1
  N  N66  1  0.22256174  0.87091654  0.83299235  1
  N  N67  1  0.12080003  0.75225913  0.59345384  1
  N  N68  1  0.90844973  0.85626558  0.40037461  1
  N  N69  1  0.77968167  0.76108396  0.09881261  1
  N  N70  1  0.55535650  0.87482290  0.86720375  1
  N  N71  1  0.44432534  0.75279211  0.59249027  1
