# generated using pymatgen
data_Gd5Al31N36
_symmetry_space_group_name_H-M   'P 1'
_cell_length_a   9.66562717
_cell_length_b   9.63232532
_cell_length_c   10.66109436
_cell_angle_alpha   90.84810863
_cell_angle_beta   90.91144709
_cell_angle_gamma   60.31269618
_symmetry_Int_Tables_number   1
_chemical_formula_structural   Gd5Al31N36
_chemical_formula_sum   'Gd5 Al31 N36'
_cell_volume   862.15366571
_cell_formula_units_Z   1
loop_
 _symmetry_equiv_pos_site_id
 _symmetry_equiv_pos_as_xyz
  1  'x, y, z'
loop_
 _atom_site_type_symbol
 _atom_site_label
 _atom_site_symmetry_multiplicity
 _atom_site_fract_x
 _atom_site_fract_y
 _atom_site_fract_z
 _atom_site_occupancy
  Al  Al0  1  0.11115175  0.09016184  0.40414632  1
  Al  Al1  1  0.22578284  0.21376430  0.05159693  1
  Al  Al2  1  0.89276694  0.20974675  0.63576152  1
  Al  Al3  1  0.43283481  0.09242325  0.32575925  1
  Al  Al4  1  0.54528312  0.21252271  0.07228320  1
  Al  Al5  1  0.10664768  0.09951046  0.88033067  1
  Al  Al6  1  0.22820467  0.20363024  0.57765180  1
  Al  Al7  1  0.89385087  0.22065695  0.12919114  1
  Al  Al8  1  0.43405948  0.09902544  0.81771538  1
  Al  Al9  1  0.54643775  0.20939648  0.56509922  1
  Al  Al10  1  0.22968963  0.52993408  0.05392770  1
  Al  Al11  1  0.77545442  0.42730839  0.88287716  1
  Al  Al12  1  0.88946391  0.53727902  0.57885760  1
  Al  Al13  1  0.44224582  0.43527771  0.32112257  1
  Al  Al14  1  0.56868369  0.53972816  0.13637799  1
  Al  Al15  1  0.11037264  0.42654789  0.81409721  1
  Al  Al16  1  0.23263277  0.53109389  0.58364913  1
  Al  Al17  1  0.77521912  0.42198262  0.39673957  1
  Al  Al18  1  0.89641186  0.54380075  0.04597224  1
  Al  Al19  1  0.43521188  0.42674042  0.81988883  1
  Al  Al20  1  0.55917358  0.53572402  0.64565943  1
  Al  Al21  1  0.12646169  0.76186895  0.41879038  1
  Al  Al22  1  0.77636541  0.75426582  0.81357991  1
  Al  Al23  1  0.88683784  0.86689707  0.57721678  1
  Al  Al24  1  0.43690132  0.75569064  0.40881893  1
  Al  Al25  1  0.56348269  0.87681182  0.05208138  1
  Al  Al26  1  0.11670674  0.75717502  0.87795320  1
  Al  Al27  1  0.22282551  0.87174025  0.64925582  1
  Al  Al28  1  0.88659807  0.86920663  0.05103520  1
  Al  Al29  1  0.44830688  0.75399051  0.88421925  1
  Al  Al30  1  0.55165080  0.87732139  0.57969731  1
  Gd  Gd31  1  0.76017714  0.09944725  0.82534260  1
  Gd  Gd32  1  0.77817824  0.08948478  0.32773631  1
  Gd  Gd33  1  0.12135999  0.42566709  0.31835552  1
  Gd  Gd34  1  0.22693266  0.87633238  0.14340721  1
  Gd  Gd35  1  0.76329960  0.75317114  0.31292820  1
  N  N36  1  0.23459739  0.18657606  0.39801368  1
  N  N37  1  0.09570588  0.11938106  0.05967962  1
  N  N38  1  0.90139877  0.22262412  0.81425046  1
  N  N39  1  0.77338455  0.09566708  0.60292668  1
  N  N40  1  0.52089176  0.22355086  0.38462536  1
  N  N41  1  0.44131130  0.09064616  0.13373574  1
  N  N42  1  0.22321154  0.20840463  0.86931777  1
  N  N43  1  0.10843466  0.09023623  0.58642956  1
  N  N44  1  0.91225584  0.22130626  0.31581080  1
  N  N45  1  0.77787962  0.09567155  0.10198453  1
  N  N46  1  0.51281695  0.22650610  0.89684331  1
  N  N47  1  0.44600532  0.09547126  0.63778397  1
  N  N48  1  0.25147406  0.54509121  0.40441190  1
  N  N49  1  0.11279692  0.42994398  0.10137626  1
  N  N50  1  0.89061304  0.53862342  0.86583229  1
  N  N51  1  0.76856897  0.42199325  0.57930792  1
  N  N52  1  0.56524026  0.54650666  0.32444813  1
  N  N53  1  0.43941591  0.43055472  0.13588979  1
  N  N54  1  0.22514684  0.53354327  0.87050130  1
  N  N55  1  0.11239977  0.42582570  0.63161221  1
  N  N56  1  0.88866403  0.52720899  0.40338289  1
  N  N57  1  0.77667036  0.42995809  0.06778138  1
  N  N58  1  0.55945134  0.53734018  0.82663821  1
  N  N59  1  0.44710485  0.41614309  0.64002912  1
  N  N60  1  0.22105140  0.87251434  0.35712722  1
  N  N61  1  0.10756266  0.75196830  0.06557441  1
  N  N62  1  0.89620333  0.84783660  0.86998577  1
  N  N63  1  0.77291355  0.75945510  0.63244981  1
  N  N64  1  0.52851167  0.88941683  0.40003843  1
  N  N65  1  0.47195152  0.74366540  0.06403425  1
  N  N66  1  0.22485792  0.87361797  0.83194754  1
  N  N67  1  0.11389383  0.76013378  0.60432275  1
  N  N68  1  0.91103417  0.84581648  0.39814519  1
  N  N69  1  0.78001666  0.76093285  0.09963330  1
  N  N70  1  0.55597615  0.87991980  0.86990910  1
  N  N71  1  0.44220236  0.75246227  0.59087541  1
