# generated using pymatgen
data_Gd5Al31N36
_symmetry_space_group_name_H-M   'P 1'
_cell_length_a   9.64886969
_cell_length_b   9.64141686
_cell_length_c   10.59741661
_cell_angle_alpha   91.13168380
_cell_angle_beta   91.05094872
_cell_angle_gamma   60.49206850
_symmetry_Int_Tables_number   1
_chemical_formula_structural   Gd5Al31N36
_chemical_formula_sum   'Gd5 Al31 N36'
_cell_volume   857.77634406
_cell_formula_units_Z   1
loop_
 _symmetry_equiv_pos_site_id
 _symmetry_equiv_pos_as_xyz
  1  'x, y, z'
loop_
 _atom_site_type_symbol
 _atom_site_label
 _atom_site_symmetry_multiplicity
 _atom_site_fract_x
 _atom_site_fract_y
 _atom_site_fract_z
 _atom_site_occupancy
  Al  Al0  1  0.11257509  0.08358817  0.39843333  1
  Al  Al1  1  0.22392592  0.21658779  0.03554450  1
  Al  Al2  1  0.89037998  0.20976794  0.62353224  1
  Al  Al3  1  0.43360639  0.09147756  0.31498212  1
  Al  Al4  1  0.54154885  0.21462139  0.05732074  1
  Al  Al5  1  0.10800344  0.09985246  0.86012069  1
  Al  Al6  1  0.22985843  0.20511345  0.56908621  1
  Al  Al7  1  0.88510092  0.21666730  0.08949137  1
  Al  Al8  1  0.43559802  0.09950830  0.80407544  1
  Al  Al9  1  0.54681919  0.21155674  0.55329889  1
  Al  Al10  1  0.22235658  0.53957898  0.05224468  1
  Al  Al11  1  0.77180467  0.42978650  0.86377533  1
  Al  Al12  1  0.89038618  0.54077704  0.57211175  1
  Al  Al13  1  0.44064913  0.43391445  0.30966291  1
  Al  Al14  1  0.56788347  0.53912593  0.12604751  1
  Al  Al15  1  0.11265041  0.42977476  0.80368630  1
  Al  Al16  1  0.22755066  0.54160416  0.56252090  1
  Al  Al17  1  0.77315231  0.42307974  0.39296363  1
  Al  Al18  1  0.89404688  0.54167022  0.03302628  1
  Al  Al19  1  0.43298102  0.43023952  0.80852610  1
  Al  Al20  1  0.55595001  0.53939220  0.63346751  1
  Al  Al21  1  0.11872529  0.75114568  0.31867790  1
  Al  Al22  1  0.78093831  0.75398226  0.80512199  1
  Al  Al23  1  0.89777775  0.86583071  0.55992175  1
  Al  Al24  1  0.43587845  0.75598478  0.39435343  1
  Al  Al25  1  0.56495808  0.87693885  0.04096512  1
  Al  Al26  1  0.11619211  0.75104766  0.80753553  1
  Al  Al27  1  0.22751903  0.87201402  0.63481691  1
  Al  Al28  1  0.89774428  0.85815828  0.04814944  1
  Al  Al29  1  0.44960112  0.75492116  0.87246664  1
  Al  Al30  1  0.55539737  0.87820638  0.56692731  1
  Gd  Gd31  1  0.76325306  0.08792504  0.81388368  1
  Gd  Gd32  1  0.77794128  0.09239711  0.31223796  1
  Gd  Gd33  1  0.11649293  0.41579610  0.30662059  1
  Gd  Gd34  1  0.22917975  0.88490001  0.12314007  1
  Gd  Gd35  1  0.76695925  0.75319787  0.30239050  1
  N  N36  1  0.23677722  0.18071823  0.38964755  1
  N  N37  1  0.09261514  0.12373799  0.04048269  1
  N  N38  1  0.89630959  0.21965011  0.80528113  1
  N  N39  1  0.77444123  0.09509526  0.59041479  1
  N  N40  1  0.52028353  0.22431518  0.37267067  1
  N  N41  1  0.43845321  0.09181619  0.11993709  1
  N  N42  1  0.22371184  0.21057109  0.85281723  1
  N  N43  1  0.11126516  0.08953096  0.58236743  1
  N  N44  1  0.90998577  0.21926921  0.32544985  1
  N  N45  1  0.77667568  0.09353477  0.08224014  1
  N  N46  1  0.51377116  0.22843044  0.88097763  1
  N  N47  1  0.44887839  0.09569581  0.62510798  1
  N  N48  1  0.24224356  0.54967378  0.38464956  1
  N  N49  1  0.10998905  0.42915910  0.08786347  1
  N  N50  1  0.89100861  0.53743700  0.85109926  1
  N  N51  1  0.76879549  0.42640119  0.57667635  1
  N  N52  1  0.56502722  0.54421682  0.31536465  1
  N  N53  1  0.43942108  0.42960086  0.12392701  1
  N  N54  1  0.22381147  0.54234239  0.86917690  1
  N  N55  1  0.11485785  0.42905998  0.61985587  1
  N  N56  1  0.88550122  0.53029032  0.39564585  1
  N  N57  1  0.77209841  0.43066909  0.05081204  1
  N  N58  1  0.55554359  0.54139217  0.81383022  1
  N  N59  1  0.44168033  0.42198298  0.62518853  1
  N  N60  1  0.22351497  0.87199255  0.33778045  1
  N  N61  1  0.09881358  0.74420583  0.13106823  1
  N  N62  1  0.91195832  0.83679115  0.87125003  1
  N  N63  1  0.77685428  0.76482561  0.62252898  1
  N  N64  1  0.53126755  0.88798117  0.38653893  1
  N  N65  1  0.47498631  0.74216314  0.05271263  1
  N  N66  1  0.22869344  0.87397970  0.82206968  1
  N  N67  1  0.11171868  0.75681865  0.62701262  1
  N  N68  1  0.91747971  0.84785706  0.38515930  1
  N  N69  1  0.77915262  0.75800682  0.08777818  1
  N  N70  1  0.55890834  0.88171005  0.85832835  1
  N  N71  1  0.44324505  0.75444538  0.57722938  1
