# generated using pymatgen
data_Gd5Al31N36
_symmetry_space_group_name_H-M   'P 1'
_cell_length_a   9.67008719
_cell_length_b   9.66649288
_cell_length_c   10.63615882
_cell_angle_alpha   90.86677948
_cell_angle_beta   90.30990088
_cell_angle_gamma   60.02494575
_symmetry_Int_Tables_number   1
_chemical_formula_structural   Gd5Al31N36
_chemical_formula_sum   'Gd5 Al31 N36'
_cell_volume   861.13818798
_cell_formula_units_Z   1
loop_
 _symmetry_equiv_pos_site_id
 _symmetry_equiv_pos_as_xyz
  1  'x, y, z'
loop_
 _atom_site_type_symbol
 _atom_site_label
 _atom_site_symmetry_multiplicity
 _atom_site_fract_x
 _atom_site_fract_y
 _atom_site_fract_z
 _atom_site_occupancy
  Al  Al0  1  0.11311798  0.08526863  0.41830540  1
  Al  Al1  1  0.22681323  0.21411321  0.06635464  1
  Al  Al2  1  0.89294342  0.20930157  0.65836796  1
  Al  Al3  1  0.43175263  0.08577591  0.33024061  1
  Al  Al4  1  0.54957311  0.20978938  0.15310549  1
  Al  Al5  1  0.11176594  0.09837780  0.89505234  1
  Al  Al6  1  0.22871022  0.19742639  0.58957382  1
  Al  Al7  1  0.89367263  0.21746131  0.15057878  1
  Al  Al8  1  0.43511341  0.09166603  0.82488120  1
  Al  Al9  1  0.54445768  0.21380532  0.65610436  1
  Al  Al10  1  0.22896610  0.54327799  0.14422480  1
  Al  Al11  1  0.77554084  0.43233978  0.89631747  1
  Al  Al12  1  0.88655000  0.53715158  0.59277688  1
  Al  Al13  1  0.43554522  0.43913636  0.39604821  1
  Al  Al14  1  0.56666617  0.53403520  0.14618636  1
  Al  Al15  1  0.10970459  0.42240441  0.82685725  1
  Al  Al16  1  0.22879090  0.53537196  0.65469880  1
  Al  Al17  1  0.77245242  0.42898712  0.40780043  1
  Al  Al18  1  0.89929982  0.54075592  0.06237754  1
  Al  Al19  1  0.43373563  0.43439402  0.90175428  1
  Al  Al20  1  0.55471566  0.53219188  0.65303139  1
  Al  Al21  1  0.12533185  0.75686255  0.42038900  1
  Al  Al22  1  0.77728995  0.75733303  0.82798480  1
  Al  Al23  1  0.89098897  0.86623107  0.60204744  1
  Al  Al24  1  0.43977678  0.75453756  0.41722708  1
  Al  Al25  1  0.56346139  0.87265079  0.06329853  1
  Al  Al26  1  0.11940808  0.75041303  0.89305413  1
  Al  Al27  1  0.22494178  0.86814559  0.65798233  1
  Al  Al28  1  0.88955631  0.86399728  0.06862648  1
  Al  Al29  1  0.44791616  0.75256700  0.89422835  1
  Al  Al30  1  0.55511507  0.87288352  0.58787465  1
  Gd  Gd31  1  0.76875384  0.11250450  0.88625854  1
  Gd  Gd32  1  0.76584146  0.12007318  0.40367372  1
  Gd  Gd33  1  0.11380242  0.41345098  0.33763549  1
  Gd  Gd34  1  0.22631009  0.87590405  0.15588552  1
  Gd  Gd35  1  0.77220735  0.76530486  0.32515414  1
  N  N36  1  0.24054694  0.17596011  0.41275977  1
  N  N37  1  0.09613110  0.11871994  0.07478501  1
  N  N38  1  0.90800887  0.22774167  0.83080520  1
  N  N39  1  0.77299542  0.09701746  0.62981880  1
  N  N40  1  0.51377873  0.22894461  0.33074602  1
  N  N41  1  0.43870204  0.08316302  0.13956426  1
  N  N42  1  0.22756439  0.20858866  0.88579015  1
  N  N43  1  0.10603502  0.08659861  0.60012220  1
  N  N44  1  0.91510482  0.22368699  0.33172796  1
  N  N45  1  0.77895850  0.09292746  0.11602475  1
  N  N46  1  0.51736934  0.23087968  0.83331107  1
  N  N47  1  0.44169085  0.08626491  0.64581880  1
  N  N48  1  0.23285436  0.56587503  0.32823402  1
  N  N49  1  0.11439811  0.42932360  0.12152104  1
  N  N50  1  0.89172926  0.54107083  0.88150518  1
  N  N51  1  0.76917216  0.41785911  0.59187902  1
  N  N52  1  0.56016845  0.53710346  0.33778800  1
  N  N53  1  0.44887207  0.42594301  0.08545901  1
  N  N54  1  0.22555478  0.53897495  0.83499230  1
  N  N55  1  0.10990232  0.41980242  0.64147160  1
  N  N56  1  0.87670432  0.54048527  0.41737585  1
  N  N57  1  0.77902339  0.42668116  0.08253891  1
  N  N58  1  0.55660234  0.53234330  0.83619952  1
  N  N59  1  0.44245763  0.42467913  0.58253414  1
  N  N60  1  0.22391948  0.87095808  0.36987375  1
  N  N61  1  0.11213884  0.74457881  0.07404880  1
  N  N62  1  0.89664338  0.85170865  0.88075736  1
  N  N63  1  0.77495442  0.75821147  0.64702892  1
  N  N64  1  0.53353705  0.88472347  0.40684180  1
  N  N65  1  0.47242643  0.73959811  0.07528453  1
  N  N66  1  0.22428208  0.87222501  0.84282658  1
  N  N67  1  0.12293247  0.75013187  0.60503632  1
  N  N68  1  0.90544360  0.86498931  0.41877786  1
  N  N69  1  0.78010178  0.75894408  0.11133369  1
  N  N70  1  0.55617732  0.87722470  0.88225920  1
  N  N71  1  0.44573087  0.74996657  0.60055872  1
