# generated using pymatgen
data_Gd5Al31N36
_symmetry_space_group_name_H-M   'P 1'
_cell_length_a   9.65995138
_cell_length_b   9.61322383
_cell_length_c   10.75154187
_cell_angle_alpha   91.20728668
_cell_angle_beta   91.40409693
_cell_angle_gamma   60.25515266
_symmetry_Int_Tables_number   1
_chemical_formula_structural   Gd5Al31N36
_chemical_formula_sum   'Gd5 Al31 N36'
_cell_volume   866.56858026
_cell_formula_units_Z   1
loop_
 _symmetry_equiv_pos_site_id
 _symmetry_equiv_pos_as_xyz
  1  'x, y, z'
loop_
 _atom_site_type_symbol
 _atom_site_label
 _atom_site_symmetry_multiplicity
 _atom_site_fract_x
 _atom_site_fract_y
 _atom_site_fract_z
 _atom_site_occupancy
  Al  Al0  1  0.11234774  0.08429681  0.41004726  1
  Al  Al1  1  0.22843252  0.21564937  0.05258439  1
  Al  Al2  1  0.89267256  0.20958956  0.63861729  1
  Al  Al3  1  0.43398985  0.09300988  0.32912917  1
  Al  Al4  1  0.54950909  0.21252509  0.07055234  1
  Al  Al5  1  0.10765162  0.09542075  0.88289852  1
  Al  Al6  1  0.22869178  0.20001410  0.58145170  1
  Al  Al7  1  0.89668695  0.21996265  0.13109797  1
  Al  Al8  1  0.43423748  0.09889101  0.81925843  1
  Al  Al9  1  0.54278355  0.21409817  0.56589368  1
  Al  Al10  1  0.22323303  0.54683732  0.13384955  1
  Al  Al11  1  0.77563061  0.42569954  0.88655398  1
  Al  Al12  1  0.88504594  0.53908721  0.58260686  1
  Al  Al13  1  0.44484470  0.43395269  0.31484903  1
  Al  Al14  1  0.57304805  0.53929630  0.13698470  1
  Al  Al15  1  0.10522037  0.42196157  0.81701114  1
  Al  Al16  1  0.21697792  0.54055587  0.64720614  1
  Al  Al17  1  0.77145516  0.42470391  0.40166357  1
  Al  Al18  1  0.89933931  0.54473905  0.04712434  1
  Al  Al19  1  0.43788654  0.42634247  0.82425868  1
  Al  Al20  1  0.55778724  0.53630155  0.64775925  1
  Al  Al21  1  0.12752648  0.75009627  0.40680029  1
  Al  Al22  1  0.77835856  0.75449094  0.81676030  1
  Al  Al23  1  0.88811295  0.86688870  0.57118068  1
  Al  Al24  1  0.43836966  0.75722960  0.41188995  1
  Al  Al25  1  0.56599200  0.87767906  0.05254403  1
  Al  Al26  1  0.12178641  0.74872848  0.88756103  1
  Al  Al27  1  0.22372315  0.86733649  0.64764610  1
  Al  Al28  1  0.88970798  0.87056781  0.05314777  1
  Al  Al29  1  0.44808294  0.75440514  0.88616880  1
  Al  Al30  1  0.55414332  0.87815490  0.58194431  1
  Gd  Gd31  1  0.76064253  0.09519466  0.82107725  1
  Gd  Gd32  1  0.77492084  0.09670806  0.32949085  1
  Gd  Gd33  1  0.10750485  0.41063148  0.32229732  1
  Gd  Gd34  1  0.23177687  0.87810918  0.14862803  1
  Gd  Gd35  1  0.76278877  0.75498347  0.31116247  1
  N  N36  1  0.23976387  0.17651003  0.40527760  1
  N  N37  1  0.09884044  0.11857723  0.06147639  1
  N  N38  1  0.90108102  0.22054051  0.81675402  1
  N  N39  1  0.77352523  0.09585363  0.60192215  1
  N  N40  1  0.51526015  0.23054713  0.38789777  1
  N  N41  1  0.44411572  0.09157341  0.13559791  1
  N  N42  1  0.22383652  0.20621998  0.87231486  1
  N  N43  1  0.10771423  0.08715432  0.59003902  1
  N  N44  1  0.91578277  0.22459012  0.31844372  1
  N  N45  1  0.78192675  0.09507536  0.10554421  1
  N  N46  1  0.51434639  0.22617384  0.89698594  1
  N  N47  1  0.44681144  0.09655820  0.64101721  1
  N  N48  1  0.22682991  0.56243293  0.31655980  1
  N  N49  1  0.11377335  0.43012082  0.10605583  1
  N  N50  1  0.88925307  0.53823512  0.86890773  1
  N  N51  1  0.76681060  0.42171536  0.58254592  1
  N  N52  1  0.56379785  0.54795070  0.32759931  1
  N  N53  1  0.45546052  0.42447236  0.13278985  1
  N  N54  1  0.21616163  0.54120820  0.82677259  1
  N  N55  1  0.10554542  0.42018310  0.63355505  1
  N  N56  1  0.87872756  0.53564051  0.40995362  1
  N  N57  1  0.78074477  0.43001639  0.07022777  1
  N  N58  1  0.55982415  0.53715725  0.82879275  1
  N  N59  1  0.44448628  0.41979122  0.63845366  1
  N  N60  1  0.22243874  0.86986629  0.36068861  1
  N  N61  1  0.11488164  0.74918156  0.06544071  1
  N  N62  1  0.89915756  0.84706750  0.87512705  1
  N  N63  1  0.77564607  0.76158115  0.63655240  1
  N  N64  1  0.53235899  0.88945141  0.40301864  1
  N  N65  1  0.47421811  0.74464633  0.06544028  1
  N  N66  1  0.22437881  0.86930437  0.83117002  1
  N  N67  1  0.12007726  0.75092318  0.58863729  1
  N  N68  1  0.90674428  0.85239264  0.39528038  1
  N  N69  1  0.78311044  0.76190765  0.09963325  1
  N  N70  1  0.55682131  0.87995864  0.87178874  1
  N  N71  1  0.44437154  0.75336881  0.59263417  1
