# generated using pymatgen
data_Gd5Al31N36
_symmetry_space_group_name_H-M   'P 1'
_cell_length_a   9.60301739
_cell_length_b   9.58023099
_cell_length_c   10.70886351
_cell_angle_alpha   90.67520887
_cell_angle_beta   90.80822639
_cell_angle_gamma   60.50143445
_symmetry_Int_Tables_number   1
_chemical_formula_structural   Gd5Al31N36
_chemical_formula_sum   'Gd5 Al31 N36'
_cell_volume   857.39329516
_cell_formula_units_Z   1
loop_
 _symmetry_equiv_pos_site_id
 _symmetry_equiv_pos_as_xyz
  1  'x, y, z'
loop_
 _atom_site_type_symbol
 _atom_site_label
 _atom_site_symmetry_multiplicity
 _atom_site_fract_x
 _atom_site_fract_y
 _atom_site_fract_z
 _atom_site_occupancy
  Al  Al0  1  0.11181383  0.08812613  0.42491502  1
  Al  Al1  1  0.22982611  0.21804150  0.06060345  1
  Al  Al2  1  0.88516307  0.20480519  0.66189237  1
  Al  Al3  1  0.43313354  0.09302980  0.35644275  1
  Al  Al4  1  0.54800602  0.21343027  0.16037924  1
  Al  Al5  1  0.10808848  0.09794313  0.89476352  1
  Al  Al6  1  0.22237271  0.20393175  0.59749768  1
  Al  Al7  1  0.89591653  0.22343240  0.15668997  1
  Al  Al8  1  0.43557886  0.09485334  0.82318679  1
  Al  Al9  1  0.55118588  0.21143964  0.65514693  1
  Al  Al10  1  0.23218843  0.54697878  0.14324983  1
  Al  Al11  1  0.77493420  0.42681412  0.89960162  1
  Al  Al12  1  0.88526987  0.53760603  0.59430462  1
  Al  Al13  1  0.44058744  0.43709332  0.40123218  1
  Al  Al14  1  0.56809448  0.53699652  0.14665278  1
  Al  Al15  1  0.10960700  0.42547347  0.82720816  1
  Al  Al16  1  0.22464875  0.53949057  0.65333722  1
  Al  Al17  1  0.77267758  0.42334080  0.41615634  1
  Al  Al18  1  0.90198032  0.54830980  0.05616351  1
  Al  Al19  1  0.43923224  0.43150073  0.90165385  1
  Al  Al20  1  0.55333527  0.53285455  0.65773303  1
  Al  Al21  1  0.11692458  0.75291324  0.40713319  1
  Al  Al22  1  0.77709295  0.75132576  0.82628684  1
  Al  Al23  1  0.89278370  0.86479125  0.65544081  1
  Al  Al24  1  0.43161551  0.75710801  0.42535958  1
  Al  Al25  1  0.56716932  0.88119506  0.05524608  1
  Al  Al26  1  0.11602121  0.75191534  0.89768865  1
  Al  Al27  1  0.21777903  0.86871531  0.65752557  1
  Al  Al28  1  0.90443582  0.86700929  0.15083154  1
  Al  Al29  1  0.44689239  0.75413529  0.89409538  1
  Al  Al30  1  0.55208098  0.87320198  0.59513429  1
  Gd  Gd31  1  0.77506927  0.08816859  0.91291411  1
  Gd  Gd32  1  0.78343859  0.09085647  0.39376424  1
  Gd  Gd33  1  0.10773887  0.41522977  0.32935142  1
  Gd  Gd34  1  0.23503445  0.88300440  0.15905878  1
  Gd  Gd35  1  0.74458505  0.74410500  0.31051631  1
  N  N36  1  0.23511651  0.18591550  0.42143960  1
  N  N37  1  0.09548026  0.12410662  0.07479721  1
  N  N38  1  0.89635145  0.21769343  0.83678125  1
  N  N39  1  0.77395524  0.08885343  0.61386364  1
  N  N40  1  0.52281057  0.22574819  0.33832132  1
  N  N41  1  0.44206997  0.08947978  0.13048533  1
  N  N42  1  0.22615301  0.20866327  0.88100828  1
  N  N43  1  0.10094952  0.08945375  0.60525131  1
  N  N44  1  0.91540220  0.22408828  0.33697503  1
  N  N45  1  0.77974123  0.10124949  0.13300245  1
  N  N46  1  0.53125558  0.22572538  0.83372720  1
  N  N47  1  0.43954240  0.09015021  0.64654148  1
  N  N48  1  0.24140767  0.55682173  0.32662564  1
  N  N49  1  0.11719758  0.43381396  0.11373653  1
  N  N50  1  0.89212727  0.53663798  0.87993126  1
  N  N51  1  0.76706549  0.41701043  0.59743501  1
  N  N52  1  0.56112167  0.54379430  0.34073273  1
  N  N53  1  0.45168496  0.42782533  0.08658716  1
  N  N54  1  0.22894087  0.54035013  0.83574837  1
  N  N55  1  0.10610984  0.42404934  0.64644967  1
  N  N56  1  0.87976174  0.53607658  0.42135347  1
  N  N57  1  0.78139550  0.43258914  0.08695180  1
  N  N58  1  0.55686688  0.53473054  0.83910755  1
  N  N59  1  0.43972480  0.42724770  0.58576261  1
  N  N60  1  0.21796537  0.87486916  0.37239548  1
  N  N61  1  0.10904332  0.75615722  0.07595305  1
  N  N62  1  0.90979244  0.84484119  0.83113813  1
  N  N63  1  0.76884872  0.75488793  0.64628090  1
  N  N64  1  0.52877503  0.88809538  0.41726961  1
  N  N65  1  0.47735825  0.74413894  0.07531610  1
  N  N66  1  0.22275720  0.87195706  0.84262782  1
  N  N67  1  0.10784304  0.75480583  0.59013032  1
  N  N68  1  0.91658362  0.84021377  0.32738386  1
  N  N69  1  0.78435129  0.76868363  0.09934591  1
  N  N70  1  0.55705842  0.87845204  0.87697008  1
  N  N71  1  0.43862725  0.75117695  0.60534221  1
