# generated using pymatgen
data_Gd5Al31N36
_symmetry_space_group_name_H-M   'P 1'
_cell_length_a   9.67693847
_cell_length_b   9.66279871
_cell_length_c   10.62268876
_cell_angle_alpha   90.80361747
_cell_angle_beta   90.39130106
_cell_angle_gamma   60.01662794
_symmetry_Int_Tables_number   1
_chemical_formula_structural   Gd5Al31N36
_chemical_formula_sum   'Gd5 Al31 N36'
_cell_volume   860.27245186
_cell_formula_units_Z   1
loop_
 _symmetry_equiv_pos_site_id
 _symmetry_equiv_pos_as_xyz
  1  'x, y, z'
loop_
 _atom_site_type_symbol
 _atom_site_label
 _atom_site_symmetry_multiplicity
 _atom_site_fract_x
 _atom_site_fract_y
 _atom_site_fract_z
 _atom_site_occupancy
  Al  Al0  1  0.11257094  0.08597814  0.41792579  1
  Al  Al1  1  0.22664282  0.21465366  0.06665946  1
  Al  Al2  1  0.89212646  0.20921057  0.65912410  1
  Al  Al3  1  0.43115547  0.08697673  0.33094893  1
  Al  Al4  1  0.54783822  0.21191250  0.15394935  1
  Al  Al5  1  0.11184840  0.09808781  0.89511478  1
  Al  Al6  1  0.22811008  0.19818920  0.58954249  1
  Al  Al7  1  0.89446194  0.21908296  0.15216064  1
  Al  Al8  1  0.43511806  0.09242987  0.82492492  1
  Al  Al9  1  0.54507492  0.21397163  0.65633771  1
  Al  Al10  1  0.22869047  0.54428177  0.14335110  1
  Al  Al11  1  0.77544788  0.43139249  0.89724604  1
  Al  Al12  1  0.88610568  0.53626369  0.59216946  1
  Al  Al13  1  0.43770708  0.43858899  0.39580938  1
  Al  Al14  1  0.56700936  0.53473809  0.14707193  1
  Al  Al15  1  0.11036726  0.42288857  0.82673167  1
  Al  Al16  1  0.22841237  0.53616830  0.65378521  1
  Al  Al17  1  0.77308400  0.42561268  0.40865766  1
  Al  Al18  1  0.90009109  0.54179705  0.06213675  1
  Al  Al19  1  0.43552290  0.43380187  0.90145093  1
  Al  Al20  1  0.55463719  0.53241178  0.65337337  1
  Al  Al21  1  0.12201407  0.75850580  0.41770996  1
  Al  Al22  1  0.77566599  0.75398143  0.82580852  1
  Al  Al23  1  0.89427807  0.86512733  0.64490192  1
  Al  Al24  1  0.43838088  0.75498708  0.41786423  1
  Al  Al25  1  0.56310745  0.87454448  0.06269939  1
  Al  Al26  1  0.11655578  0.75132892  0.89043461  1
  Al  Al27  1  0.22434630  0.86828798  0.65667103  1
  Al  Al28  1  0.89141663  0.87040552  0.10368839  1
  Al  Al29  1  0.44761113  0.75286560  0.89398821  1
  Al  Al30  1  0.55345905  0.87375572  0.58757362  1
  Gd  Gd31  1  0.77232027  0.10492789  0.88861968  1
  Gd  Gd32  1  0.76856033  0.11257638  0.40660050  1
  Gd  Gd33  1  0.11531333  0.41609192  0.33852468  1
  Gd  Gd34  1  0.22735817  0.87525477  0.15627895  1
  Gd  Gd35  1  0.76662166  0.75948167  0.32611679  1
  N  N36  1  0.23928972  0.17769896  0.41246776  1
  N  N37  1  0.09658812  0.11855215  0.07561155  1
  N  N38  1  0.90625427  0.22614353  0.83255475  1
  N  N39  1  0.77328075  0.09626173  0.62926795  1
  N  N40  1  0.51482217  0.22854590  0.33109007  1
  N  N41  1  0.43871097  0.08413252  0.13926786  1
  N  N42  1  0.22751094  0.20870379  0.88589657  1
  N  N43  1  0.10532336  0.08751106  0.60050199  1
  N  N44  1  0.91385542  0.22165001  0.33238083  1
  N  N45  1  0.77757921  0.09657441  0.11503483  1
  N  N46  1  0.52064139  0.22929328  0.83439361  1
  N  N47  1  0.44115979  0.08734199  0.64617739  1
  N  N48  1  0.23657235  0.56618709  0.32635318  1
  N  N49  1  0.11455238  0.43019941  0.12134845  1
  N  N50  1  0.89228091  0.54036231  0.88212359  1
  N  N51  1  0.76865357  0.41738071  0.59300085  1
  N  N52  1  0.56109903  0.53799836  0.33796533  1
  N  N53  1  0.44846207  0.42761537  0.08526831  1
  N  N54  1  0.22734001  0.53829719  0.83510812  1
  N  N55  1  0.10960506  0.42051824  0.64184698  1
  N  N56  1  0.87960408  0.53458786  0.41763741  1
  N  N57  1  0.77937518  0.42815279  0.08364362  1
  N  N58  1  0.55698435  0.53291987  0.83674080  1
  N  N59  1  0.44206133  0.42520596  0.58288621  1
  N  N60  1  0.22407950  0.87171842  0.36982640  1
  N  N61  1  0.10637936  0.74818553  0.07054797  1
  N  N62  1  0.90442802  0.84849810  0.83790246  1
  N  N63  1  0.77078090  0.75581011  0.64399730  1
  N  N64  1  0.52943546  0.88724370  0.40806439  1
  N  N65  1  0.47292390  0.74064611  0.07564889  1
  N  N66  1  0.22428596  0.87210773  0.84262888  1
  N  N67  1  0.11939513  0.75183562  0.60117840  1
  N  N68  1  0.90898930  0.86166675  0.38664928  1
  N  N69  1  0.78068862  0.76202576  0.10910669  1
  N  N70  1  0.55680297  0.87753568  0.88217705  1
  N  N71  1  0.44437481  0.75011640  0.60111041  1
