# generated using pymatgen
data_Gd5Al31N36
_symmetry_space_group_name_H-M   'P 1'
_cell_length_a   9.70167863
_cell_length_b   9.67271663
_cell_length_c   10.29059553
_cell_angle_alpha   90.00526922
_cell_angle_beta   90.22138862
_cell_angle_gamma   59.95406791
_symmetry_Int_Tables_number   1
_chemical_formula_structural   Gd5Al31N36
_chemical_formula_sum   'Gd5 Al31 N36'
_cell_volume   835.91297709
_cell_formula_units_Z   1
loop_
 _symmetry_equiv_pos_site_id
 _symmetry_equiv_pos_as_xyz
  1  'x, y, z'
loop_
 _atom_site_type_symbol
 _atom_site_label
 _atom_site_symmetry_multiplicity
 _atom_site_fract_x
 _atom_site_fract_y
 _atom_site_fract_z
 _atom_site_occupancy
  Al  Al0  1  0.11423230  0.09719874  0.31560929  1
  Al  Al1  1  0.22140675  0.20803256  0.04986451  1
  Al  Al2  1  0.89132053  0.21040123  0.55590221  1
  Al  Al3  1  0.43304723  0.09263025  0.31324125  1
  Al  Al4  1  0.54454811  0.21067189  0.05710070  1
  Al  Al5  1  0.11532349  0.09636760  0.80239656  1
  Al  Al6  1  0.22468666  0.20136784  0.56487969  1
  Al  Al7  1  0.89275259  0.21641887  0.05672254  1
  Al  Al8  1  0.43678461  0.09741422  0.80838880  1
  Al  Al9  1  0.54340763  0.21117615  0.55613545  1
  Al  Al10  1  0.22134655  0.53621552  0.05011863  1
  Al  Al11  1  0.77880857  0.43137610  0.80810090  1
  Al  Al12  1  0.88619428  0.53679106  0.57059100  1
  Al  Al13  1  0.44191862  0.43572132  0.31143661  1
  Al  Al14  1  0.56376590  0.53554640  0.06223403  1
  Al  Al15  1  0.11385210  0.42719599  0.80897976  1
  Al  Al16  1  0.22822302  0.54114833  0.56513028  1
  Al  Al17  1  0.77691916  0.42780256  0.31159579  1
  Al  Al18  1  0.89025799  0.53592010  0.04063854  1
  Al  Al19  1  0.43902517  0.43340639  0.81070089  1
  Al  Al20  1  0.55770205  0.53498473  0.56040176  1
  Al  Al21  1  0.11907826  0.75569448  0.31642587  1
  Al  Al22  1  0.77863120  0.75679155  0.80852655  1
  Al  Al23  1  0.89396770  0.86606491  0.56127251  1
  Al  Al24  1  0.44618801  0.75806009  0.31839424  1
  Al  Al25  1  0.55857668  0.87056604  0.04887263  1
  Al  Al26  1  0.11742480  0.75618914  0.80058497  1
  Al  Al27  1  0.22227863  0.87190923  0.55809096  1
  Al  Al28  1  0.89321125  0.85970601  0.04557836  1
  Al  Al29  1  0.44497176  0.75900814  0.80191685  1
  Al  Al30  1  0.55008682  0.87552964  0.56627135  1
  Gd  Gd31  1  0.77350306  0.10141051  0.81351937  1
  Gd  Gd32  1  0.77501982  0.09741144  0.31246253  1
  Gd  Gd33  1  0.11750965  0.42657914  0.31040688  1
  Gd  Gd34  1  0.22412895  0.86994948  0.06817869  1
  Gd  Gd35  1  0.76747959  0.75894041  0.30288040  1
  N  N36  1  0.23149933  0.18206281  0.38328262  1
  N  N37  1  0.10049232  0.12461318  0.12994695  1
  N  N38  1  0.90839930  0.22178000  0.87375302  1
  N  N39  1  0.77361071  0.09790485  0.58628367  1
  N  N40  1  0.51597567  0.22343920  0.37144190  1
  N  N41  1  0.44328465  0.09098784  0.11975732  1
  N  N42  1  0.22273855  0.20252319  0.86272848  1
  N  N43  1  0.10973874  0.09394048  0.61658836  1
  N  N44  1  0.90330706  0.21831923  0.37338196  1
  N  N45  1  0.77993044  0.09324752  0.08196517  1
  N  N46  1  0.51855718  0.22382133  0.87571207  1
  N  N47  1  0.44413324  0.09548711  0.62385274  1
  N  N48  1  0.24176618  0.55302513  0.38382439  1
  N  N49  1  0.11112421  0.42725042  0.08706692  1
  N  N50  1  0.88957840  0.53732399  0.85518048  1
  N  N51  1  0.77492081  0.42541313  0.62365103  1
  N  N52  1  0.56025233  0.53335119  0.37115174  1
  N  N53  1  0.44271085  0.43196241  0.12023725  1
  N  N54  1  0.22348366  0.54259589  0.86325030  1
  N  N55  1  0.11459125  0.42765250  0.61704117  1
  N  N56  1  0.87634692  0.52604566  0.38973020  1
  N  N57  1  0.78040096  0.43036156  0.12011243  1
  N  N58  1  0.55694267  0.53862495  0.87114635  1
  N  N59  1  0.44809648  0.42690517  0.62401544  1
  N  N60  1  0.22216697  0.87294863  0.36096078  1
  N  N61  1  0.09633651  0.74139501  0.13001953  1
  N  N62  1  0.90808120  0.84321158  0.86234384  1
  N  N63  1  0.77460187  0.76317480  0.61899586  1
  N  N64  1  0.52678514  0.88594938  0.38418669  1
  N  N65  1  0.47958618  0.74624564  0.13180885  1
  N  N66  1  0.22336497  0.87249554  0.84835754  1
  N  N67  1  0.11351588  0.76173402  0.61743001  1
  N  N68  1  0.91588031  0.85064209  0.38188678  1
  N  N69  1  0.77810525  0.75749991  0.08282834  1
  N  N70  1  0.55128345  0.87370873  0.86126959  1
  N  N71  1  0.44510606  0.75693597  0.61534116  1
