# generated using pymatgen
data_Gd5Al31N36
_symmetry_space_group_name_H-M   'P 1'
_cell_length_a   9.66900273
_cell_length_b   9.63577995
_cell_length_c   10.65796369
_cell_angle_alpha   90.82674278
_cell_angle_beta   91.11885329
_cell_angle_gamma   60.26278122
_symmetry_Int_Tables_number   1
_chemical_formula_structural   Gd5Al31N36
_chemical_formula_sum   'Gd5 Al31 N36'
_cell_volume   862.04124619
_cell_formula_units_Z   1
loop_
 _symmetry_equiv_pos_site_id
 _symmetry_equiv_pos_as_xyz
  1  'x, y, z'
loop_
 _atom_site_type_symbol
 _atom_site_label
 _atom_site_symmetry_multiplicity
 _atom_site_fract_x
 _atom_site_fract_y
 _atom_site_fract_z
 _atom_site_occupancy
  Al  Al0  1  0.11108390  0.09003078  0.40600476  1
  Al  Al1  1  0.22807320  0.21187405  0.05341399  1
  Al  Al2  1  0.89243068  0.21067080  0.63765514  1
  Al  Al3  1  0.43250493  0.09298258  0.32755363  1
  Al  Al4  1  0.54740251  0.21128189  0.07364971  1
  Al  Al5  1  0.10747940  0.09816742  0.88263806  1
  Al  Al6  1  0.22737576  0.20410468  0.57951876  1
  Al  Al7  1  0.89597220  0.21970302  0.13129972  1
  Al  Al8  1  0.43436320  0.09864334  0.81923672  1
  Al  Al9  1  0.54512214  0.21084236  0.56626889  1
  Al  Al10  1  0.23138850  0.52836990  0.05423495  1
  Al  Al11  1  0.77585078  0.42683318  0.88496865  1
  Al  Al12  1  0.88763251  0.53879007  0.58086353  1
  Al  Al13  1  0.43985131  0.43613592  0.32176449  1
  Al  Al14  1  0.57023227  0.53877496  0.13786260  1
  Al  Al15  1  0.10990029  0.42542420  0.81613747  1
  Al  Al16  1  0.23037667  0.53141848  0.58625602  1
  Al  Al17  1  0.77369742  0.42375202  0.39852458  1
  Al  Al18  1  0.89778369  0.54326533  0.04744752  1
  Al  Al19  1  0.43537890  0.42630212  0.82134691  1
  Al  Al20  1  0.55826662  0.53623834  0.64752639  1
  Al  Al21  1  0.12525969  0.76160526  0.42032917  1
  Al  Al22  1  0.77641953  0.75443999  0.81523528  1
  Al  Al23  1  0.88578522  0.86840980  0.57884173  1
  Al  Al24  1  0.43642140  0.75587487  0.41083008  1
  Al  Al25  1  0.56522418  0.87592356  0.05342345  1
  Al  Al26  1  0.11711998  0.75650689  0.87842803  1
  Al  Al27  1  0.22248851  0.87199109  0.65064824  1
  Al  Al28  1  0.88864094  0.86840578  0.05254656  1
  Al  Al29  1  0.44883618  0.75357169  0.88592350  1
  Al  Al30  1  0.55087309  0.87825688  0.58131959  1
  Gd  Gd31  1  0.76027741  0.09952371  0.82633580  1
  Gd  Gd32  1  0.77746013  0.09226974  0.33002604  1
  Gd  Gd33  1  0.11817124  0.42527828  0.31929600  1
  Gd  Gd34  1  0.22913313  0.87375603  0.14559179  1
  Gd  Gd35  1  0.76198843  0.75602684  0.31440278  1
  N  N36  1  0.23448255  0.18643548  0.39988706  1
  N  N37  1  0.09806145  0.11740710  0.06236675  1
  N  N38  1  0.90190762  0.22227234  0.81639664  1
  N  N39  1  0.77250533  0.09726019  0.60424898  1
  N  N40  1  0.51996420  0.22436962  0.38584684  1
  N  N41  1  0.44377529  0.08939458  0.13546286  1
  N  N42  1  0.22389272  0.20697065  0.87118577  1
  N  N43  1  0.10781730  0.09071982  0.58820288  1
  N  N44  1  0.91237030  0.22334641  0.31776944  1
  N  N45  1  0.78013086  0.09465288  0.10398648  1
  N  N46  1  0.51350507  0.22574636  0.89827947  1
  N  N47  1  0.44556131  0.09633537  0.63934401  1
  N  N48  1  0.24853101  0.54461373  0.40511622  1
  N  N49  1  0.11495473  0.42834902  0.10197983  1
  N  N50  1  0.89037039  0.53849499  0.86738688  1
  N  N51  1  0.76741378  0.42309267  0.58116290  1
  N  N52  1  0.56334120  0.54698375  0.32603879  1
  N  N53  1  0.44131715  0.42957910  0.13622494  1
  N  N54  1  0.22504667  0.53281070  0.87055775  1
  N  N55  1  0.11068893  0.42582161  0.63371933  1
  N  N56  1  0.88582097  0.53016621  0.40530916  1
  N  N57  1  0.77846512  0.42924402  0.06985979  1
  N  N58  1  0.55954182  0.53678849  0.82862286  1
  N  N59  1  0.44585785  0.41710283  0.64141748  1
  N  N60  1  0.22004421  0.87230144  0.35944816  1
  N  N61  1  0.10979133  0.75035663  0.06589996  1
  N  N62  1  0.89641689  0.84793927  0.87126302  1
  N  N63  1  0.77223160  0.76080110  0.63418359  1
  N  N64  1  0.52747536  0.88975203  0.40170420  1
  N  N65  1  0.47376233  0.74302882  0.06572743  1
  N  N66  1  0.22526552  0.87296891  0.83331869  1
  N  N67  1  0.11318913  0.76034067  0.60604879  1
  N  N68  1  0.90936964  0.84856374  0.40002498  1
  N  N69  1  0.78222850  0.76006185  0.10103933  1
  N  N70  1  0.55640671  0.87944964  0.87135501  1
  N  N71  1  0.44176313  0.75311801  0.59286092  1
