# generated using pymatgen
data_Gd5Al31N36
_symmetry_space_group_name_H-M   'P 1'
_cell_length_a   9.70438959
_cell_length_b   9.70639227
_cell_length_c   10.42132128
_cell_angle_alpha   90.59769053
_cell_angle_beta   90.59468162
_cell_angle_gamma   59.96446995
_symmetry_Int_Tables_number   1
_chemical_formula_structural   Gd5Al31N36
_chemical_formula_sum   'Gd5 Al31 N36'
_cell_volume   849.75267587
_cell_formula_units_Z   1
loop_
 _symmetry_equiv_pos_site_id
 _symmetry_equiv_pos_as_xyz
  1  'x, y, z'
loop_
 _atom_site_type_symbol
 _atom_site_label
 _atom_site_symmetry_multiplicity
 _atom_site_fract_x
 _atom_site_fract_y
 _atom_site_fract_z
 _atom_site_occupancy
  Al  Al0  1  0.11458975  0.09244011  0.40980297  1
  Al  Al1  1  0.22185306  0.20740515  0.14430750  1
  Al  Al2  1  0.88718674  0.20711399  0.65707529  1
  Al  Al3  1  0.43332392  0.08960052  0.40188501  1
  Al  Al4  1  0.54007330  0.21428752  0.15187241  1
  Al  Al5  1  0.10984111  0.10232963  0.89680540  1
  Al  Al6  1  0.22170439  0.19773682  0.65463318  1
  Al  Al7  1  0.89125003  0.22036032  0.15416533  1
  Al  Al8  1  0.42963100  0.10899228  0.89160033  1
  Al  Al9  1  0.54203319  0.21244727  0.65123126  1
  Al  Al10  1  0.22630286  0.54606118  0.14709923  1
  Al  Al11  1  0.77585807  0.42804532  0.89867828  1
  Al  Al12  1  0.88343575  0.53536816  0.59472052  1
  Al  Al13  1  0.44622013  0.43921662  0.39527562  1
  Al  Al14  1  0.56704421  0.53632642  0.14578790  1
  Al  Al15  1  0.10890630  0.43090258  0.82887868  1
  Al  Al16  1  0.22687608  0.54401144  0.65328416  1
  Al  Al17  1  0.77677723  0.41808870  0.41081338  1
  Al  Al18  1  0.90575518  0.53845844  0.06773517  1
  Al  Al19  1  0.43720444  0.43369066  0.90122530  1
  Al  Al20  1  0.55349988  0.53238765  0.65553136  1
  Al  Al21  1  0.12050673  0.76126027  0.40783258  1
  Al  Al22  1  0.78019895  0.75092912  0.83099794  1
  Al  Al23  1  0.89296591  0.86545472  0.65452777  1
  Al  Al24  1  0.43976842  0.75526262  0.42142923  1
  Al  Al25  1  0.56853616  0.87100653  0.05891633  1
  Al  Al26  1  0.11476632  0.75522293  0.89655630  1
  Al  Al27  1  0.21735077  0.87313876  0.65053832  1
  Al  Al28  1  0.90072455  0.86893587  0.14545658  1
  Al  Al29  1  0.44374099  0.75501597  0.88743518  1
  Al  Al30  1  0.55006352  0.87299282  0.61617268  1
  Gd  Gd31  1  0.77223339  0.09554337  0.89989720  1
  Gd  Gd32  1  0.77100138  0.09603555  0.39211216  1
  Gd  Gd33  1  0.14223344  0.41479770  0.38127715  1
  Gd  Gd34  1  0.23335872  0.87655859  0.16001362  1
  Gd  Gd35  1  0.76830938  0.74018369  0.32376791  1
  N  N36  1  0.23606051  0.16235919  0.32469760  1
  N  N37  1  0.09670426  0.12279605  0.07717978  1
  N  N38  1  0.89940808  0.22018045  0.83552626  1
  N  N39  1  0.77284795  0.09179081  0.61961349  1
  N  N40  1  0.50579224  0.22751347  0.33465376  1
  N  N41  1  0.44175820  0.09960295  0.07766981  1
  N  N42  1  0.21925655  0.20406994  0.83683802  1
  N  N43  1  0.10587284  0.09742491  0.59560725  1
  N  N44  1  0.90583297  0.21574070  0.33755597  1
  N  N45  1  0.77322353  0.10160508  0.12530152  1
  N  N46  1  0.51910783  0.22718234  0.83131328  1
  N  N47  1  0.43409753  0.10240873  0.59243804  1
  N  N48  1  0.24700094  0.56852587  0.32728136  1
  N  N49  1  0.11397578  0.43297603  0.13682204  1
  N  N50  1  0.89457571  0.53578694  0.88232907  1
  N  N51  1  0.76653741  0.41907231  0.59788700  1
  N  N52  1  0.56569882  0.53865394  0.33948665  1
  N  N53  1  0.44801266  0.43072663  0.08668119  1
  N  N54  1  0.22653520  0.54217979  0.83707839  1
  N  N55  1  0.11015091  0.42832246  0.63501318  1
  N  N56  1  0.89286165  0.51641825  0.41742758  1
  N  N57  1  0.78007311  0.42971625  0.08670430  1
  N  N58  1  0.55634673  0.53260872  0.83903269  1
  N  N59  1  0.44037393  0.42965675  0.58394672  1
  N  N60  1  0.22383472  0.87343174  0.37835668  1
  N  N61  1  0.10644663  0.75372095  0.07621206  1
  N  N62  1  0.90731174  0.84548843  0.83462616  1
  N  N63  1  0.77324916  0.75438017  0.64202563  1
  N  N64  1  0.53379565  0.87542733  0.39888142  1
  N  N65  1  0.47501146  0.74329396  0.07209917  1
  N  N66  1  0.21863715  0.87529992  0.84081501  1
  N  N67  1  0.10828988  0.75874747  0.59302816  1
  N  N68  1  0.92261054  0.85032147  0.32831461  1
  N  N69  1  0.78289073  0.76408065  0.10347279  1
  N  N70  1  0.55300763  0.87764910  0.86161318  1
  N  N71  1  0.44123558  0.75274148  0.60827123  1
