# generated using pymatgen
data_Gd5Al31N36
_symmetry_space_group_name_H-M   'P 1'
_cell_length_a   9.67937012
_cell_length_b   9.64960986
_cell_length_c   10.56848481
_cell_angle_alpha   91.03875798
_cell_angle_beta   90.95528922
_cell_angle_gamma   60.24250716
_symmetry_Int_Tables_number   1
_chemical_formula_structural   Gd5Al31N36
_chemical_formula_sum   'Gd5 Al31 N36'
_cell_volume   856.77729482
_cell_formula_units_Z   1
loop_
 _symmetry_equiv_pos_site_id
 _symmetry_equiv_pos_as_xyz
  1  'x, y, z'
loop_
 _atom_site_type_symbol
 _atom_site_label
 _atom_site_symmetry_multiplicity
 _atom_site_fract_x
 _atom_site_fract_y
 _atom_site_fract_z
 _atom_site_occupancy
  Al  Al0  1  0.11329448  0.08851204  0.42450593  1
  Al  Al1  1  0.22138574  0.22383785  0.06183377  1
  Al  Al2  1  0.88444873  0.20555638  0.66012831  1
  Al  Al3  1  0.43402679  0.09749446  0.42036281  1
  Al  Al4  1  0.54392544  0.21268320  0.15560521  1
  Al  Al5  1  0.10621360  0.09701800  0.89034787  1
  Al  Al6  1  0.21957410  0.20080086  0.64605400  1
  Al  Al7  1  0.89401259  0.22435135  0.15695519  1
  Al  Al8  1  0.44271151  0.10146009  0.87646875  1
  Al  Al9  1  0.54954452  0.21090797  0.65474430  1
  Al  Al10  1  0.23257836  0.55012363  0.14435000  1
  Al  Al11  1  0.77418283  0.42792217  0.89962427  1
  Al  Al12  1  0.88557011  0.53580000  0.59236763  1
  Al  Al13  1  0.44240427  0.43326347  0.39843734  1
  Al  Al14  1  0.56704028  0.53841216  0.14852821  1
  Al  Al15  1  0.10485478  0.43604104  0.82857758  1
  Al  Al16  1  0.22643887  0.53897954  0.65195835  1
  Al  Al17  1  0.77256570  0.42072114  0.41429498  1
  Al  Al18  1  0.89959257  0.54889499  0.05895828  1
  Al  Al19  1  0.43944831  0.43320870  0.90231642  1
  Al  Al20  1  0.55395073  0.53101593  0.65744690  1
  Al  Al21  1  0.11857665  0.75235005  0.40751433  1
  Al  Al22  1  0.77815513  0.75084518  0.82510994  1
  Al  Al23  1  0.89421977  0.86361508  0.65501820  1
  Al  Al24  1  0.43294508  0.75386006  0.42605501  1
  Al  Al25  1  0.57192965  0.87388021  0.05124822  1
  Al  Al26  1  0.11617405  0.75363833  0.89916273  1
  Al  Al27  1  0.21833129  0.86648256  0.65569912  1
  Al  Al28  1  0.90470137  0.86791648  0.15065949  1
  Al  Al29  1  0.44503641  0.75397396  0.89095423  1
  Al  Al30  1  0.55405018  0.86769471  0.60044748  1
  Gd  Gd31  1  0.77611711  0.09046598  0.90912228  1
  Gd  Gd32  1  0.77892837  0.09170633  0.39220005  1
  Gd  Gd33  1  0.11456880  0.41359994  0.33332544  1
  Gd  Gd34  1  0.23463167  0.89039849  0.16338313  1
  Gd  Gd35  1  0.74927552  0.74574227  0.31694226  1
  N  N36  1  0.23321946  0.17000117  0.37669839  1
  N  N37  1  0.09435175  0.12848545  0.07037282  1
  N  N38  1  0.89523819  0.21963641  0.83641576  1
  N  N39  1  0.77532186  0.08835282  0.61654370  1
  N  N40  1  0.51610126  0.21847375  0.33666507  1
  N  N41  1  0.44855334  0.10269544  0.06800326  1
  N  N42  1  0.21991556  0.20787412  0.85465522  1
  N  N43  1  0.10448943  0.09045798  0.60813223  1
  N  N44  1  0.91057018  0.21916983  0.33867294  1
  N  N45  1  0.77861518  0.10175835  0.13103054  1
  N  N46  1  0.52901741  0.22692084  0.83191508  1
  N  N47  1  0.44037837  0.09901711  0.61063265  1
  N  N48  1  0.24419315  0.55704880  0.32719949  1
  N  N49  1  0.11690088  0.43741332  0.11079410  1
  N  N50  1  0.88990586  0.53792310  0.88008630  1
  N  N51  1  0.76732643  0.41711922  0.59841055  1
  N  N52  1  0.56120804  0.53943026  0.34102490  1
  N  N53  1  0.45157454  0.43019803  0.08747751  1
  N  N54  1  0.22916063  0.54144767  0.83727081  1
  N  N55  1  0.10558812  0.42757654  0.64408758  1
  N  N56  1  0.88027523  0.52973355  0.41811746  1
  N  N57  1  0.78050911  0.43391239  0.08818209  1
  N  N58  1  0.55659003  0.53343080  0.84044789  1
  N  N59  1  0.44146272  0.42653142  0.58550286  1
  N  N60  1  0.21836389  0.87102213  0.37755885  1
  N  N61  1  0.11056984  0.75971200  0.07903812  1
  N  N62  1  0.90977290  0.84348902  0.83363905  1
  N  N63  1  0.77254868  0.75365246  0.64381163  1
  N  N64  1  0.53141452  0.87776206  0.41936270  1
  N  N65  1  0.47600268  0.74708574  0.07653121  1
  N  N66  1  0.22105363  0.87176785  0.84263060  1
  N  N67  1  0.10866303  0.75395926  0.59209032  1
  N  N68  1  0.91876207  0.84150605  0.32923792  1
  N  N69  1  0.78388781  0.76920969  0.10115568  1
  N  N70  1  0.55731747  0.87306121  0.86806909  1
  N  N71  1  0.43930986  0.74950976  0.60975469  1
