# generated using pymatgen
data_Gd5Al31N36
_symmetry_space_group_name_H-M   'P 1'
_cell_length_a   9.69233956
_cell_length_b   9.66987443
_cell_length_c   10.29210715
_cell_angle_alpha   90.09796122
_cell_angle_beta   89.93212509
_cell_angle_gamma   59.98161899
_symmetry_Int_Tables_number   1
_chemical_formula_structural   Gd5Al31N36
_chemical_formula_sum   'Gd5 Al31 N36'
_cell_volume   835.22228988
_cell_formula_units_Z   1
loop_
 _symmetry_equiv_pos_site_id
 _symmetry_equiv_pos_as_xyz
  1  'x, y, z'
loop_
 _atom_site_type_symbol
 _atom_site_label
 _atom_site_symmetry_multiplicity
 _atom_site_fract_x
 _atom_site_fract_y
 _atom_site_fract_z
 _atom_site_occupancy
  Al  Al0  1  0.11598718  0.09246601  0.41576418  1
  Al  Al1  1  0.22141155  0.20434997  0.14695002  1
  Al  Al2  1  0.89236936  0.21162903  0.65759391  1
  Al  Al3  1  0.43172056  0.09000829  0.39981512  1
  Al  Al4  1  0.54103852  0.21186244  0.15773771  1
  Al  Al5  1  0.11227608  0.10129391  0.89956508  1
  Al  Al6  1  0.22356115  0.20492202  0.66349916  1
  Al  Al7  1  0.89039692  0.21557786  0.15931586  1
  Al  Al8  1  0.43762767  0.09686930  0.90477754  1
  Al  Al9  1  0.54499336  0.20964367  0.65610007  1
  Al  Al10  1  0.22563163  0.54117477  0.14713662  1
  Al  Al11  1  0.77836463  0.43157968  0.90548412  1
  Al  Al12  1  0.89020439  0.53656713  0.67064276  1
  Al  Al13  1  0.44159871  0.43750805  0.40224959  1
  Al  Al14  1  0.56265160  0.53380339  0.15238703  1
  Al  Al15  1  0.11455706  0.42702347  0.90574130  1
  Al  Al16  1  0.22445072  0.53731672  0.66368924  1
  Al  Al17  1  0.77879841  0.42767565  0.40406224  1
  Al  Al18  1  0.88752992  0.53539264  0.14294907  1
  Al  Al19  1  0.43964735  0.43225263  0.90337697  1
  Al  Al20  1  0.55855576  0.53587920  0.65452420  1
  Al  Al21  1  0.12259569  0.75820663  0.41578834  1
  Al  Al22  1  0.77845626  0.75754647  0.90640827  1
  Al  Al23  1  0.89291858  0.86448797  0.66699945  1
  Al  Al24  1  0.44300180  0.75902465  0.41419986  1
  Al  Al25  1  0.55489926  0.87111533  0.14607332  1
  Al  Al26  1  0.11477895  0.75421221  0.90070209  1
  Al  Al27  1  0.22382879  0.87183854  0.65335053  1
  Al  Al28  1  0.89464325  0.86271912  0.15314190  1
  Al  Al29  1  0.44951974  0.75633350  0.89976798  1
  Al  Al30  1  0.55513529  0.87267990  0.66441824  1
  Gd  Gd31  1  0.77423470  0.10128166  0.90389671  1
  Gd  Gd32  1  0.77200347  0.09946792  0.39821782  1
  Gd  Gd33  1  0.12426006  0.42293929  0.39683339  1
  Gd  Gd34  1  0.22396180  0.87263555  0.16235028  1
  Gd  Gd35  1  0.77064555  0.75943811  0.40420039  1
  N  N36  1  0.22871587  0.17456728  0.33073047  1
  N  N37  1  0.09513220  0.12040509  0.08246138  1
  N  N38  1  0.90282850  0.22459816  0.83754104  1
  N  N39  1  0.77736976  0.09418357  0.62761283  1
  N  N40  1  0.50901583  0.22603814  0.34123582  1
  N  N41  1  0.44349314  0.09354100  0.09047724  1
  N  N42  1  0.22413049  0.20545449  0.84834891  1
  N  N43  1  0.11237364  0.09768418  0.60230220  1
  N  N44  1  0.90765501  0.21575134  0.34531529  1
  N  N45  1  0.77357479  0.09793901  0.13230965  1
  N  N46  1  0.52099360  0.22219667  0.83850884  1
  N  N47  1  0.44299296  0.09094287  0.59219218  1
  N  N48  1  0.24048933  0.56245714  0.33057301  1
  N  N49  1  0.11600804  0.42700684  0.09886515  1
  N  N50  1  0.88980858  0.53805828  0.85772699  1
  N  N51  1  0.77912121  0.43076237  0.59387464  1
  N  N52  1  0.56037861  0.53661552  0.34598790  1
  N  N53  1  0.44773907  0.42781224  0.09093622  1
  N  N54  1  0.22513345  0.53773496  0.84823715  1
  N  N55  1  0.11099522  0.42777968  0.61947790  1
  N  N56  1  0.88008277  0.52339081  0.32414349  1
  N  N57  1  0.77595071  0.42511983  0.09077470  1
  N  N58  1  0.55865851  0.53387424  0.84166563  1
  N  N59  1  0.44295463  0.42982978  0.59238266  1
  N  N60  1  0.22391024  0.87285318  0.38367219  1
  N  N61  1  0.10087602  0.74964502  0.08142139  1
  N  N62  1  0.90220576  0.84609249  0.84778196  1
  N  N63  1  0.77789710  0.75784536  0.62319444  1
  N  N64  1  0.52388646  0.88074244  0.33108040  1
  N  N65  1  0.47205557  0.74298866  0.08283274  1
  N  N66  1  0.22306530  0.87258129  0.84700496  1
  N  N67  1  0.11159007  0.75679157  0.60363541  1
  N  N68  1  0.92503326  0.85007545  0.33454344  1
  N  N69  1  0.77628724  0.76261940  0.09755972  1
  N  N70  1  0.55436025  0.87505016  0.84986679  1
  N  N71  1  0.45090559  0.75797719  0.60262024  1
