# generated using pymatgen
data_Gd5Al31N36
_symmetry_space_group_name_H-M   'P 1'
_cell_length_a   9.67723787
_cell_length_b   9.63639593
_cell_length_c   10.65752458
_cell_angle_alpha   91.05521246
_cell_angle_beta   91.37871935
_cell_angle_gamma   60.15248638
_symmetry_Int_Tables_number   1
_chemical_formula_structural   Gd5Al31N36
_chemical_formula_sum   'Gd5 Al31 N36'
_cell_volume   861.74855578
_cell_formula_units_Z   1
loop_
 _symmetry_equiv_pos_site_id
 _symmetry_equiv_pos_as_xyz
  1  'x, y, z'
loop_
 _atom_site_type_symbol
 _atom_site_label
 _atom_site_symmetry_multiplicity
 _atom_site_fract_x
 _atom_site_fract_y
 _atom_site_fract_z
 _atom_site_occupancy
  Al  Al0  1  0.11537783  0.08442416  0.41028602  1
  Al  Al1  1  0.22675039  0.21561770  0.05249863  1
  Al  Al2  1  0.89360858  0.21058079  0.63750833  1
  Al  Al3  1  0.43413937  0.08865430  0.32477225  1
  Al  Al4  1  0.55174674  0.20473008  0.07617398  1
  Al  Al5  1  0.10562616  0.09605362  0.88239349  1
  Al  Al6  1  0.22973152  0.20176789  0.58229178  1
  Al  Al7  1  0.89611480  0.22084347  0.13291175  1
  Al  Al8  1  0.43298700  0.09889138  0.81868745  1
  Al  Al9  1  0.54237417  0.21387114  0.55908218  1
  Al  Al10  1  0.22202873  0.54899166  0.13174890  1
  Al  Al11  1  0.77514122  0.42524426  0.88559072  1
  Al  Al12  1  0.88587674  0.53949673  0.58375261  1
  Al  Al13  1  0.44310730  0.43736342  0.34730485  1
  Al  Al14  1  0.57086383  0.54006157  0.13485722  1
  Al  Al15  1  0.10673531  0.42272761  0.81676838  1
  Al  Al16  1  0.23005020  0.53573589  0.64936131  1
  Al  Al17  1  0.77285200  0.42380588  0.40202190  1
  Al  Al18  1  0.89846932  0.54490017  0.04696565  1
  Al  Al19  1  0.43193432  0.43775611  0.89741865  1
  Al  Al20  1  0.55311725  0.53210616  0.64809537  1
  Al  Al21  1  0.13143211  0.74725287  0.40872247  1
  Al  Al22  1  0.77723964  0.75556920  0.81635059  1
  Al  Al23  1  0.89152664  0.86346249  0.57251690  1
  Al  Al24  1  0.43938093  0.75576744  0.41311037  1
  Al  Al25  1  0.56444380  0.87727217  0.05082756  1
  Al  Al26  1  0.11797623  0.75226529  0.88452117  1
  Al  Al27  1  0.22456126  0.86784531  0.64794723  1
  Al  Al28  1  0.88665604  0.87385304  0.05220844  1
  Al  Al29  1  0.44708393  0.75437127  0.88397331  1
  Al  Al30  1  0.55466378  0.87773550  0.58246455  1
  Gd  Gd31  1  0.75263464  0.10041279  0.81516707  1
  Gd  Gd32  1  0.78333615  0.09243451  0.33648577  1
  Gd  Gd33  1  0.10898915  0.41238767  0.32422566  1
  Gd  Gd34  1  0.23017244  0.87747408  0.14755148  1
  Gd  Gd35  1  0.76344973  0.75533446  0.31045236  1
  N  N36  1  0.24177325  0.17661076  0.40454961  1
  N  N37  1  0.09752923  0.11926605  0.06221572  1
  N  N38  1  0.89858704  0.21963261  0.81695876  1
  N  N39  1  0.77458495  0.09654232  0.59486196  1
  N  N40  1  0.52035424  0.22065419  0.37654527  1
  N  N41  1  0.44172221  0.08950819  0.13506516  1
  N  N42  1  0.22206118  0.20630688  0.87083008  1
  N  N43  1  0.10940164  0.08843762  0.59117748  1
  N  N44  1  0.91871424  0.22475529  0.31972192  1
  N  N45  1  0.78098745  0.09582340  0.11069612  1
  N  N46  1  0.51490213  0.21747008  0.90117560  1
  N  N47  1  0.44913824  0.09795524  0.63945020  1
  N  N48  1  0.23184998  0.56183142  0.31242451  1
  N  N49  1  0.11330970  0.43057372  0.10624142  1
  N  N50  1  0.88892100  0.53822718  0.86718164  1
  N  N51  1  0.76675003  0.42359382  0.58471281  1
  N  N52  1  0.56392266  0.54247608  0.32468008  1
  N  N53  1  0.44696420  0.43681401  0.09352270  1
  N  N54  1  0.22346730  0.53823991  0.83066549  1
  N  N55  1  0.10843870  0.42236434  0.63337968  1
  N  N56  1  0.87803285  0.53543936  0.40901522  1
  N  N57  1  0.78043988  0.43064722  0.07074652  1
  N  N58  1  0.55509031  0.53178272  0.83199835  1
  N  N59  1  0.43986618  0.43097216  0.59385556  1
  N  N60  1  0.22338633  0.86921677  0.36203325  1
  N  N61  1  0.11018861  0.75225501  0.06431092  1
  N  N62  1  0.89544762  0.85199997  0.87170128  1
  N  N63  1  0.77602549  0.76208586  0.63552034  1
  N  N64  1  0.53229107  0.88675540  0.40178348  1
  N  N65  1  0.47306401  0.74607759  0.06526815  1
  N  N66  1  0.22320954  0.87056244  0.83199586  1
  N  N67  1  0.12164508  0.75045702  0.59247716  1
  N  N68  1  0.91241132  0.84467866  0.39522303  1
  N  N69  1  0.78171520  0.76296775  0.09708857  1
  N  N70  1  0.55519181  0.87854346  0.86885529  1
  N  N71  1  0.44596843  0.75350300  0.59562009  1
