# generated using pymatgen
data_Gd5Al31N36
_symmetry_space_group_name_H-M   'P 1'
_cell_length_a   9.72629703
_cell_length_b   9.72963254
_cell_length_c   10.31426759
_cell_angle_alpha   90.03384380
_cell_angle_beta   90.49149618
_cell_angle_gamma   59.81825767
_symmetry_Int_Tables_number   1
_chemical_formula_structural   Gd5Al31N36
_chemical_formula_sum   'Gd5 Al31 N36'
_cell_volume   843.71296700
_cell_formula_units_Z   1
loop_
 _symmetry_equiv_pos_site_id
 _symmetry_equiv_pos_as_xyz
  1  'x, y, z'
loop_
 _atom_site_type_symbol
 _atom_site_label
 _atom_site_symmetry_multiplicity
 _atom_site_fract_x
 _atom_site_fract_y
 _atom_site_fract_z
 _atom_site_occupancy
  Al  Al0  1  0.11311788  0.09923748  0.31321449  1
  Al  Al1  1  0.22181347  0.21035040  0.05254884  1
  Al  Al2  1  0.89351582  0.20833656  0.55693084  1
  Al  Al3  1  0.43148005  0.09308513  0.31496957  1
  Al  Al4  1  0.54587844  0.21009804  0.05938274  1
  Al  Al5  1  0.11198409  0.10616920  0.81031712  1
  Al  Al6  1  0.22425087  0.20158157  0.56557052  1
  Al  Al7  1  0.89103088  0.22006580  0.06005182  1
  Al  Al8  1  0.43806734  0.09978430  0.80793928  1
  Al  Al9  1  0.54394728  0.21050700  0.55617799  1
  Al  Al10  1  0.22207990  0.53431759  0.05266328  1
  Al  Al11  1  0.78227909  0.42843406  0.80760715  1
  Al  Al12  1  0.88745775  0.53581531  0.57049270  1
  Al  Al13  1  0.44175422  0.43740132  0.31299100  1
  Al  Al14  1  0.56493648  0.52993460  0.05567889  1
  Al  Al15  1  0.11404735  0.42691000  0.81089142  1
  Al  Al16  1  0.22818887  0.54135891  0.56604197  1
  Al  Al17  1  0.77416883  0.42989570  0.31420606  1
  Al  Al18  1  0.88804537  0.53787433  0.04381386  1
  Al  Al19  1  0.44060341  0.42865485  0.81015897  1
  Al  Al20  1  0.56086469  0.52872423  0.56839882  1
  Al  Al21  1  0.11856305  0.75569274  0.31409502  1
  Al  Al22  1  0.78170289  0.75585376  0.80661109  1
  Al  Al23  1  0.89604027  0.86535682  0.56174555  1
  Al  Al24  1  0.42733413  0.76570032  0.38247243  1
  Al  Al25  1  0.56152147  0.87517160  0.04226962  1
  Al  Al26  1  0.11369633  0.74901549  0.80890618  1
  Al  Al27  1  0.22407880  0.87079056  0.63227626  1
  Al  Al28  1  0.89249904  0.85799528  0.04969032  1
  Al  Al29  1  0.45531524  0.75301945  0.84739345  1
  Al  Al30  1  0.55168287  0.87782416  0.57413497  1
  Gd  Gd31  1  0.77541612  0.10016681  0.81653967  1
  Gd  Gd32  1  0.77627785  0.09644512  0.31445208  1
  Gd  Gd33  1  0.11664344  0.42837321  0.31183832  1
  Gd  Gd34  1  0.21881434  0.87408061  0.08148819  1
  Gd  Gd35  1  0.76242672  0.76125533  0.30757969  1
  N  N36  1  0.22945696  0.18329128  0.38446132  1
  N  N37  1  0.09763812  0.13370896  0.12851218  1
  N  N38  1  0.90767882  0.22265003  0.87768464  1
  N  N39  1  0.77523002  0.09670635  0.58831745  1
  N  N40  1  0.51602115  0.22365267  0.37191188  1
  N  N41  1  0.44490052  0.09053738  0.12127537  1
  N  N42  1  0.22543914  0.20388477  0.86597155  1
  N  N43  1  0.10880749  0.09830659  0.62479138  1
  N  N44  1  0.90261495  0.21917046  0.37484250  1
  N  N45  1  0.78186186  0.09268741  0.08442978  1
  N  N46  1  0.52122313  0.22182426  0.87767166  1
  N  N47  1  0.44317045  0.09824556  0.62460557  1
  N  N48  1  0.24146267  0.55506985  0.38552321  1
  N  N49  1  0.11053095  0.42814057  0.08925659  1
  N  N50  1  0.88908579  0.53767951  0.85739384  1
  N  N51  1  0.77924493  0.42269082  0.62422394  1
  N  N52  1  0.55836483  0.53525126  0.37648055  1
  N  N53  1  0.44421314  0.43071338  0.12175675  1
  N  N54  1  0.22630172  0.53776471  0.86629611  1
  N  N55  1  0.11498482  0.42744021  0.61864256  1
  N  N56  1  0.87572142  0.52668976  0.39016377  1
  N  N57  1  0.77669252  0.43322388  0.12329662  1
  N  N58  1  0.56501534  0.52283747  0.86462226  1
  N  N59  1  0.44782828  0.42420725  0.62483728  1
  N  N60  1  0.21960180  0.87517107  0.32505084  1
  N  N61  1  0.09528029  0.73648362  0.12830258  1
  N  N62  1  0.90655670  0.84262104  0.86704127  1
  N  N63  1  0.77784634  0.76163333  0.61874210  1
  N  N64  1  0.52360997  0.88918804  0.39011212  1
  N  N65  1  0.47412706  0.74739345  0.06099912  1
  N  N66  1  0.22294192  0.87224687  0.83391803  1
  N  N67  1  0.11182501  0.75795248  0.62581227  1
  N  N68  1  0.91667439  0.84908969  0.38290159  1
  N  N69  1  0.77656302  0.75837246  0.08852485  1
  N  N70  1  0.55910076  0.87856605  0.85405586  1
  N  N71  1  0.44596375  0.75511560  0.60389257  1
