# generated using pymatgen
data_Gd5Al31N36
_symmetry_space_group_name_H-M   'P 1'
_cell_length_a   9.70742518
_cell_length_b   9.70669923
_cell_length_c   10.41451205
_cell_angle_alpha   90.60499282
_cell_angle_beta   90.58520719
_cell_angle_gamma   59.96281907
_symmetry_Int_Tables_number   1
_chemical_formula_structural   Gd5Al31N36
_chemical_formula_sum   'Gd5 Al31 N36'
_cell_volume   849.47597232
_cell_formula_units_Z   1
loop_
 _symmetry_equiv_pos_site_id
 _symmetry_equiv_pos_as_xyz
  1  'x, y, z'
loop_
 _atom_site_type_symbol
 _atom_site_label
 _atom_site_symmetry_multiplicity
 _atom_site_fract_x
 _atom_site_fract_y
 _atom_site_fract_z
 _atom_site_occupancy
  Al  Al0  1  0.11426076  0.09270352  0.40981504  1
  Al  Al1  1  0.22140427  0.20763046  0.14454441  1
  Al  Al2  1  0.88714521  0.20712637  0.65708174  1
  Al  Al3  1  0.43359989  0.08847569  0.40119745  1
  Al  Al4  1  0.54001137  0.21442631  0.15197338  1
  Al  Al5  1  0.10987617  0.10216390  0.89676918  1
  Al  Al6  1  0.22173471  0.19756937  0.65440852  1
  Al  Al7  1  0.89118236  0.22031268  0.15415626  1
  Al  Al8  1  0.42946313  0.10909237  0.89180676  1
  Al  Al9  1  0.54205682  0.21214194  0.65090992  1
  Al  Al10  1  0.22622310  0.54617819  0.14703454  1
  Al  Al11  1  0.77577839  0.42805626  0.89862401  1
  Al  Al12  1  0.88345537  0.53506277  0.59476138  1
  Al  Al13  1  0.44612103  0.43940680  0.39505257  1
  Al  Al14  1  0.56709947  0.53632442  0.14593310  1
  Al  Al15  1  0.10914881  0.43067083  0.82900977  1
  Al  Al16  1  0.22691271  0.54395218  0.65335104  1
  Al  Al17  1  0.77664363  0.41808349  0.41071151  1
  Al  Al18  1  0.90572211  0.53829528  0.06797547  1
  Al  Al19  1  0.43718749  0.43365527  0.90110617  1
  Al  Al20  1  0.55348364  0.53242700  0.65522071  1
  Al  Al21  1  0.12069134  0.76140553  0.40786314  1
  Al  Al22  1  0.78146420  0.75032422  0.83181590  1
  Al  Al23  1  0.89303855  0.86541141  0.65444197  1
  Al  Al24  1  0.44061688  0.75645777  0.42098206  1
  Al  Al25  1  0.56775648  0.87132192  0.06274682  1
  Al  Al26  1  0.11495020  0.75529491  0.89655051  1
  Al  Al27  1  0.21732388  0.87321627  0.64994331  1
  Al  Al28  1  0.90084821  0.86917487  0.14544940  1
  Al  Al29  1  0.44348748  0.75485179  0.88754594  1
  Al  Al30  1  0.54909592  0.87359331  0.62858407  1
  Gd  Gd31  1  0.77210069  0.09575216  0.89976817  1
  Gd  Gd32  1  0.77060786  0.09639228  0.39209215  1
  Gd  Gd33  1  0.14255435  0.41484644  0.38174555  1
  Gd  Gd34  1  0.23370319  0.87650875  0.16071652  1
  Gd  Gd35  1  0.76995215  0.73995928  0.32474104  1
  N  N36  1  0.23506156  0.16336838  0.32491129  1
  N  N37  1  0.09674823  0.12257905  0.07725075  1
  N  N38  1  0.89945415  0.22016222  0.83562009  1
  N  N39  1  0.77285869  0.09172390  0.61976457  1
  N  N40  1  0.50535447  0.22775932  0.33466899  1
  N  N41  1  0.44170712  0.09942123  0.07738124  1
  N  N42  1  0.21938521  0.20385109  0.83679430  1
  N  N43  1  0.10566730  0.09760684  0.59571544  1
  N  N44  1  0.90560769  0.21567530  0.33749696  1
  N  N45  1  0.77296598  0.10174870  0.12511839  1
  N  N46  1  0.51892718  0.22701251  0.83112969  1
  N  N47  1  0.43494209  0.10037104  0.59209263  1
  N  N48  1  0.24694458  0.56877697  0.32709857  1
  N  N49  1  0.11401189  0.43303935  0.13653633  1
  N  N50  1  0.89477003  0.53552080  0.88241095  1
  N  N51  1  0.76642269  0.41899849  0.59803134  1
  N  N52  1  0.56568614  0.53844723  0.33949778  1
  N  N53  1  0.44802196  0.43073922  0.08656270  1
  N  N54  1  0.22652727  0.54214901  0.83716914  1
  N  N55  1  0.11042503  0.42808546  0.63509738  1
  N  N56  1  0.89341534  0.51539294  0.41767797  1
  N  N57  1  0.78001134  0.42973199  0.08665982  1
  N  N58  1  0.55627053  0.53263238  0.83881832  1
  N  N59  1  0.44028859  0.42959482  0.58392690  1
  N  N60  1  0.22378587  0.87357883  0.37910455  1
  N  N61  1  0.10655021  0.75393391  0.07621737  1
  N  N62  1  0.90744327  0.84555084  0.83474875  1
  N  N63  1  0.77354952  0.75420800  0.64184010  1
  N  N64  1  0.53185360  0.87593496  0.38787434  1
  N  N65  1  0.47494430  0.74329373  0.07124839  1
  N  N66  1  0.21874937  0.87522165  0.84049592  1
  N  N67  1  0.10837922  0.75857110  0.59315544  1
  N  N68  1  0.92313316  0.85123922  0.32819689  1
  N  N69  1  0.78290390  0.76412633  0.10331383  1
  N  N70  1  0.55221992  0.87780020  0.85719904  1
  N  N71  1  0.44186226  0.75339746  0.60788462  1
