# generated using pymatgen
data_Gd5Al31N36
_symmetry_space_group_name_H-M   'P 1'
_cell_length_a   9.76053241
_cell_length_b   9.70590095
_cell_length_c   10.32453343
_cell_angle_alpha   90.42435033
_cell_angle_beta   90.16328149
_cell_angle_gamma   59.75455564
_symmetry_Int_Tables_number   1
_chemical_formula_structural   Gd5Al31N36
_chemical_formula_sum   'Gd5 Al31 N36'
_cell_volume   844.92633538
_cell_formula_units_Z   1
loop_
 _symmetry_equiv_pos_site_id
 _symmetry_equiv_pos_as_xyz
  1  'x, y, z'
loop_
 _atom_site_type_symbol
 _atom_site_label
 _atom_site_symmetry_multiplicity
 _atom_site_fract_x
 _atom_site_fract_y
 _atom_site_fract_z
 _atom_site_occupancy
  Al  Al0  1  0.11378864  0.09495590  0.40826090  1
  Al  Al1  1  0.22009738  0.20617377  0.14120249  1
  Al  Al2  1  0.88953491  0.20667140  0.65535607  1
  Al  Al3  1  0.42985430  0.08892764  0.39128317  1
  Al  Al4  1  0.53892866  0.21286015  0.14980260  1
  Al  Al5  1  0.11202814  0.09990015  0.89382635  1
  Al  Al6  1  0.22522610  0.19622759  0.65250107  1
  Al  Al7  1  0.89124733  0.22038765  0.15067044  1
  Al  Al8  1  0.43709494  0.09552385  0.89735875  1
  Al  Al9  1  0.54469189  0.20708844  0.64815532  1
  Al  Al10  1  0.22545884  0.54378138  0.14074497  1
  Al  Al11  1  0.77636890  0.42923181  0.89858086  1
  Al  Al12  1  0.88783570  0.52903874  0.59476184  1
  Al  Al13  1  0.44371466  0.43873799  0.39350819  1
  Al  Al14  1  0.56492919  0.53479306  0.14449399  1
  Al  Al15  1  0.11139083  0.42765867  0.83993256  1
  Al  Al16  1  0.22841245  0.53944465  0.65300777  1
  Al  Al17  1  0.77412802  0.42461015  0.40454273  1
  Al  Al18  1  0.89548855  0.54598369  0.07913521  1
  Al  Al19  1  0.43957161  0.43032704  0.89744771  1
  Al  Al20  1  0.55502436  0.53302553  0.65124352  1
  Al  Al21  1  0.12666877  0.76187527  0.40862105  1
  Al  Al22  1  0.77983703  0.75089964  0.82995143  1
  Al  Al23  1  0.89721106  0.86671353  0.65243285  1
  Al  Al24  1  0.44287322  0.75807147  0.40722442  1
  Al  Al25  1  0.55598587  0.86980576  0.14142072  1
  Al  Al26  1  0.11485437  0.75329201  0.89333895  1
  Al  Al27  1  0.22317385  0.87100797  0.64640861  1
  Al  Al28  1  0.89645152  0.86477426  0.15089490  1
  Al  Al29  1  0.44889035  0.75627691  0.89332425  1
  Al  Al30  1  0.54528022  0.87434902  0.65050274  1
  Gd  Gd31  1  0.77376000  0.09494387  0.89966569  1
  Gd  Gd32  1  0.77056248  0.10836763  0.38754175  1
  Gd  Gd33  1  0.13554840  0.42191228  0.37437285  1
  Gd  Gd34  1  0.22452963  0.87336640  0.15696494  1
  Gd  Gd35  1  0.76913359  0.77158306  0.37936330  1
  N  N36  1  0.22877171  0.17131217  0.32515914  1
  N  N37  1  0.09655661  0.12080129  0.07540079  1
  N  N38  1  0.90108827  0.22020368  0.83470583  1
  N  N39  1  0.77559906  0.09166460  0.61723559  1
  N  N40  1  0.50471292  0.22704627  0.33326003  1
  N  N41  1  0.44313203  0.09284381  0.08253675  1
  N  N42  1  0.22541584  0.19943760  0.83728888  1
  N  N43  1  0.10804727  0.09707500  0.59535404  1
  N  N44  1  0.90774126  0.22129565  0.33458461  1
  N  N45  1  0.77211317  0.10121745  0.12593264  1
  N  N46  1  0.52119746  0.21971437  0.83061184  1
  N  N47  1  0.44106203  0.09015744  0.58249608  1
  N  N48  1  0.24689029  0.57002137  0.32288582  1
  N  N49  1  0.11438244  0.43068307  0.12747603  1
  N  N50  1  0.89237212  0.53943170  0.88515827  1
  N  N51  1  0.76891479  0.41843886  0.59450654  1
  N  N52  1  0.56371945  0.53536740  0.33761058  1
  N  N53  1  0.44780112  0.42877230  0.08348105  1
  N  N54  1  0.22803482  0.53830446  0.83726153  1
  N  N55  1  0.11202664  0.42566957  0.63190553  1
  N  N56  1  0.88635970  0.52504457  0.41154346  1
  N  N57  1  0.77734027  0.42941905  0.08593017  1
  N  N58  1  0.55696922  0.53327756  0.83683003  1
  N  N59  1  0.44234592  0.42726510  0.58373484  1
  N  N60  1  0.22544084  0.87584234  0.37773423  1
  N  N61  1  0.09906875  0.75200322  0.07310805  1
  N  N62  1  0.90638461  0.84371285  0.83256382  1
  N  N63  1  0.77494335  0.75657773  0.62898811  1
  N  N64  1  0.51768594  0.88060396  0.32660732  1
  N  N65  1  0.47182579  0.74469255  0.07531584  1
  N  N66  1  0.22280928  0.87145867  0.83937672  1
  N  N67  1  0.11391232  0.75566042  0.59419321  1
  N  N68  1  0.93126954  0.86158483  0.33184084  1
  N  N69  1  0.77847750  0.76161603  0.13297821  1
  N  N70  1  0.55082365  0.87458660  0.83623194  1
  N  N71  1  0.44866186  0.75418059  0.59525273  1
