# generated using pymatgen
data_Gd5Al31N36
_symmetry_space_group_name_H-M   'P 1'
_cell_length_a   9.71852277
_cell_length_b   9.71616540
_cell_length_c   10.38841776
_cell_angle_alpha   90.04599123
_cell_angle_beta   90.54720585
_cell_angle_gamma   59.84683228
_symmetry_Int_Tables_number   1
_chemical_formula_structural   Gd5Al31N36
_chemical_formula_sum   'Gd5 Al31 N36'
_cell_volume   848.16116238
_cell_formula_units_Z   1
loop_
 _symmetry_equiv_pos_site_id
 _symmetry_equiv_pos_as_xyz
  1  'x, y, z'
loop_
 _atom_site_type_symbol
 _atom_site_label
 _atom_site_symmetry_multiplicity
 _atom_site_fract_x
 _atom_site_fract_y
 _atom_site_fract_z
 _atom_site_occupancy
  Al  Al0  1  0.11456729  0.09759820  0.31321968  1
  Al  Al1  1  0.22077598  0.21093724  0.05119055  1
  Al  Al2  1  0.89399486  0.20747443  0.55604434  1
  Al  Al3  1  0.43233673  0.09172094  0.31419403  1
  Al  Al4  1  0.54519503  0.21023232  0.05770767  1
  Al  Al5  1  0.11278340  0.10517991  0.81030115  1
  Al  Al6  1  0.22383895  0.20106179  0.56523285  1
  Al  Al7  1  0.89073288  0.22000342  0.05861886  1
  Al  Al8  1  0.43778143  0.09899238  0.80669738  1
  Al  Al9  1  0.54302894  0.21036798  0.55464909  1
  Al  Al10  1  0.21974817  0.53557121  0.05165973  1
  Al  Al11  1  0.78569825  0.42800748  0.80700083  1
  Al  Al12  1  0.88895437  0.53512051  0.56914515  1
  Al  Al13  1  0.44108773  0.43759593  0.31468941  1
  Al  Al14  1  0.56254685  0.53354919  0.09315746  1
  Al  Al15  1  0.11371401  0.42718719  0.80993194  1
  Al  Al16  1  0.22632544  0.54204284  0.56535070  1
  Al  Al17  1  0.77815498  0.42773404  0.31613208  1
  Al  Al18  1  0.88840121  0.53848901  0.04266007  1
  Al  Al19  1  0.43732579  0.42869397  0.80987802  1
  Al  Al20  1  0.55763612  0.53325182  0.60819117  1
  Al  Al21  1  0.11872597  0.75641970  0.31446158  1
  Al  Al22  1  0.78033746  0.75677365  0.80518911  1
  Al  Al23  1  0.89571272  0.86625421  0.56126212  1
  Al  Al24  1  0.42980006  0.76057338  0.39029432  1
  Al  Al25  1  0.56244116  0.87726125  0.04210435  1
  Al  Al26  1  0.11323939  0.74985750  0.80922482  1
  Al  Al27  1  0.22547509  0.87001381  0.63463913  1
  Al  Al28  1  0.89087381  0.85943074  0.04876273  1
  Al  Al29  1  0.45651798  0.75047094  0.86623973  1
  Al  Al30  1  0.55175238  0.87865108  0.56897451  1
  Gd  Gd31  1  0.77439734  0.10124338  0.81465633  1
  Gd  Gd32  1  0.77507299  0.09760746  0.31355681  1
  Gd  Gd33  1  0.11982746  0.42581628  0.31022796  1
  Gd  Gd34  1  0.21805843  0.87451500  0.08747927  1
  Gd  Gd35  1  0.76581221  0.75884240  0.30706204  1
  N  N36  1  0.23057385  0.18157544  0.38508612  1
  N  N37  1  0.09690026  0.13433239  0.12844485  1
  N  N38  1  0.90783340  0.22232093  0.87770763  1
  N  N39  1  0.77411572  0.09746630  0.58818023  1
  N  N40  1  0.51497395  0.22392729  0.37166528  1
  N  N41  1  0.44366677  0.09089356  0.12053894  1
  N  N42  1  0.22520254  0.20426133  0.86575086  1
  N  N43  1  0.10878658  0.09766391  0.62573916  1
  N  N44  1  0.90470926  0.21660969  0.37532825  1
  N  N45  1  0.78060799  0.09389427  0.08433175  1
  N  N46  1  0.52078523  0.22192674  0.87733723  1
  N  N47  1  0.44311592  0.09708313  0.62413177  1
  N  N48  1  0.24052143  0.55600124  0.38626526  1
  N  N49  1  0.10994324  0.42839890  0.08891525  1
  N  N50  1  0.88954519  0.53884649  0.85772437  1
  N  N51  1  0.78371625  0.42084551  0.62334912  1
  N  N52  1  0.55880888  0.53849125  0.34969927  1
  N  N53  1  0.44068243  0.42971641  0.12137853  1
  N  N54  1  0.22457796  0.53865845  0.86698323  1
  N  N55  1  0.11503508  0.42703679  0.61930139  1
  N  N56  1  0.88059017  0.52416353  0.39050552  1
  N  N57  1  0.78170192  0.43162547  0.12306476  1
  N  N58  1  0.56160306  0.52958540  0.83321600  1
  N  N59  1  0.44383767  0.42191300  0.62445816  1
  N  N60  1  0.22379230  0.87297626  0.32013715  1
  N  N61  1  0.09317468  0.73759286  0.12844345  1
  N  N62  1  0.90544088  0.84389021  0.86720362  1
  N  N63  1  0.77704220  0.76155639  0.61823355  1
  N  N64  1  0.52717697  0.88824322  0.38646590  1
  N  N65  1  0.47552565  0.74412656  0.05228654  1
  N  N66  1  0.22617382  0.87066747  0.83336006  1
  N  N67  1  0.11108554  0.75838345  0.62707865  1
  N  N68  1  0.91701145  0.85091550  0.38356059  1
  N  N69  1  0.77582543  0.75878894  0.08903373  1
  N  N70  1  0.55855117  0.87898565  0.85502453  1
  N  N71  1  0.43976561  0.75764644  0.58276813  1
