# generated using pymatgen
data_Gd5Al31N36
_symmetry_space_group_name_H-M   'P 1'
_cell_length_a   9.67456293
_cell_length_b   9.65843469
_cell_length_c   10.59315407
_cell_angle_alpha   90.89267320
_cell_angle_beta   90.96656399
_cell_angle_gamma   60.36482869
_symmetry_Int_Tables_number   1
_chemical_formula_structural   Gd5Al31N36
_chemical_formula_sum   'Gd5 Al31 N36'
_cell_volume   860.20512405
_cell_formula_units_Z   1
loop_
 _symmetry_equiv_pos_site_id
 _symmetry_equiv_pos_as_xyz
  1  'x, y, z'
loop_
 _atom_site_type_symbol
 _atom_site_label
 _atom_site_symmetry_multiplicity
 _atom_site_fract_x
 _atom_site_fract_y
 _atom_site_fract_z
 _atom_site_occupancy
  Al  Al0  1  0.12067301  0.07863750  0.40374861  1
  Al  Al1  1  0.22650131  0.21546504  0.03742484  1
  Al  Al2  1  0.88966888  0.20251519  0.57374174  1
  Al  Al3  1  0.43355925  0.09235230  0.31313639  1
  Al  Al4  1  0.54447962  0.21414561  0.05550052  1
  Al  Al5  1  0.11615975  0.09489537  0.86160994  1
  Al  Al6  1  0.23008043  0.20633296  0.57073299  1
  Al  Al7  1  0.88111062  0.21782531  0.03391417  1
  Al  Al8  1  0.43726306  0.09883951  0.80370454  1
  Al  Al9  1  0.54648859  0.21046178  0.55125489  1
  Al  Al10  1  0.22246799  0.53898539  0.05232078  1
  Al  Al11  1  0.77615872  0.43290762  0.82838475  1
  Al  Al12  1  0.89180350  0.54294521  0.57633504  1
  Al  Al13  1  0.43801508  0.43326404  0.30937775  1
  Al  Al14  1  0.57203399  0.53692578  0.12817282  1
  Al  Al15  1  0.11556796  0.42916379  0.80510573  1
  Al  Al16  1  0.22649209  0.54182990  0.56191017  1
  Al  Al17  1  0.76463468  0.43331544  0.40071732  1
  Al  Al18  1  0.89069301  0.53823666  0.03244294  1
  Al  Al19  1  0.43364454  0.42920459  0.80850120  1
  Al  Al20  1  0.54954970  0.54295444  0.63375157  1
  Al  Al21  1  0.11486058  0.75168280  0.31703896  1
  Al  Al22  1  0.78087917  0.75673324  0.80551385  1
  Al  Al23  1  0.89611842  0.86608714  0.55740481  1
  Al  Al24  1  0.43272198  0.75751183  0.39503456  1
  Al  Al25  1  0.56581957  0.87680713  0.04058449  1
  Al  Al26  1  0.11589235  0.75028894  0.80732615  1
  Al  Al27  1  0.22845554  0.87112874  0.63828389  1
  Al  Al28  1  0.89685693  0.85903121  0.04647424  1
  Al  Al29  1  0.45178457  0.75249809  0.87516321  1
  Al  Al30  1  0.55473018  0.87867089  0.56630045  1
  Gd  Gd31  1  0.76467004  0.08876965  0.80777616  1
  Gd  Gd32  1  0.78089766  0.09868623  0.30410620  1
  Gd  Gd33  1  0.11037310  0.41863174  0.30477387  1
  Gd  Gd34  1  0.22994846  0.88114300  0.12188754  1
  Gd  Gd35  1  0.76354930  0.75478360  0.30018057  1
  N  N36  1  0.23552791  0.18310607  0.38873267  1
  N  N37  1  0.10060737  0.12018826  0.04662738  1
  N  N38  1  0.89511870  0.21580544  0.84445983  1
  N  N39  1  0.77259518  0.09365690  0.59014625  1
  N  N40  1  0.52403290  0.22116026  0.37055200  1
  N  N41  1  0.44195473  0.09177456  0.11971988  1
  N  N42  1  0.22572700  0.20978020  0.85312769  1
  N  N43  1  0.11749133  0.08709026  0.59023603  1
  N  N44  1  0.90150169  0.21646686  0.38874379  1
  N  N45  1  0.77900247  0.09415720  0.07805700  1
  N  N46  1  0.51569336  0.22694469  0.87901358  1
  N  N47  1  0.44905528  0.09593879  0.62410919  1
  N  N48  1  0.23819909  0.54887347  0.38328198  1
  N  N49  1  0.11060940  0.42907597  0.08600345  1
  N  N50  1  0.89264440  0.53838467  0.84816729  1
  N  N51  1  0.77038454  0.43056487  0.59777754  1
  N  N52  1  0.56061845  0.54403821  0.32167218  1
  N  N53  1  0.44065533  0.42961232  0.12407653  1
  N  N54  1  0.22495722  0.54170970  0.86879137  1
  N  N55  1  0.11603974  0.42949735  0.62076291  1
  N  N56  1  0.88097352  0.53320094  0.39980539  1
  N  N57  1  0.77724700  0.43193757  0.06812597  1
  N  N58  1  0.55340842  0.54168718  0.81386344  1
  N  N59  1  0.44151096  0.42169415  0.62343193  1
  N  N60  1  0.22015104  0.87227853  0.33783447  1
  N  N61  1  0.09734407  0.74323764  0.13068832  1
  N  N62  1  0.91189567  0.83794376  0.86954508  1
  N  N63  1  0.77606984  0.76693128  0.62236099  1
  N  N64  1  0.52835658  0.88842359  0.38558335  1
  N  N65  1  0.47748326  0.74141992  0.05470834  1
  N  N66  1  0.23062995  0.87004171  0.82456294  1
  N  N67  1  0.11100969  0.75773658  0.62585769  1
  N  N68  1  0.91156119  0.85301786  0.38145097  1
  N  N69  1  0.78002365  0.75774129  0.08558817  1
  N  N70  1  0.55868617  0.88073314  0.85762468  1
  N  N71  1  0.44175341  0.75598970  0.57732367  1
