# generated using pymatgen
data_Gd5Al31N36
_symmetry_space_group_name_H-M   'P 1'
_cell_length_a   9.65119210
_cell_length_b   9.65026960
_cell_length_c   10.67654997
_cell_angle_alpha   90.90866040
_cell_angle_beta   90.25449295
_cell_angle_gamma   60.08020901
_symmetry_Int_Tables_number   1
_chemical_formula_structural   Gd5Al31N36
_chemical_formula_sum   'Gd5 Al31 N36'
_cell_volume   861.73617835
_cell_formula_units_Z   1
loop_
 _symmetry_equiv_pos_site_id
 _symmetry_equiv_pos_as_xyz
  1  'x, y, z'
loop_
 _atom_site_type_symbol
 _atom_site_label
 _atom_site_symmetry_multiplicity
 _atom_site_fract_x
 _atom_site_fract_y
 _atom_site_fract_z
 _atom_site_occupancy
  Al  Al0  1  0.11440459  0.08410938  0.41230045  1
  Al  Al1  1  0.22681943  0.21341532  0.05887420  1
  Al  Al2  1  0.89302115  0.20916218  0.65177861  1
  Al  Al3  1  0.43258661  0.08497917  0.32426402  1
  Al  Al4  1  0.54942870  0.20912937  0.14723572  1
  Al  Al5  1  0.11153381  0.09807427  0.88790299  1
  Al  Al6  1  0.22909379  0.19706723  0.58343579  1
  Al  Al7  1  0.89368178  0.21755962  0.14383246  1
  Al  Al8  1  0.43527764  0.09113468  0.81818120  1
  Al  Al9  1  0.54487364  0.21334272  0.65001013  1
  Al  Al10  1  0.22842051  0.54250948  0.13822534  1
  Al  Al11  1  0.77496415  0.43293606  0.88888574  1
  Al  Al12  1  0.88713305  0.53789988  0.58668622  1
  Al  Al13  1  0.43399750  0.43881276  0.38973449  1
  Al  Al14  1  0.56610480  0.53328346  0.13899094  1
  Al  Al15  1  0.10918155  0.42227206  0.82040668  1
  Al  Al16  1  0.22820320  0.53532923  0.64833199  1
  Al  Al17  1  0.77246616  0.43133668  0.40120370  1
  Al  Al18  1  0.89850289  0.54062719  0.05520385  1
  Al  Al19  1  0.43260407  0.43464515  0.89505945  1
  Al  Al20  1  0.55477518  0.53181652  0.64605098  1
  Al  Al21  1  0.12606607  0.75626311  0.41349390  1
  Al  Al22  1  0.77744953  0.75866546  0.82192118  1
  Al  Al23  1  0.89091051  0.86770440  0.59282448  1
  Al  Al24  1  0.44128801  0.75385713  0.41065990  1
  Al  Al25  1  0.56317701  0.87180896  0.05694323  1
  Al  Al26  1  0.11889164  0.75082598  0.88818982  1
  Al  Al27  1  0.22516829  0.86736921  0.65122236  1
  Al  Al28  1  0.88918488  0.86382606  0.06279001  1
  Al  Al29  1  0.44747032  0.75241700  0.88746336  1
  Al  Al30  1  0.55636180  0.87242669  0.58127272  1
  Gd  Gd31  1  0.76793128  0.11434215  0.88196528  1
  Gd  Gd32  1  0.76526343  0.12476097  0.39778669  1
  Gd  Gd33  1  0.11170517  0.41035744  0.32873439  1
  Gd  Gd34  1  0.22628562  0.87642080  0.14988291  1
  Gd  Gd35  1  0.77418957  0.76754587  0.31835256  1
  N  N36  1  0.24193064  0.17520120  0.40759532  1
  N  N37  1  0.09555897  0.11808682  0.06689892  1
  N  N38  1  0.90803203  0.22818663  0.82334247  1
  N  N39  1  0.77292762  0.09741473  0.62304452  1
  N  N40  1  0.51421893  0.22848344  0.32397656  1
  N  N41  1  0.43795764  0.08237908  0.13376056  1
  N  N42  1  0.22765141  0.20836099  0.87920931  1
  N  N43  1  0.10619225  0.08574476  0.59324151  1
  N  N44  1  0.91745285  0.22600495  0.32431283  1
  N  N45  1  0.77883364  0.09291233  0.11079111  1
  N  N46  1  0.51727907  0.23097505  0.82644054  1
  N  N47  1  0.44201046  0.08550667  0.63985669  1
  N  N48  1  0.23074584  0.56415127  0.32200990  1
  N  N49  1  0.11367173  0.42871973  0.11384272  1
  N  N50  1  0.89104178  0.54204468  0.87498671  1
  N  N51  1  0.76958921  0.41778464  0.58451017  1
  N  N52  1  0.56008942  0.53633174  0.33090466  1
  N  N53  1  0.44833648  0.42490892  0.07861998  1
  N  N54  1  0.22440185  0.53991881  0.82830685  1
  N  N55  1  0.10978421  0.41911457  0.63603783  1
  N  N56  1  0.87640731  0.54372025  0.41198928  1
  N  N57  1  0.77834522  0.42595751  0.07465346  1
  N  N58  1  0.55613327  0.53223756  0.82886461  1
  N  N59  1  0.44227771  0.42409927  0.57578825  1
  N  N60  1  0.22566576  0.86976857  0.36305678  1
  N  N61  1  0.11252856  0.74417536  0.06877634  1
  N  N62  1  0.89543265  0.85320811  0.87838401  1
  N  N63  1  0.77613231  0.75930544  0.64134895  1
  N  N64  1  0.53568891  0.88396556  0.40068331  1
  N  N65  1  0.47164382  0.73868236  0.06783932  1
  N  N66  1  0.22392853  0.87191371  0.83558117  1
  N  N67  1  0.12298769  0.74955264  0.59734513  1
  N  N68  1  0.90581000  0.86956152  0.41157114  1
  N  N69  1  0.77953403  0.75824744  0.10560668  1
  N  N70  1  0.55604898  0.87720730  0.87640216  1
  N  N71  1  0.44648839  0.74949285  0.59347664  1
