# generated using pymatgen
data_Gd5Al31N36
_symmetry_space_group_name_H-M   'P 1'
_cell_length_a   9.71215848
_cell_length_b   9.71186172
_cell_length_c   10.53497404
_cell_angle_alpha   91.09879782
_cell_angle_beta   90.68908193
_cell_angle_gamma   59.94057659
_symmetry_Int_Tables_number   1
_chemical_formula_structural   Gd5Al31N36
_chemical_formula_sum   'Gd5 Al31 N36'
_cell_volume   859.88509720
_cell_formula_units_Z   1
loop_
 _symmetry_equiv_pos_site_id
 _symmetry_equiv_pos_as_xyz
  1  'x, y, z'
loop_
 _atom_site_type_symbol
 _atom_site_label
 _atom_site_symmetry_multiplicity
 _atom_site_fract_x
 _atom_site_fract_y
 _atom_site_fract_z
 _atom_site_occupancy
  Al  Al0  1  0.11502806  0.08545137  0.40708275  1
  Al  Al1  1  0.22582345  0.21649957  0.05083018  1
  Al  Al2  1  0.89130438  0.21150262  0.64136874  1
  Al  Al3  1  0.43219141  0.08734795  0.31722852  1
  Al  Al4  1  0.54479177  0.21090779  0.11004594  1
  Al  Al5  1  0.10976881  0.09920235  0.87938949  1
  Al  Al6  1  0.22794516  0.19964313  0.58100534  1
  Al  Al7  1  0.89661157  0.22330188  0.13333231  1
  Al  Al8  1  0.43792780  0.09408616  0.81971463  1
  Al  Al9  1  0.54895469  0.20820890  0.60537081  1
  Al  Al10  1  0.22735019  0.54668451  0.13650327  1
  Al  Al11  1  0.77423445  0.43138688  0.88310769  1
  Al  Al12  1  0.88523318  0.53886565  0.58197395  1
  Al  Al13  1  0.43822580  0.43726077  0.38086879  1
  Al  Al14  1  0.56593082  0.53788425  0.13681119  1
  Al  Al15  1  0.10911486  0.42274599  0.81460892  1
  Al  Al16  1  0.22719535  0.53707335  0.64255362  1
  Al  Al17  1  0.77182923  0.42699892  0.39783726  1
  Al  Al18  1  0.89886135  0.54281302  0.04897802  1
  Al  Al19  1  0.43351448  0.43424874  0.89741499  1
  Al  Al20  1  0.55358707  0.53306951  0.64251972  1
  Al  Al21  1  0.12710295  0.75439386  0.40734772  1
  Al  Al22  1  0.77710210  0.75598688  0.81559951  1
  Al  Al23  1  0.88943517  0.86704472  0.58113562  1
  Al  Al24  1  0.43846376  0.75603358  0.40675573  1
  Al  Al25  1  0.56316132  0.87324766  0.04995025  1
  Al  Al26  1  0.12093821  0.74702208  0.88292188  1
  Al  Al27  1  0.22325840  0.86860744  0.64704988  1
  Al  Al28  1  0.89009589  0.86406340  0.05647652  1
  Al  Al29  1  0.44746087  0.75140549  0.88166255  1
  Al  Al30  1  0.55376229  0.87515132  0.57916136  1
  Gd  Gd31  1  0.77271984  0.10274486  0.85708702  1
  Gd  Gd32  1  0.77804980  0.10288405  0.34469051  1
  Gd  Gd33  1  0.11331211  0.41196993  0.32680439  1
  Gd  Gd34  1  0.22678127  0.87951005  0.14142455  1
  Gd  Gd35  1  0.76805948  0.76020490  0.31420863  1
  N  N36  1  0.24248229  0.17493593  0.40263774  1
  N  N37  1  0.09673035  0.12198604  0.06039953  1
  N  N38  1  0.90522494  0.22826800  0.81710351  1
  N  N39  1  0.77190846  0.09778317  0.61224869  1
  N  N40  1  0.51510820  0.22666664  0.32327052  1
  N  N41  1  0.43654875  0.08413570  0.12625319  1
  N  N42  1  0.22465499  0.20761955  0.86777545  1
  N  N43  1  0.10708402  0.08764407  0.59016635  1
  N  N44  1  0.91889946  0.22647707  0.31838843  1
  N  N45  1  0.78320943  0.09319171  0.10684414  1
  N  N46  1  0.51876537  0.21776348  0.88241974  1
  N  N47  1  0.44473463  0.09353465  0.63758571  1
  N  N48  1  0.23303003  0.56257896  0.32000235  1
  N  N49  1  0.11478292  0.43104181  0.10743476  1
  N  N50  1  0.89037240  0.53992052  0.86657396  1
  N  N51  1  0.76731662  0.42162784  0.58225909  1
  N  N52  1  0.55997204  0.53885308  0.32807576  1
  N  N53  1  0.44429849  0.43866132  0.08144190  1
  N  N54  1  0.22822500  0.53545409  0.82378512  1
  N  N55  1  0.10902996  0.42229177  0.62800456  1
  N  N56  1  0.87662903  0.53717019  0.40543842  1
  N  N57  1  0.77764811  0.43137134  0.07058283  1
  N  N58  1  0.55465952  0.53010968  0.82582828  1
  N  N59  1  0.44029606  0.42792295  0.57151470  1
  N  N60  1  0.22244342  0.87126504  0.35766709  1
  N  N61  1  0.11172550  0.74682025  0.06573026  1
  N  N62  1  0.89934422  0.84468635  0.87133537  1
  N  N63  1  0.77458460  0.76105707  0.63301279  1
  N  N64  1  0.53036819  0.88683934  0.39696839  1
  N  N65  1  0.47312437  0.74183833  0.06453562  1
  N  N66  1  0.22239110  0.87115707  0.83288341  1
  N  N67  1  0.12112416  0.75203860  0.59320122  1
  N  N68  1  0.90854386  0.85644475  0.40051131  1
  N  N69  1  0.77945587  0.76073004  0.09888602  1
  N  N70  1  0.55534137  0.87438625  0.86691269  1
  N  N71  1  0.44434037  0.75237951  0.59192663  1
