# generated using pymatgen
data_Gd5Al31N36
_symmetry_space_group_name_H-M   'P 1'
_cell_length_a   9.68317265
_cell_length_b   9.65476189
_cell_length_c   10.59986501
_cell_angle_alpha   90.76227942
_cell_angle_beta   90.76647666
_cell_angle_gamma   60.21948158
_symmetry_Int_Tables_number   1
_chemical_formula_structural   Gd5Al31N36
_chemical_formula_sum   'Gd5 Al31 N36'
_cell_volume   859.99281231
_cell_formula_units_Z   1
loop_
 _symmetry_equiv_pos_site_id
 _symmetry_equiv_pos_as_xyz
  1  'x, y, z'
loop_
 _atom_site_type_symbol
 _atom_site_label
 _atom_site_symmetry_multiplicity
 _atom_site_fract_x
 _atom_site_fract_y
 _atom_site_fract_z
 _atom_site_occupancy
  Al  Al0  1  0.11052442  0.09142496  0.39304538  1
  Al  Al1  1  0.22540291  0.21328044  0.04215919  1
  Al  Al2  1  0.89177959  0.20989201  0.62664437  1
  Al  Al3  1  0.43311607  0.09243628  0.31493141  1
  Al  Al4  1  0.54290240  0.21360752  0.06297968  1
  Al  Al5  1  0.10720320  0.09969423  0.87042868  1
  Al  Al6  1  0.22798213  0.20401248  0.56691814  1
  Al  Al7  1  0.89338996  0.22064590  0.11815987  1
  Al  Al8  1  0.43439274  0.09881215  0.80737450  1
  Al  Al9  1  0.54773735  0.20847979  0.55654633  1
  Al  Al10  1  0.22572851  0.53459117  0.04273445  1
  Al  Al11  1  0.77515381  0.42844491  0.87296505  1
  Al  Al12  1  0.88948069  0.53665624  0.56840508  1
  Al  Al13  1  0.44242214  0.43580181  0.31223573  1
  Al  Al14  1  0.56753220  0.53993951  0.12620259  1
  Al  Al15  1  0.10980489  0.42540275  0.80479485  1
  Al  Al16  1  0.23374514  0.52903339  0.57629166  1
  Al  Al17  1  0.77519105  0.42183347  0.38572180  1
  Al  Al18  1  0.89577964  0.54374147  0.03694222  1
  Al  Al19  1  0.43568451  0.42638076  0.81055690  1
  Al  Al20  1  0.55941182  0.53540062  0.63534691  1
  Al  Al21  1  0.12720237  0.76223332  0.41012767  1
  Al  Al22  1  0.77485503  0.75429553  0.80389350  1
  Al  Al23  1  0.88554811  0.86835156  0.57261475  1
  Al  Al24  1  0.43838001  0.75561275  0.39750671  1
  Al  Al25  1  0.56244690  0.87679317  0.04320152  1
  Al  Al26  1  0.11508675  0.75518975  0.83492638  1
  Al  Al27  1  0.22593697  0.87489586  0.63753313  1
  Al  Al28  1  0.89068495  0.86462807  0.03961408  1
  Al  Al29  1  0.44779804  0.75422644  0.87472924  1
  Al  Al30  1  0.55216260  0.87726623  0.56911891  1
  Gd  Gd31  1  0.76179385  0.10143502  0.82312723  1
  Gd  Gd32  1  0.77903788  0.08746711  0.31594161  1
  Gd  Gd33  1  0.12354652  0.42740702  0.30786245  1
  Gd  Gd34  1  0.22447328  0.87469558  0.13274457  1
  Gd  Gd35  1  0.76716232  0.75433448  0.30445963  1
  N  N36  1  0.23396936  0.18745253  0.38623514  1
  N  N37  1  0.09563259  0.11923413  0.05012930  1
  N  N38  1  0.90212706  0.22399292  0.80507953  1
  N  N39  1  0.77277922  0.09605630  0.59781654  1
  N  N40  1  0.52187424  0.22317763  0.37462874  1
  N  N41  1  0.44087358  0.09113779  0.12371958  1
  N  N42  1  0.22358196  0.20787512  0.85889151  1
  N  N43  1  0.10760299  0.09161899  0.57596499  1
  N  N44  1  0.91065174  0.22024784  0.30581416  1
  N  N45  1  0.77735552  0.09532239  0.08868671  1
  N  N46  1  0.51125332  0.22697795  0.88651246  1
  N  N47  1  0.44547047  0.09526119  0.62668930  1
  N  N48  1  0.25213626  0.54662034  0.39828869  1
  N  N49  1  0.11263633  0.42924879  0.09014443  1
  N  N50  1  0.88997696  0.53900153  0.85568541  1
  N  N51  1  0.76887808  0.42186409  0.56913976  1
  N  N52  1  0.56495020  0.54619431  0.31481722  1
  N  N53  1  0.43773947  0.43138886  0.12582374  1
  N  N54  1  0.22388146  0.53471735  0.85837870  1
  N  N55  1  0.11214037  0.42547372  0.62128278  1
  N  N56  1  0.88952530  0.52596058  0.39137717  1
  N  N57  1  0.77597415  0.43025264  0.05824301  1
  N  N58  1  0.55898184  0.53745005  0.81716318  1
  N  N59  1  0.44819975  0.41557951  0.63030027  1
  N  N60  1  0.22141967  0.87283520  0.34978919  1
  N  N61  1  0.10419013  0.74980327  0.06883105  1
  N  N62  1  0.89752326  0.84597028  0.85724860  1
  N  N63  1  0.77251529  0.75855235  0.62206133  1
  N  N64  1  0.52979627  0.88891872  0.38840482  1
  N  N65  1  0.47124803  0.74383944  0.05467691  1
  N  N66  1  0.22586143  0.87512765  0.82060900  1
  N  N67  1  0.11408798  0.75859062  0.60909599  1
  N  N68  1  0.91297014  0.84694355  0.39467860  1
  N  N69  1  0.77879969  0.76134585  0.08955143  1
  N  N70  1  0.55534540  0.88010392  0.85991295  1
  N  N71  1  0.44356209  0.75222612  0.58032592  1
