# generated using pymatgen
data_Gd5Al31N36
_symmetry_space_group_name_H-M   'P 1'
_cell_length_a   9.76580730
_cell_length_b   9.69489345
_cell_length_c   10.30942957
_cell_angle_alpha   90.42446665
_cell_angle_beta   90.15441384
_cell_angle_gamma   59.74048819
_symmetry_Int_Tables_number   1
_chemical_formula_structural   Gd5Al31N36
_chemical_formula_sum   'Gd5 Al31 N36'
_cell_volume   843.06797295
_cell_formula_units_Z   1
loop_
 _symmetry_equiv_pos_site_id
 _symmetry_equiv_pos_as_xyz
  1  'x, y, z'
loop_
 _atom_site_type_symbol
 _atom_site_label
 _atom_site_symmetry_multiplicity
 _atom_site_fract_x
 _atom_site_fract_y
 _atom_site_fract_z
 _atom_site_occupancy
  Al  Al0  1  0.11408288  0.09601935  0.40942482  1
  Al  Al1  1  0.22219697  0.20344406  0.13913688  1
  Al  Al2  1  0.89062035  0.20685091  0.65517230  1
  Al  Al3  1  0.42783263  0.09054383  0.39186413  1
  Al  Al4  1  0.54040337  0.21174090  0.15041486  1
  Al  Al5  1  0.11257708  0.09964006  0.89311511  1
  Al  Al6  1  0.22178112  0.20468870  0.65592377  1
  Al  Al7  1  0.89151446  0.21941940  0.15136741  1
  Al  Al8  1  0.43866091  0.09436909  0.89713837  1
  Al  Al9  1  0.54490471  0.20679455  0.64804793  1
  Al  Al10  1  0.22780349  0.54374288  0.13872520  1
  Al  Al11  1  0.77671742  0.42898756  0.89805905  1
  Al  Al12  1  0.89047552  0.52815273  0.59385743  1
  Al  Al13  1  0.44218892  0.43788573  0.39453929  1
  Al  Al14  1  0.56377841  0.53446303  0.14539995  1
  Al  Al15  1  0.12000072  0.42421216  0.89644658  1
  Al  Al16  1  0.22472977  0.53463967  0.65619658  1
  Al  Al17  1  0.77228338  0.42598754  0.40376953  1
  Al  Al18  1  0.88564089  0.55032611  0.08000268  1
  Al  Al19  1  0.44098926  0.42986451  0.89673414  1
  Al  Al20  1  0.55518020  0.53265167  0.65077218  1
  Al  Al21  1  0.12636665  0.76042780  0.40961411  1
  Al  Al22  1  0.78143034  0.74962659  0.83228264  1
  Al  Al23  1  0.89831196  0.86593422  0.65395278  1
  Al  Al24  1  0.44261118  0.75799087  0.40806451  1
  Al  Al25  1  0.55528587  0.87009570  0.14194640  1
  Al  Al26  1  0.11569528  0.75342760  0.89315010  1
  Al  Al27  1  0.22365461  0.87079995  0.64576968  1
  Al  Al28  1  0.89674273  0.86452233  0.15122963  1
  Al  Al29  1  0.44913156  0.75588449  0.89355539  1
  Al  Al30  1  0.54530396  0.87452232  0.65198411  1
  Gd  Gd31  1  0.77420998  0.09533428  0.89989254  1
  Gd  Gd32  1  0.77166192  0.10801711  0.38827244  1
  Gd  Gd33  1  0.13284863  0.42368799  0.38118015  1
  Gd  Gd34  1  0.22452624  0.87347410  0.15833776  1
  Gd  Gd35  1  0.76467923  0.77786678  0.38517299  1
  N  N36  1  0.22649255  0.17477888  0.32234615  1
  N  N37  1  0.09632832  0.12023337  0.07532005  1
  N  N38  1  0.90156298  0.22003054  0.83477625  1
  N  N39  1  0.77655163  0.09117612  0.61774884  1
  N  N40  1  0.50603522  0.22566619  0.33390067  1
  N  N41  1  0.44421307  0.09234957  0.08265700  1
  N  N42  1  0.22463923  0.20332056  0.84108913  1
  N  N43  1  0.10941858  0.09825320  0.59688107  1
  N  N44  1  0.90810620  0.22158619  0.33536199  1
  N  N45  1  0.77286043  0.10096194  0.12660119  1
  N  N46  1  0.52225393  0.21898047  0.83087144  1
  N  N47  1  0.44083273  0.09006165  0.58364858  1
  N  N48  1  0.24494212  0.56805791  0.32068622  1
  N  N49  1  0.11954122  0.42731960  0.09657244  1
  N  N50  1  0.89141675  0.53932134  0.88754884  1
  N  N51  1  0.76994960  0.41897573  0.59364637  1
  N  N52  1  0.56118041  0.53525928  0.33819511  1
  N  N53  1  0.44912731  0.42759915  0.08335965  1
  N  N54  1  0.22706683  0.53579343  0.84097060  1
  N  N55  1  0.11611552  0.42361096  0.61016065  1
  N  N56  1  0.88091534  0.53008436  0.40545218  1
  N  N57  1  0.77614329  0.42885138  0.08726637  1
  N  N58  1  0.55759852  0.53280309  0.83675719  1
  N  N59  1  0.44161701  0.42749236  0.58507534  1
  N  N60  1  0.22467252  0.87569707  0.37979792  1
  N  N61  1  0.09960809  0.75236195  0.07348279  1
  N  N62  1  0.90669967  0.84385232  0.83422722  1
  N  N63  1  0.77591691  0.75591906  0.62984189  1
  N  N64  1  0.51523450  0.88182038  0.32630076  1
  N  N65  1  0.47157094  0.74427331  0.07584837  1
  N  N66  1  0.22365692  0.87114429  0.83927970  1
  N  N67  1  0.11476032  0.75364625  0.59586112  1
  N  N68  1  0.93152677  0.86023925  0.33198701  1
  N  N69  1  0.77696649  0.76411259  0.13196492  1
  N  N70  1  0.55175200  0.87377036  0.83742865  1
  N  N71  1  0.44955902  0.75399536  0.59575271  1
