# generated using pymatgen
data_Gd5Al31N36
_symmetry_space_group_name_H-M   'P 1'
_cell_length_a   9.71424102
_cell_length_b   9.71781193
_cell_length_c   10.37758728
_cell_angle_alpha   90.04344683
_cell_angle_beta   90.55199170
_cell_angle_gamma   59.85453627
_symmetry_Int_Tables_number   1
_chemical_formula_structural   Gd5Al31N36
_chemical_formula_sum   'Gd5 Al31 N36'
_cell_volume   847.11222646
_cell_formula_units_Z   1
loop_
 _symmetry_equiv_pos_site_id
 _symmetry_equiv_pos_as_xyz
  1  'x, y, z'
loop_
 _atom_site_type_symbol
 _atom_site_label
 _atom_site_symmetry_multiplicity
 _atom_site_fract_x
 _atom_site_fract_y
 _atom_site_fract_z
 _atom_site_occupancy
  Al  Al0  1  0.11427810  0.09790290  0.31325127  1
  Al  Al1  1  0.22082644  0.21094634  0.05127474  1
  Al  Al2  1  0.89401464  0.20742887  0.55639054  1
  Al  Al3  1  0.43232530  0.09197889  0.31415973  1
  Al  Al4  1  0.54509197  0.21049095  0.05800657  1
  Al  Al5  1  0.11261273  0.10535458  0.81045184  1
  Al  Al6  1  0.22384325  0.20104638  0.56533217  1
  Al  Al7  1  0.89067809  0.22020243  0.05901894  1
  Al  Al8  1  0.43779451  0.09915578  0.80684123  1
  Al  Al9  1  0.54305378  0.21044710  0.55497155  1
  Al  Al10  1  0.22004850  0.53555553  0.05191380  1
  Al  Al11  1  0.78358498  0.42859462  0.80723290  1
  Al  Al12  1  0.88872183  0.53524380  0.56951836  1
  Al  Al13  1  0.44168370  0.43800447  0.31435786  1
  Al  Al14  1  0.56464363  0.52941996  0.06833788  1
  Al  Al15  1  0.11369288  0.42715540  0.81019141  1
  Al  Al16  1  0.22647404  0.54214732  0.56571952  1
  Al  Al17  1  0.77656249  0.42838453  0.31580501  1
  Al  Al18  1  0.88812915  0.53860806  0.04292670  1
  Al  Al19  1  0.43864539  0.42912562  0.80992894  1
  Al  Al20  1  0.55941234  0.52999674  0.58128191  1
  Al  Al21  1  0.11865706  0.75623362  0.31445132  1
  Al  Al22  1  0.78047760  0.75667302  0.80529134  1
  Al  Al23  1  0.89573482  0.86627018  0.56137041  1
  Al  Al24  1  0.42839687  0.76318316  0.39054521  1
  Al  Al25  1  0.56223464  0.87760668  0.04241826  1
  Al  Al26  1  0.11327049  0.74968720  0.80931315  1
  Al  Al27  1  0.22565212  0.86981786  0.63500954  1
  Al  Al28  1  0.89100417  0.85940869  0.04880992  1
  Al  Al29  1  0.45593292  0.75176835  0.86592738  1
  Al  Al30  1  0.55182485  0.87867501  0.56957262  1
  Gd  Gd31  1  0.77434628  0.10137424  0.81496698  1
  Gd  Gd32  1  0.77503600  0.09761107  0.31362363  1
  Gd  Gd33  1  0.11977333  0.42576588  0.31042389  1
  Gd  Gd34  1  0.21830433  0.87440903  0.08752228  1
  Gd  Gd35  1  0.76597111  0.75883771  0.30703930  1
  N  N36  1  0.23061360  0.18147750  0.38513956  1
  N  N37  1  0.09683596  0.13456166  0.12863286  1
  N  N38  1  0.90791046  0.22243446  0.87782209  1
  N  N39  1  0.77412682  0.09746527  0.58819241  1
  N  N40  1  0.51481215  0.22418789  0.37177985  1
  N  N41  1  0.44367837  0.09132897  0.12067868  1
  N  N42  1  0.22522416  0.20420982  0.86577920  1
  N  N43  1  0.10874031  0.09770560  0.62578653  1
  N  N44  1  0.90442003  0.21699168  0.37541961  1
  N  N45  1  0.78068044  0.09384045  0.08433002  1
  N  N46  1  0.52057644  0.22200728  0.87737483  1
  N  N47  1  0.44310198  0.09732648  0.62415239  1
  N  N48  1  0.24067422  0.55588332  0.38629298  1
  N  N49  1  0.10992664  0.42841568  0.08892375  1
  N  N50  1  0.88915783  0.53869342  0.85762961  1
  N  N51  1  0.78141233  0.42190400  0.62424171  1
  N  N52  1  0.56017634  0.53471202  0.36831807  1
  N  N53  1  0.44193084  0.43079527  0.12211560  1
  N  N54  1  0.22497001  0.53846070  0.86688222  1
  N  N55  1  0.11510735  0.42698704  0.61929719  1
  N  N56  1  0.88013232  0.52411693  0.39051472  1
  N  N57  1  0.77898136  0.43276091  0.12390297  1
  N  N58  1  0.56379062  0.52501180  0.85402667  1
  N  N59  1  0.44533387  0.42320889  0.62510781  1
  N  N60  1  0.22348866  0.87306998  0.32037130  1
  N  N61  1  0.09323359  0.73739709  0.12857757  1
  N  N62  1  0.90547390  0.84389378  0.86714781  1
  N  N63  1  0.77718374  0.76158220  0.61819096  1
  N  N64  1  0.52717984  0.88838156  0.38655799  1
  N  N65  1  0.47464918  0.74640987  0.05388320  1
  N  N66  1  0.22604354  0.87061405  0.83336345  1
  N  N67  1  0.11107841  0.75839930  0.62704728  1
  N  N68  1  0.91697623  0.85097763  0.38355449  1
  N  N69  1  0.77592045  0.75889884  0.08899535  1
  N  N70  1  0.55872366  0.87900889  0.85476981  1
  N  N71  1  0.44007335  0.75792076  0.58448718  1
