# generated using pymatgen
data_Gd5Al31N36
_symmetry_space_group_name_H-M   'P 1'
_cell_length_a   9.67269624
_cell_length_b   9.64893568
_cell_length_c   10.60346744
_cell_angle_alpha   90.92523245
_cell_angle_beta   91.00933401
_cell_angle_gamma   60.32203603
_symmetry_Int_Tables_number   1
_chemical_formula_structural   Gd5Al31N36
_chemical_formula_sum   'Gd5 Al31 N36'
_cell_volume   859.65148940
_cell_formula_units_Z   1
loop_
 _symmetry_equiv_pos_site_id
 _symmetry_equiv_pos_as_xyz
  1  'x, y, z'
loop_
 _atom_site_type_symbol
 _atom_site_label
 _atom_site_symmetry_multiplicity
 _atom_site_fract_x
 _atom_site_fract_y
 _atom_site_fract_z
 _atom_site_occupancy
  Al  Al0  1  0.12082548  0.07851117  0.40350724  1
  Al  Al1  1  0.22757921  0.21509516  0.03722618  1
  Al  Al2  1  0.88906696  0.20267875  0.57109763  1
  Al  Al3  1  0.43314978  0.09253376  0.31297736  1
  Al  Al4  1  0.54477103  0.21411274  0.05501265  1
  Al  Al5  1  0.11573720  0.09529695  0.86371697  1
  Al  Al6  1  0.22948959  0.20698917  0.57073524  1
  Al  Al7  1  0.88035307  0.22335585  0.03653058  1
  Al  Al8  1  0.43752330  0.09845577  0.80339741  1
  Al  Al9  1  0.54676506  0.20991682  0.55139060  1
  Al  Al10  1  0.22269660  0.53905306  0.05192186  1
  Al  Al11  1  0.78223724  0.43000995  0.80031829  1
  Al  Al12  1  0.89189839  0.54322194  0.57543214  1
  Al  Al13  1  0.43603199  0.43276270  0.30984435  1
  Al  Al14  1  0.57220520  0.53666652  0.13102127  1
  Al  Al15  1  0.11537287  0.42944771  0.80655683  1
  Al  Al16  1  0.22517830  0.54179388  0.56148943  1
  Al  Al17  1  0.76666236  0.43206072  0.38519206  1
  Al  Al18  1  0.88875590  0.53594513  0.03360505  1
  Al  Al19  1  0.43465367  0.42930675  0.80812284  1
  Al  Al20  1  0.54664486  0.54418583  0.63166370  1
  Al  Al21  1  0.11374142  0.75172136  0.31657662  1
  Al  Al22  1  0.78097788  0.75644109  0.80631237  1
  Al  Al23  1  0.89542957  0.86674083  0.55778729  1
  Al  Al24  1  0.43113931  0.75871256  0.39574145  1
  Al  Al25  1  0.56623604  0.87635826  0.04002369  1
  Al  Al26  1  0.11609559  0.75028921  0.80703565  1
  Al  Al27  1  0.22775858  0.87205743  0.63892368  1
  Al  Al28  1  0.89695589  0.85905391  0.04590203  1
  Al  Al29  1  0.45381059  0.75009169  0.87485190  1
  Al  Al30  1  0.55487205  0.87878047  0.56625046  1
  Gd  Gd31  1  0.76608594  0.09048385  0.81009661  1
  Gd  Gd32  1  0.78031739  0.09838582  0.30195514  1
  Gd  Gd33  1  0.10764385  0.41848263  0.30229664  1
  Gd  Gd34  1  0.23093780  0.88018136  0.12147264  1
  Gd  Gd35  1  0.76262889  0.75498141  0.29902786  1
  N  N36  1  0.23471356  0.18398999  0.38839239  1
  N  N37  1  0.10164882  0.11990280  0.04783245  1
  N  N38  1  0.89404154  0.22023378  0.84934969  1
  N  N39  1  0.77249872  0.09439113  0.59168924  1
  N  N40  1  0.52462310  0.22021511  0.37067241  1
  N  N41  1  0.44269913  0.09134466  0.11978413  1
  N  N42  1  0.22602722  0.20927710  0.85310104  1
  N  N43  1  0.11672160  0.08759236  0.58943232  1
  N  N44  1  0.90040611  0.21634875  0.38935691  1
  N  N45  1  0.77918238  0.09494468  0.07704670  1
  N  N46  1  0.51574642  0.22675267  0.87858507  1
  N  N47  1  0.44860749  0.09609654  0.62380449  1
  N  N48  1  0.23552366  0.54809076  0.38262588  1
  N  N49  1  0.11151149  0.42904213  0.08444103  1
  N  N50  1  0.89132141  0.53731160  0.84963987  1
  N  N51  1  0.77435518  0.42916039  0.60837511  1
  N  N52  1  0.55591312  0.54539503  0.32462046  1
  N  N53  1  0.44100482  0.42938411  0.12456322  1
  N  N54  1  0.22580023  0.54181494  0.86858525  1
  N  N55  1  0.11533601  0.42994959  0.62158174  1
  N  N56  1  0.87917097  0.53371081  0.40084767  1
  N  N57  1  0.78588274  0.42928843  0.09650321  1
  N  N58  1  0.55602807  0.53979497  0.81254757  1
  N  N59  1  0.44078602  0.42188433  0.62230302  1
  N  N60  1  0.21912661  0.87243566  0.33750769  1
  N  N61  1  0.09714952  0.74348492  0.13065515  1
  N  N62  1  0.91211038  0.83796851  0.86914729  1
  N  N63  1  0.77602012  0.76674507  0.62269711  1
  N  N64  1  0.52796553  0.88839591  0.38539526  1
  N  N65  1  0.47942519  0.73918377  0.05441175  1
  N  N66  1  0.23081328  0.87005086  0.82483994  1
  N  N67  1  0.11086370  0.75803204  0.62556970  1
  N  N68  1  0.91012518  0.85361281  0.38143872  1
  N  N69  1  0.78027573  0.75793086  0.08495044  1
  N  N70  1  0.55857893  0.88036629  0.85746890  1
  N  N71  1  0.44089132  0.75721302  0.57727503  1
