# generated using pymatgen
data_Al17BN18
_symmetry_space_group_name_H-M   'P 1'
_cell_length_a   9.32966347
_cell_length_b   9.33806438
_cell_length_c   10.08277610
_cell_angle_alpha   89.68917483
_cell_angle_beta   89.60258769
_cell_angle_gamma   60.00278401
_symmetry_Int_Tables_number   1
_chemical_formula_structural   Al17BN18
_chemical_formula_sum   'Al34 B2 N36'
_cell_volume   760.73644726
_cell_formula_units_Z   2
loop_
 _symmetry_equiv_pos_site_id
 _symmetry_equiv_pos_as_xyz
  1  'x, y, z'
loop_
 _atom_site_type_symbol
 _atom_site_label
 _atom_site_symmetry_multiplicity
 _atom_site_fract_x
 _atom_site_fract_y
 _atom_site_fract_z
 _atom_site_occupancy
  Al  Al0  1  0.10331663  0.08983201  0.32275325  1
  Al  Al1  1  0.23221460  0.19659446  0.14099579  1
  Al  Al2  1  0.77467367  0.09342239  0.82632566  1
  Al  Al3  1  0.88631642  0.20356764  0.56955989  1
  Al  Al4  1  0.44892183  0.09000753  0.38307062  1
  Al  Al5  1  0.56185371  0.20149283  0.08540914  1
  Al  Al6  1  0.10544386  0.09103957  0.82324734  1
  Al  Al7  1  0.22812051  0.20529180  0.63921293  1
  Al  Al8  1  0.88744805  0.20372660  0.07625489  1
  Al  Al9  1  0.44431239  0.08423276  0.90020789  1
  Al  Al10  1  0.56366586  0.20630326  0.56752720  1
  Al  Al11  1  0.11245700  0.43074621  0.33042131  1
  Al  Al12  1  0.22457543  0.54081531  0.07334923  1
  Al  Al13  1  0.77781615  0.42695499  0.82217485  1
  Al  Al14  1  0.88972755  0.53458372  0.56785387  1
  Al  Al15  1  0.45132089  0.42491677  0.32195270  1
  Al  Al16  1  0.55658272  0.54346288  0.07057966  1
  Al  Al17  1  0.10857961  0.43088074  0.84313129  1
  Al  Al18  1  0.22174724  0.54032997  0.57355716  1
  Al  Al19  1  0.77543337  0.42204500  0.32083704  1
  Al  Al20  1  0.88440538  0.53675318  0.08249876  1
  Al  Al21  1  0.44610262  0.42333409  0.82358552  1
  Al  Al22  1  0.55475082  0.54032457  0.57137045  1
  Al  Al23  1  0.11015276  0.76677775  0.32122797  1
  Al  Al24  1  0.22772732  0.87333917  0.07031870  1
  Al  Al25  1  0.76447696  0.76833217  0.89994681  1
  Al  Al26  1  0.88896446  0.88119240  0.56691434  1
  Al  Al27  1  0.44439449  0.76018128  0.31644055  1
  Al  Al28  1  0.10642957  0.76264860  0.82304512  1
  Al  Al29  1  0.22310971  0.87299143  0.57090664  1
  Al  Al30  1  0.77274230  0.76998551  0.37569601  1
  Al  Al31  1  0.88546853  0.87825355  0.08765396  1
  Al  Al32  1  0.44111376  0.75727511  0.82064827  1
  Al  Al33  1  0.56027513  0.87599379  0.63891886  1
  B  B34  1  0.77875988  0.09646137  0.31924862  1
  B  B35  1  0.55901364  0.87420450  0.15037855  1
  N  N36  1  0.22689955  0.20155760  0.33411338  1
  N  N37  1  0.10750512  0.09074518  0.13136236  1
  N  N38  1  0.88568472  0.20517533  0.88612288  1
  N  N39  1  0.77654718  0.09446449  0.63842763  1
  N  N40  1  0.58451222  0.19590032  0.37366266  1
  N  N41  1  0.45796261  0.06385240  0.09163350  1
  N  N42  1  0.22842952  0.20077944  0.83709744  1
  N  N43  1  0.10624659  0.09344488  0.63004211  1
  N  N44  1  0.87593978  0.19425755  0.37729768  1
  N  N45  1  0.77833046  0.09611107  0.15667368  1
  N  N46  1  0.55710881  0.20621458  0.89250622  1
  N  N47  1  0.44390990  0.09220300  0.57325127  1
  N  N48  1  0.22480634  0.54132087  0.38267985  1
  N  N49  1  0.11210626  0.42958763  0.12323498  1
  N  N50  1  0.88546738  0.53708788  0.88814426  1
  N  N51  1  0.77760614  0.42635545  0.63108634  1
  N  N52  1  0.55535628  0.54172866  0.38238014  1
  N  N53  1  0.44546333  0.42908076  0.13397492  1
  N  N54  1  0.22377757  0.54100822  0.88350019  1
  N  N55  1  0.10755112  0.43300065  0.62422550  1
  N  N56  1  0.88915339  0.53321584  0.37337852  1
  N  N57  1  0.77516627  0.42471256  0.13390353  1
  N  N58  1  0.55530949  0.53781950  0.88156209  1
  N  N59  1  0.44555445  0.42512001  0.63234579  1
  N  N60  1  0.22584146  0.87114772  0.38237249  1
  N  N61  1  0.11386655  0.76151968  0.13362381  1
  N  N62  1  0.88927183  0.87588112  0.89291142  1
  N  N63  1  0.77237813  0.76622079  0.57078975  1
  N  N64  1  0.55917050  0.87802356  0.31021173  1
  N  N65  1  0.45377995  0.76938093  0.12625898  1
  N  N66  1  0.22154341  0.87090260  0.88200016  1
  N  N67  1  0.10790458  0.76376089  0.63193164  1
  N  N68  1  0.88095897  0.90156405  0.37169041  1
  N  N69  1  0.74806785  0.77541072  0.09617790  1
  N  N70  1  0.55750956  0.87470796  0.82676153  1
  N  N71  1  0.44188438  0.75916831  0.62993072  1
