# generated using pymatgen
data_Al17BN18
_symmetry_space_group_name_H-M   'P 1'
_cell_length_a   9.29122194
_cell_length_b   9.29137024
_cell_length_c   10.18024795
_cell_angle_alpha   89.61008695
_cell_angle_beta   89.60797505
_cell_angle_gamma   60.08654653
_symmetry_Int_Tables_number   1
_chemical_formula_structural   Al17BN18
_chemical_formula_sum   'Al34 B2 N36'
_cell_volume   761.73898367
_cell_formula_units_Z   2
loop_
 _symmetry_equiv_pos_site_id
 _symmetry_equiv_pos_as_xyz
  1  'x, y, z'
loop_
 _atom_site_type_symbol
 _atom_site_label
 _atom_site_symmetry_multiplicity
 _atom_site_fract_x
 _atom_site_fract_y
 _atom_site_fract_z
 _atom_site_occupancy
  Al  Al0  1  0.10648223  0.09246656  0.38899119  1
  Al  Al1  1  0.22451359  0.20088707  0.13833666  1
  Al  Al2  1  0.77360602  0.09031053  0.82061584  1
  Al  Al3  1  0.89217978  0.20891967  0.63892518  1
  Al  Al4  1  0.44893653  0.08813393  0.37463832  1
  Al  Al5  1  0.55976224  0.20118111  0.07838853  1
  Al  Al6  1  0.11021267  0.09357720  0.88907922  1
  Al  Al7  1  0.22659820  0.20455633  0.63622622  1
  Al  Al8  1  0.88943165  0.20607053  0.14329228  1
  Al  Al9  1  0.44425208  0.08578066  0.89313961  1
  Al  Al10  1  0.56552046  0.20579049  0.55988596  1
  Al  Al11  1  0.10785796  0.42442683  0.38804118  1
  Al  Al12  1  0.22499193  0.54147571  0.06701103  1
  Al  Al13  1  0.77674480  0.42699897  0.88903696  1
  Al  Al14  1  0.88778818  0.54340106  0.63622865  1
  Al  Al15  1  0.44679893  0.42149125  0.31697819  1
  Al  Al16  1  0.55973231  0.54636669  0.13809226  1
  Al  Al17  1  0.10749791  0.42428115  0.88605009  1
  Al  Al18  1  0.22554778  0.54230347  0.56861587  1
  Al  Al19  1  0.77584699  0.42310350  0.38899044  1
  Al  Al20  1  0.88434459  0.54101879  0.13834657  1
  Al  Al21  1  0.44299092  0.42171811  0.81902161  1
  Al  Al22  1  0.55850637  0.54373646  0.63763887  1
  Al  Al23  1  0.10501739  0.76328599  0.31701736  1
  Al  Al24  1  0.22973333  0.87633971  0.13808906  1
  Al  Al25  1  0.76904937  0.76103441  0.89328276  1
  Al  Al26  1  0.88909123  0.88220565  0.55980854  1
  Al  Al27  1  0.44565095  0.76230298  0.38289457  1
  Al  Al28  1  0.10495908  0.75983583  0.81929974  1
  Al  Al29  1  0.22693076  0.87524912  0.63769950  1
  Al  Al30  1  0.77150423  0.76552418  0.37454759  1
  Al  Al31  1  0.88454411  0.87634930  0.07867457  1
  Al  Al32  1  0.44625531  0.76296352  0.89042362  1
  Al  Al33  1  0.55809519  0.87483435  0.63332370  1
  B  B34  1  0.77628318  0.09295337  0.31098653  1
  B  B35  1  0.55500342  0.87162554  0.13942261  1
  N  N36  1  0.22122966  0.20573709  0.32478276  1
  N  N37  1  0.10799870  0.09478605  0.07637504  1
  N  N38  1  0.89163498  0.20840837  0.82844268  1
  N  N39  1  0.77467908  0.09133208  0.63398918  1
  N  N40  1  0.58546042  0.19461909  0.36929663  1
  N  N41  1  0.45374890  0.06518673  0.08546049  1
  N  N42  1  0.22616513  0.20346734  0.82590407  1
  N  N43  1  0.11145760  0.09470170  0.57610118  1
  N  N44  1  0.88054540  0.19716745  0.33203735  1
  N  N45  1  0.77227779  0.08899788  0.15119479  1
  N  N46  1  0.55873105  0.20658633  0.88916804  1
  N  N47  1  0.44355391  0.09187946  0.56590660  1
  N  N48  1  0.22577901  0.54227104  0.37989777  1
  N  N49  1  0.10707467  0.42362136  0.07606146  1
  N  N50  1  0.88666448  0.54298389  0.82593293  1
  N  N51  1  0.77797982  0.42819575  0.57609660  1
  N  N52  1  0.55907180  0.54234603  0.32667457  1
  N  N53  1  0.44173210  0.42529180  0.12940585  1
  N  N54  1  0.22478877  0.54151456  0.87831801  1
  N  N55  1  0.10803320  0.42479144  0.57799350  1
  N  N56  1  0.88917314  0.53777362  0.32477888  1
  N  N57  1  0.77815627  0.42462108  0.07634041  1
  N  N58  1  0.55713543  0.54333438  0.82840156  1
  N  N59  1  0.44450329  0.42173421  0.62866430  1
  N  N60  1  0.22571911  0.87569644  0.32667204  1
  N  N61  1  0.10878358  0.75822183  0.12942570  1
  N  N62  1  0.88980609  0.87557379  0.88943152  1
  N  N63  1  0.77510641  0.76030107  0.56581819  1
  N  N64  1  0.55510853  0.87178589  0.30174801  1
  N  N65  1  0.45607710  0.77269910  0.08115654  1
  N  N66  1  0.22658430  0.87395469  0.82847900  1
  N  N67  1  0.10496882  0.76124174  0.62874316  1
  N  N68  1  0.87804476  0.90200215  0.36917786  1
  N  N69  1  0.74859012  0.77029796  0.08560210  1
  N  N70  1  0.55668442  0.87336245  0.82035070  1
  N  N71  1  0.44581768  0.76261545  0.57175905  1
