# generated using pymatgen
data_Al17BN18
_symmetry_space_group_name_H-M   'P 1'
_cell_length_a   9.35591760
_cell_length_b   9.35088398
_cell_length_c   10.11641035
_cell_angle_alpha   89.66992568
_cell_angle_beta   89.66610692
_cell_angle_gamma   59.94517006
_symmetry_Int_Tables_number   1
_chemical_formula_structural   Al17BN18
_chemical_formula_sum   'Al34 B2 N36'
_cell_volume   766.03073602
_cell_formula_units_Z   2
loop_
 _symmetry_equiv_pos_site_id
 _symmetry_equiv_pos_as_xyz
  1  'x, y, z'
loop_
 _atom_site_type_symbol
 _atom_site_label
 _atom_site_symmetry_multiplicity
 _atom_site_fract_x
 _atom_site_fract_y
 _atom_site_fract_z
 _atom_site_occupancy
  Al  Al0  1  0.10179116  0.09512480  0.32152772  1
  Al  Al1  1  0.22894123  0.20465987  0.13958137  1
  Al  Al2  1  0.77628765  0.09231294  0.82261463  1
  Al  Al3  1  0.88609066  0.20494698  0.56569141  1
  Al  Al4  1  0.44953962  0.08728603  0.37717946  1
  Al  Al5  1  0.56274779  0.20020846  0.08170631  1
  Al  Al6  1  0.10745615  0.09345309  0.82229160  1
  Al  Al7  1  0.22910850  0.20797455  0.63703105  1
  Al  Al8  1  0.88782269  0.20505211  0.07269105  1
  Al  Al9  1  0.44516258  0.08495517  0.89591487  1
  Al  Al10  1  0.56472634  0.20476739  0.56300383  1
  Al  Al11  1  0.10825533  0.42505500  0.39032996  1
  Al  Al12  1  0.22486325  0.54154850  0.06813746  1
  Al  Al13  1  0.78079333  0.42186464  0.82374463  1
  Al  Al14  1  0.89101389  0.54556401  0.63672420  1
  Al  Al15  1  0.44503934  0.42129198  0.31984055  1
  Al  Al16  1  0.55379182  0.54819280  0.13684251  1
  Al  Al17  1  0.10806104  0.42438037  0.88879528  1
  Al  Al18  1  0.22542741  0.54156024  0.56992552  1
  Al  Al19  1  0.77979103  0.41793233  0.32179750  1
  Al  Al20  1  0.88794071  0.54540527  0.13876664  1
  Al  Al21  1  0.44198477  0.42107976  0.82278805  1
  Al  Al22  1  0.55292021  0.54439636  0.63650495  1
  Al  Al23  1  0.10542519  0.76308035  0.32023385  1
  Al  Al24  1  0.22881976  0.87191495  0.12083359  1
  Al  Al25  1  0.76915718  0.76195233  0.89576260  1
  Al  Al26  1  0.88723170  0.88190497  0.56297415  1
  Al  Al27  1  0.44719846  0.76105133  0.38402302  1
  Al  Al28  1  0.10683410  0.76060038  0.82240747  1
  Al  Al29  1  0.22360746  0.87218177  0.61065614  1
  Al  Al30  1  0.77096742  0.76632567  0.37700216  1
  Al  Al31  1  0.88356035  0.87956833  0.08163857  1
  Al  Al32  1  0.44721339  0.76222135  0.89281482  1
  Al  Al33  1  0.55769916  0.87412738  0.63692507  1
  B  B34  1  0.77781788  0.09454888  0.31593939  1
  B  B35  1  0.55574020  0.87188150  0.14331153  1
  N  N36  1  0.22501978  0.20880523  0.32898904  1
  N  N37  1  0.10575322  0.09779958  0.12804743  1
  N  N38  1  0.88795213  0.20323225  0.88416191  1
  N  N39  1  0.77732779  0.09439596  0.63516463  1
  N  N40  1  0.58456390  0.19341613  0.37020386  1
  N  N41  1  0.45641513  0.06526005  0.08877268  1
  N  N42  1  0.22898010  0.20612712  0.82927863  1
  N  N43  1  0.10524053  0.09865598  0.62557247  1
  N  N44  1  0.87623828  0.19338514  0.37547987  1
  N  N45  1  0.77900588  0.09584412  0.15379047  1
  N  N46  1  0.55959793  0.20455985  0.88987883  1
  N  N47  1  0.44501906  0.09047095  0.56911091  1
  N  N48  1  0.22476536  0.54180198  0.38056941  1
  N  N49  1  0.10838860  0.42484614  0.07832432  1
  N  N50  1  0.88998052  0.54557186  0.82963739  1
  N  N51  1  0.78184713  0.42259200  0.62519039  1
  N  N52  1  0.55268129  0.54294299  0.33245209  1
  N  N53  1  0.44084260  0.42497795  0.12993968  1
  N  N54  1  0.22377088  0.54115880  0.87880613  1
  N  N55  1  0.10892177  0.42581758  0.57977154  1
  N  N56  1  0.89215027  0.54165002  0.32863333  1
  N  N57  1  0.78091629  0.42317336  0.12548796  1
  N  N58  1  0.55172250  0.54376349  0.83426524  1
  N  N59  1  0.44327318  0.42100715  0.62954546  1
  N  N60  1  0.22397794  0.87078837  0.34670061  1
  N  N61  1  0.10869272  0.75802387  0.13124097  1
  N  N62  1  0.88898646  0.87561643  0.88959074  1
  N  N63  1  0.77413905  0.76177543  0.56914960  1
  N  N64  1  0.55480359  0.87112165  0.30493733  1
  N  N65  1  0.45849897  0.77324910  0.08482612  1
  N  N66  1  0.22516350  0.86924601  0.85018056  1
  N  N67  1  0.10479243  0.76084012  0.62921105  1
  N  N68  1  0.87651815  0.90151048  0.37011487  1
  N  N69  1  0.74905334  0.77334262  0.08871142  1
  N  N70  1  0.55642442  0.87225839  0.82387492  1
  N  N71  1  0.44884925  0.76184329  0.57403838  1
