# generated using pymatgen
data_Al17BN18
_symmetry_space_group_name_H-M   'P 1'
_cell_length_a   9.29943292
_cell_length_b   9.29943330
_cell_length_c   9.93897655
_cell_angle_alpha   90.02513871
_cell_angle_beta   90.02510523
_cell_angle_gamma   60.01365380
_symmetry_Int_Tables_number   1
_chemical_formula_structural   Al17BN18
_chemical_formula_sum   'Al34 B2 N36'
_cell_volume   744.46610182
_cell_formula_units_Z   2
loop_
 _symmetry_equiv_pos_site_id
 _symmetry_equiv_pos_as_xyz
  1  'x, y, z'
loop_
 _atom_site_type_symbol
 _atom_site_label
 _atom_site_symmetry_multiplicity
 _atom_site_fract_x
 _atom_site_fract_y
 _atom_site_fract_z
 _atom_site_occupancy
  Al  Al0  1  0.10765659  0.09281937  0.41089462  1
  Al  Al1  1  0.22552013  0.20065341  0.16058203  1
  Al  Al2  1  0.77759227  0.09426012  0.90827519  1
  Al  Al3  1  0.88763034  0.20429700  0.65380852  1
  Al  Al4  1  0.45068650  0.09060251  0.40402293  1
  Al  Al5  1  0.56258955  0.19784186  0.16481586  1
  Al  Al6  1  0.10958177  0.09508408  0.91000085  1
  Al  Al7  1  0.22422794  0.20423798  0.66009559  1
  Al  Al8  1  0.88609301  0.20275958  0.16476076  1
  Al  Al9  1  0.44827469  0.08976421  0.91425387  1
  Al  Al10  1  0.55752209  0.20331480  0.65329110  1
  Al  Al11  1  0.11093960  0.42760571  0.41103862  1
  Al  Al12  1  0.22204812  0.53871626  0.16119866  1
  Al  Al13  1  0.77841743  0.42624832  0.91000105  1
  Al  Al14  1  0.88757189  0.54089388  0.66009565  1
  Al  Al15  1  0.44997292  0.42412660  0.41031870  1
  Al  Al16  1  0.55734437  0.54219680  0.16015442  1
  Al  Al17  1  0.11120582  0.42787198  0.91050898  1
  Al  Al18  1  0.22244949  0.53911691  0.66026542  1
  Al  Al19  1  0.77615093  0.42432500  0.41089451  1
  Al  Al20  1  0.88398726  0.54218614  0.16058202  1
  Al  Al21  1  0.44527609  0.42604376  0.91011008  1
  Al  Al22  1  0.55482753  0.54072732  0.66066278  1
  Al  Al23  1  0.10745832  0.76664048  0.41031864  1
  Al  Al24  1  0.22552961  0.87401146  0.16015456  1
  Al  Al25  1  0.77309760  0.76494107  0.91425383  1
  Al  Al26  1  0.88664783  0.87418950  0.65329118  1
  Al  Al27  1  0.44580750  0.76247626  0.40420275  1
  Al  Al28  1  0.10937591  0.76194427  0.91011008  1
  Al  Al29  1  0.22406115  0.87149378  0.66066253  1
  Al  Al30  1  0.77393579  0.76735269  0.40402297  1
  Al  Al31  1  0.88117329  0.87925736  0.16481577  1
  Al  Al32  1  0.44737794  0.76404510  0.91473965  1
  Al  Al33  1  0.55566261  0.87232834  0.65889283  1
  B  B34  1  0.77778480  0.09445269  0.41406907  1
  B  B35  1  0.55589036  0.87255723  0.16482348  1
  N  N36  1  0.22203131  0.20496271  0.35133358  1
  N  N37  1  0.10803023  0.09602077  0.10201630  1
  N  N38  1  0.88797488  0.20464168  0.84611868  1
  N  N39  1  0.77771373  0.09438116  0.57989179  1
  N  N40  1  0.58119293  0.19300323  0.35809814  1
  N  N41  1  0.45787985  0.07063928  0.10999707  1
  N  N42  1  0.22482144  0.20404972  0.85321931  1
  N  N43  1  0.11203756  0.09378160  0.60149265  1
  N  N44  1  0.87644669  0.19311478  0.35893941  1
  N  N45  1  0.77797538  0.09464318  0.09678408  1
  N  N46  1  0.55602752  0.20362476  0.84745860  1
  N  N47  1  0.44525291  0.09229669  0.59571082  1
  N  N48  1  0.22254165  0.53920921  0.35239548  1
  N  N49  1  0.11072770  0.42739409  0.10184903  1
  N  N50  1  0.88738332  0.54148775  0.85321945  1
  N  N51  1  0.77711488  0.42870427  0.60149257  1
  N  N52  1  0.55573300  0.53907643  0.35004409  1
  N  N53  1  0.44602738  0.42492271  0.10313972  1
  N  N54  1  0.22243315  0.53910111  0.85176647  1
  N  N55  1  0.11092090  0.42758711  0.60242024  1
  N  N56  1  0.88829622  0.53869773  0.35133360  1
  N  N57  1  0.77935384  0.42469696  0.10201646  1
  N  N58  1  0.55439595  0.54102848  0.85354500  1
  N  N59  1  0.44488152  0.42812972  0.60122458  1
  N  N60  1  0.22240790  0.87240117  0.35004420  1
  N  N61  1  0.10825449  0.76269543  0.10313978  1
  N  N62  1  0.88695707  0.87269521  0.84745864  1
  N  N63  1  0.77563078  0.76191900  0.59571091  1
  N  N64  1  0.55546809  0.87213506  0.32926663  1
  N  N65  1  0.45720451  0.77387176  0.10829646  1
  N  N66  1  0.22436154  0.87106288  0.85354475  1
  N  N67  1  0.11146255  0.76154877  0.60122446  1
  N  N68  1  0.87633502  0.89786068  0.35809806  1
  N  N69  1  0.75397225  0.77454638  0.10999707  1
  N  N70  1  0.55581994  0.87248658  0.84794573  1
  N  N71  1  0.44533561  0.76200204  0.59692790  1
