# generated using pymatgen
data_Al17BN18
_symmetry_space_group_name_H-M   'P 1'
_cell_length_a   9.33428744
_cell_length_b   9.32193544
_cell_length_c   10.03741128
_cell_angle_alpha   89.70781039
_cell_angle_beta   89.91874694
_cell_angle_gamma   59.95243647
_symmetry_Int_Tables_number   1
_chemical_formula_structural   Al17BN18
_chemical_formula_sum   'Al34 B2 N36'
_cell_volume   756.00600073
_cell_formula_units_Z   2
loop_
 _symmetry_equiv_pos_site_id
 _symmetry_equiv_pos_as_xyz
  1  'x, y, z'
loop_
 _atom_site_type_symbol
 _atom_site_label
 _atom_site_symmetry_multiplicity
 _atom_site_fract_x
 _atom_site_fract_y
 _atom_site_fract_z
 _atom_site_occupancy
  Al  Al0  1  0.10518531  0.09294394  0.32256169  1
  Al  Al1  1  0.21948353  0.20277872  0.08132587  1
  Al  Al2  1  0.77664793  0.09455815  0.82657899  1
  Al  Al3  1  0.88659802  0.20287340  0.57066616  1
  Al  Al4  1  0.45021494  0.09196506  0.38095298  1
  Al  Al5  1  0.56175773  0.20165516  0.08899091  1
  Al  Al6  1  0.11049658  0.09521355  0.82421585  1
  Al  Al7  1  0.21649396  0.20816834  0.57109690  1
  Al  Al8  1  0.88704628  0.20446176  0.07788904  1
  Al  Al9  1  0.45194109  0.08098879  0.90139998  1
  Al  Al10  1  0.56503763  0.20603053  0.56894077  1
  Al  Al11  1  0.11059450  0.42925750  0.32151802  1
  Al  Al12  1  0.22243241  0.53965508  0.07245015  1
  Al  Al13  1  0.77839383  0.42613403  0.82313154  1
  Al  Al14  1  0.88847035  0.53949642  0.57049863  1
  Al  Al15  1  0.44910258  0.42616322  0.32288783  1
  Al  Al16  1  0.55675776  0.54403833  0.07226305  1
  Al  Al17  1  0.11246114  0.42539931  0.82454094  1
  Al  Al18  1  0.22187089  0.53860677  0.57494506  1
  Al  Al19  1  0.77583319  0.42349635  0.32284931  1
  Al  Al20  1  0.88304216  0.54191720  0.07720650  1
  Al  Al21  1  0.44595103  0.42321916  0.82498720  1
  Al  Al22  1  0.55548742  0.53978408  0.57259646  1
  Al  Al23  1  0.10910420  0.76582985  0.32307214  1
  Al  Al24  1  0.22701540  0.87302590  0.07248556  1
  Al  Al25  1  0.78107752  0.76021617  0.84370065  1
  Al  Al26  1  0.88650405  0.87765820  0.56752430  1
  Al  Al27  1  0.44149488  0.76019793  0.31971940  1
  Al  Al28  1  0.10843617  0.76245537  0.82356991  1
  Al  Al29  1  0.22221175  0.87203549  0.57258392  1
  Al  Al30  1  0.77964597  0.76603474  0.32538680  1
  Al  Al31  1  0.88400949  0.87668765  0.08409671  1
  Al  Al32  1  0.44059014  0.75726317  0.82304203  1
  Al  Al33  1  0.55594706  0.87810236  0.63991581  1
  B  B34  1  0.77911973  0.09682194  0.31974331  1
  B  B35  1  0.55284478  0.87774279  0.15566861  1
  N  N36  1  0.21350308  0.20877560  0.37772309  1
  N  N37  1  0.10891701  0.09260932  0.13460346  1
  N  N38  1  0.88834767  0.20429612  0.88678540  1
  N  N39  1  0.77868771  0.09354090  0.63835363  1
  N  N40  1  0.58442426  0.19689487  0.37283909  1
  N  N41  1  0.45884874  0.06447684  0.09778396  1
  N  N42  1  0.22007457  0.20546345  0.88746162  1
  N  N43  1  0.10933965  0.09500537  0.63254258  1
  N  N44  1  0.87662007  0.19325804  0.37749158  1
  N  N45  1  0.78006817  0.09510135  0.15680829  1
  N  N46  1  0.55971818  0.20544938  0.89377732  1
  N  N47  1  0.44782058  0.09221479  0.57563692  1
  N  N48  1  0.22279386  0.53870304  0.38393695  1
  N  N49  1  0.11044489  0.42942859  0.13274639  1
  N  N50  1  0.88982373  0.53580657  0.88628633  1
  N  N51  1  0.77902037  0.42585242  0.63125876  1
  N  N52  1  0.55507426  0.54094640  0.38300128  1
  N  N53  1  0.44391419  0.43059582  0.13403990  1
  N  N54  1  0.22219639  0.53873722  0.88211335  1
  N  N55  1  0.11063413  0.42692721  0.63403045  1
  N  N56  1  0.88794595  0.53847952  0.37917277  1
  N  N57  1  0.77679763  0.42667923  0.13418640  1
  N  N58  1  0.55605362  0.53702217  0.88263852  1
  N  N59  1  0.44612344  0.42506524  0.63306085  1
  N  N60  1  0.22298581  0.87207786  0.38313193  1
  N  N61  1  0.11296190  0.76103166  0.13378338  1
  N  N62  1  0.88920913  0.87493194  0.89221546  1
  N  N63  1  0.78290427  0.76041857  0.61832862  1
  N  N64  1  0.55100581  0.88014190  0.31785773  1
  N  N65  1  0.45384681  0.77036461  0.12797925  1
  N  N66  1  0.22101254  0.87212004  0.88293869  1
  N  N67  1  0.10844436  0.76274900  0.63192564  1
  N  N68  1  0.87810189  0.89846479  0.37397409  1
  N  N69  1  0.75812497  0.77110357  0.12740044  1
  N  N70  1  0.55443681  0.87428313  0.83134029  1
  N  N71  1  0.44146318  0.75883990  0.63057078  1
