# generated using pymatgen
data_Al17BN18
_symmetry_space_group_name_H-M   'P 1'
_cell_length_a   9.33272440
_cell_length_b   9.32853597
_cell_length_c   10.11885433
_cell_angle_alpha   89.66475133
_cell_angle_beta   89.74636083
_cell_angle_gamma   60.02462073
_symmetry_Int_Tables_number   1
_chemical_formula_structural   Al17BN18
_chemical_formula_sum   'Al34 B2 N36'
_cell_volume   763.10361572
_cell_formula_units_Z   2
loop_
 _symmetry_equiv_pos_site_id
 _symmetry_equiv_pos_as_xyz
  1  'x, y, z'
loop_
 _atom_site_type_symbol
 _atom_site_label
 _atom_site_symmetry_multiplicity
 _atom_site_fract_x
 _atom_site_fract_y
 _atom_site_fract_z
 _atom_site_occupancy
  Al  Al0  1  0.11344113  0.08905912  0.38469928  1
  Al  Al1  1  0.22600507  0.20144716  0.13951750  1
  Al  Al2  1  0.77603460  0.09320099  0.82167972  1
  Al  Al3  1  0.88191921  0.20284571  0.56831125  1
  Al  Al4  1  0.44981735  0.08747884  0.37551623  1
  Al  Al5  1  0.56159046  0.20033999  0.08112064  1
  Al  Al6  1  0.11635423  0.09011694  0.88942586  1
  Al  Al7  1  0.22420612  0.20468224  0.63662415  1
  Al  Al8  1  0.88570322  0.20245323  0.07890015  1
  Al  Al9  1  0.44502993  0.08580092  0.89418928  1
  Al  Al10  1  0.56227059  0.20535192  0.56258761  1
  Al  Al11  1  0.10894260  0.42449567  0.38924585  1
  Al  Al12  1  0.22504412  0.54171371  0.06796065  1
  Al  Al13  1  0.77474031  0.43157151  0.88247960  1
  Al  Al14  1  0.88791159  0.54202212  0.63594332  1
  Al  Al15  1  0.44617090  0.42083993  0.31827191  1
  Al  Al16  1  0.55711267  0.54797347  0.13790229  1
  Al  Al17  1  0.10820998  0.42424278  0.88668214  1
  Al  Al18  1  0.22513710  0.54244331  0.57005925  1
  Al  Al19  1  0.77600473  0.42581316  0.37164038  1
  Al  Al20  1  0.88636871  0.54348951  0.13838272  1
  Al  Al21  1  0.44261146  0.42121351  0.82074068  1
  Al  Al22  1  0.55784909  0.54293732  0.63672202  1
  Al  Al23  1  0.10479515  0.76314002  0.31841068  1
  Al  Al24  1  0.23127156  0.87508133  0.13929789  1
  Al  Al25  1  0.76880499  0.76267667  0.89432515  1
  Al  Al26  1  0.88831453  0.88020602  0.56250910  1
  Al  Al27  1  0.44602124  0.76168434  0.38484705  1
  Al  Al28  1  0.10429452  0.76026638  0.82053551  1
  Al  Al29  1  0.22532128  0.87603399  0.63759256  1
  Al  Al30  1  0.77126075  0.76644631  0.37592015  1
  Al  Al31  1  0.88435549  0.87827346  0.08092939  1
  Al  Al32  1  0.44591241  0.76348169  0.89136746  1
  Al  Al33  1  0.55703977  0.87414838  0.63478182  1
  B  B34  1  0.78026322  0.09518301  0.31533356  1
  B  B35  1  0.55543123  0.87211130  0.14126959  1
  N  N36  1  0.22244842  0.20620981  0.32620416  1
  N  N37  1  0.11723534  0.09142415  0.07992708  1
  N  N38  1  0.88522176  0.20177355  0.88141551  1
  N  N39  1  0.77561265  0.09319155  0.63498195  1
  N  N40  1  0.58407814  0.19393024  0.36999597  1
  N  N41  1  0.45598353  0.06555232  0.08805951  1
  N  N42  1  0.22565693  0.20343542  0.82690925  1
  N  N43  1  0.11339762  0.09384437  0.57573466  1
  N  N44  1  0.87595777  0.19034485  0.36958628  1
  N  N45  1  0.77843887  0.09449503  0.15390523  1
  N  N46  1  0.55866315  0.20542983  0.88907481  1
  N  N47  1  0.44265661  0.09137090  0.56820684  1
  N  N48  1  0.22557218  0.54203272  0.38009477  1
  N  N49  1  0.10852556  0.42376561  0.07726636  1
  N  N50  1  0.88744971  0.54368542  0.82717588  1
  N  N51  1  0.77682628  0.43076441  0.58010522  1
  N  N52  1  0.55523067  0.54351300  0.32754599  1
  N  N53  1  0.44181301  0.42506849  0.12923239  1
  N  N54  1  0.22428932  0.54162114  0.87819031  1
  N  N55  1  0.10844219  0.42517977  0.57958319  1
  N  N56  1  0.89144817  0.53999481  0.32541616  1
  N  N57  1  0.77644321  0.43190229  0.08621627  1
  N  N58  1  0.55447577  0.54414086  0.82981255  1
  N  N59  1  0.44389771  0.42154932  0.62914659  1
  N  N60  1  0.22725889  0.87280316  0.32777933  1
  N  N61  1  0.10913416  0.75867802  0.12944017  1
  N  N62  1  0.88898566  0.87581789  0.88906981  1
  N  N63  1  0.77407601  0.76086886  0.56824420  1
  N  N64  1  0.55494915  0.87083143  0.30396004  1
  N  N65  1  0.45640320  0.77353821  0.08217809  1
  N  N66  1  0.22663467  0.87301962  0.82883512  1
  N  N67  1  0.10457596  0.76151386  0.62886595  1
  N  N68  1  0.87806062  0.90047989  0.36996927  1
  N  N69  1  0.74894201  0.77327834  0.08759750  1
  N  N70  1  0.55606430  0.87303390  0.82238390  1
  N  N71  1  0.44469263  0.76289562  0.57371327  1
