# generated using pymatgen
data_Al17BN18
_symmetry_space_group_name_H-M   'P 1'
_cell_length_a   9.32689693
_cell_length_b   9.30717841
_cell_length_c   10.06629340
_cell_angle_alpha   89.68569111
_cell_angle_beta   89.96061078
_cell_angle_gamma   59.92623236
_symmetry_Int_Tables_number   1
_chemical_formula_structural   Al17BN18
_chemical_formula_sum   'Al34 B2 N36'
_cell_volume   756.17856187
_cell_formula_units_Z   2
loop_
 _symmetry_equiv_pos_site_id
 _symmetry_equiv_pos_as_xyz
  1  'x, y, z'
loop_
 _atom_site_type_symbol
 _atom_site_label
 _atom_site_symmetry_multiplicity
 _atom_site_fract_x
 _atom_site_fract_y
 _atom_site_fract_z
 _atom_site_occupancy
  Al  Al0  1  0.10418992  0.09356813  0.31976152  1
  Al  Al1  1  0.21854885  0.20391721  0.07906660  1
  Al  Al2  1  0.77734400  0.09395704  0.82403677  1
  Al  Al3  1  0.88684160  0.20285704  0.56794818  1
  Al  Al4  1  0.44894606  0.09308011  0.37741996  1
  Al  Al5  1  0.56193304  0.20185129  0.08712364  1
  Al  Al6  1  0.11151353  0.09466880  0.82214568  1
  Al  Al7  1  0.21638945  0.20812017  0.56787725  1
  Al  Al8  1  0.88671021  0.20497950  0.07586177  1
  Al  Al9  1  0.45458622  0.07770772  0.90126613  1
  Al  Al10  1  0.56546093  0.20587678  0.56553892  1
  Al  Al11  1  0.10813922  0.43138323  0.31880128  1
  Al  Al12  1  0.22173534  0.54011170  0.06995540  1
  Al  Al13  1  0.77915952  0.42559035  0.82066134  1
  Al  Al14  1  0.88926341  0.53924751  0.56947403  1
  Al  Al15  1  0.44850542  0.42678064  0.31996273  1
  Al  Al16  1  0.55672588  0.54449728  0.06989445  1
  Al  Al17  1  0.11458367  0.42354989  0.82220618  1
  Al  Al18  1  0.22287039  0.53789254  0.57213278  1
  Al  Al19  1  0.77556478  0.42539398  0.32026002  1
  Al  Al20  1  0.88088814  0.54557457  0.07021246  1
  Al  Al21  1  0.44707685  0.42187887  0.82304321  1
  Al  Al22  1  0.55581905  0.53903799  0.56994970  1
  Al  Al23  1  0.10691755  0.76660975  0.32011222  1
  Al  Al24  1  0.22626261  0.87329846  0.07029113  1
  Al  Al25  1  0.78659738  0.75753605  0.82154265  1
  Al  Al26  1  0.88724057  0.87713205  0.56594742  1
  Al  Al27  1  0.44014728  0.76047193  0.31784401  1
  Al  Al28  1  0.11025994  0.76154393  0.82111390  1
  Al  Al29  1  0.22198952  0.87181127  0.56977887  1
  Al  Al30  1  0.77919320  0.76688600  0.31811740  1
  Al  Al31  1  0.88222203  0.87604530  0.07721627  1
  Al  Al32  1  0.44203847  0.75666349  0.82089673  1
  Al  Al33  1  0.55307723  0.87964783  0.63750739  1
  B  B34  1  0.77820974  0.09680714  0.31752443  1
  B  B35  1  0.55141413  0.87817338  0.15452980  1
  N  N36  1  0.21160668  0.21031719  0.37517886  1
  N  N37  1  0.10866134  0.09300014  0.13250131  1
  N  N38  1  0.88917309  0.20361627  0.88486454  1
  N  N39  1  0.77880327  0.09352566  0.63588611  1
  N  N40  1  0.58391356  0.19734757  0.36986939  1
  N  N41  1  0.45836230  0.06491786  0.09704384  1
  N  N42  1  0.22187133  0.20396018  0.88600963  1
  N  N43  1  0.10977405  0.09474754  0.63051834  1
  N  N44  1  0.87585250  0.19401391  0.37498253  1
  N  N45  1  0.78054666  0.09395585  0.15437658  1
  N  N46  1  0.56094010  0.20405714  0.89255278  1
  N  N47  1  0.44809337  0.09210645  0.57122276  1
  N  N48  1  0.22236114  0.53900068  0.38140641  1
  N  N49  1  0.10803130  0.43135896  0.13010925  1
  N  N50  1  0.89053268  0.53659487  0.88064754  1
  N  N51  1  0.77925358  0.42579467  0.62903579  1
  N  N52  1  0.55475089  0.54094699  0.38084310  1
  N  N53  1  0.44352449  0.43121783  0.13176922  1
  N  N54  1  0.22347020  0.53770659  0.88005782  1
  N  N55  1  0.11193384  0.42619178  0.63193540  1
  N  N56  1  0.88595009  0.54211040  0.37949543  1
  N  N57  1  0.77723768  0.42827627  0.13152299  1
  N  N58  1  0.55690761  0.53618293  0.88064678  1
  N  N59  1  0.44686391  0.42424113  0.63110127  1
  N  N60  1  0.22131243  0.87247542  0.38078242  1
  N  N61  1  0.11086501  0.76201306  0.13090084  1
  N  N62  1  0.88972600  0.87273842  0.88649937  1
  N  N63  1  0.78584076  0.75915173  0.62640003  1
  N  N64  1  0.54983018  0.88017704  0.31684325  1
  N  N65  1  0.45309455  0.77078086  0.12658065  1
  N  N66  1  0.22230122  0.87134686  0.88104540  1
  N  N67  1  0.10938531  0.76188162  0.62972636  1
  N  N68  1  0.87620535  0.89796205  0.37364043  1
  N  N69  1  0.75785000  0.77162315  0.12730325  1
  N  N70  1  0.55629019  0.87304604  0.82798374  1
  N  N71  1  0.44151257  0.75825739  0.62787814  1
