# generated using pymatgen
data_Al17BN18
_symmetry_space_group_name_H-M   'P 1'
_cell_length_a   9.31989010
_cell_length_b   9.31960002
_cell_length_c   10.07738978
_cell_angle_alpha   89.71654037
_cell_angle_beta   89.73222643
_cell_angle_gamma   59.97531333
_symmetry_Int_Tables_number   1
_chemical_formula_structural   Al17BN18
_chemical_formula_sum   'Al34 B2 N36'
_cell_volume   757.83027421
_cell_formula_units_Z   2
loop_
 _symmetry_equiv_pos_site_id
 _symmetry_equiv_pos_as_xyz
  1  'x, y, z'
loop_
 _atom_site_type_symbol
 _atom_site_label
 _atom_site_symmetry_multiplicity
 _atom_site_fract_x
 _atom_site_fract_y
 _atom_site_fract_z
 _atom_site_occupancy
  Al  Al0  1  0.10624101  0.09388972  0.38723959  1
  Al  Al1  1  0.22356957  0.20080795  0.13637448  1
  Al  Al2  1  0.77336745  0.09010560  0.81951481  1
  Al  Al3  1  0.89232842  0.20902096  0.63725954  1
  Al  Al4  1  0.44841645  0.08874414  0.37083354  1
  Al  Al5  1  0.55985940  0.19816602  0.08113607  1
  Al  Al6  1  0.10994390  0.09480304  0.88685667  1
  Al  Al7  1  0.22619691  0.20405480  0.63448421  1
  Al  Al8  1  0.88963560  0.20623573  0.14183058  1
  Al  Al9  1  0.44407644  0.08568760  0.89104224  1
  Al  Al10  1  0.56685388  0.19956585  0.55989535  1
  Al  Al11  1  0.11067536  0.42734468  0.38700653  1
  Al  Al12  1  0.22166321  0.53838529  0.13852749  1
  Al  Al13  1  0.77813369  0.42658662  0.88685166  1
  Al  Al14  1  0.88734543  0.54288122  0.63446593  1
  Al  Al15  1  0.44804436  0.43028042  0.37868766  1
  Al  Al16  1  0.55738250  0.54443697  0.13686255  1
  Al  Al17  1  0.11139924  0.42808844  0.88440990  1
  Al  Al18  1  0.22271572  0.53934586  0.63430467  1
  Al  Al19  1  0.77724529  0.42287695  0.38723284  1
  Al  Al20  1  0.88412755  0.54026172  0.13637101  1
  Al  Al21  1  0.44259153  0.43265365  0.88922400  1
  Al  Al22  1  0.55464328  0.53979262  0.63527475  1
  Al  Al23  1  0.11360654  0.76472482  0.37889027  1
  Al  Al24  1  0.22777916  0.87399792  0.13687060  1
  Al  Al25  1  0.76898181  0.76072379  0.89094213  1
  Al  Al26  1  0.88281572  0.88360115  0.56000789  1
  Al  Al27  1  0.44645116  0.76308310  0.38176250  1
  Al  Al28  1  0.11603213  0.75922872  0.88909533  1
  Al  Al29  1  0.22312926  0.87135262  0.63529534  1
  Al  Al30  1  0.77210847  0.76508785  0.37088605  1
  Al  Al31  1  0.88157187  0.87646835  0.08087896  1
  Al  Al32  1  0.44685234  0.76353903  0.88838939  1
  Al  Al33  1  0.55631998  0.87306115  0.63176741  1
  B  B34  1  0.77516135  0.09167542  0.30801328  1
  B  B35  1  0.55337900  0.87005717  0.13892391  1
  N  N36  1  0.21976011  0.20637408  0.32468241  1
  N  N37  1  0.10828776  0.09490849  0.07594614  1
  N  N38  1  0.89111493  0.20778076  0.82809464  1
  N  N39  1  0.77532129  0.09210750  0.63190703  1
  N  N40  1  0.58519623  0.19195637  0.36332560  1
  N  N41  1  0.45276390  0.06544337  0.08603182  1
  N  N42  1  0.22497288  0.20412797  0.82603673  1
  N  N43  1  0.11197843  0.09429718  0.57631916  1
  N  N44  1  0.88028862  0.19692987  0.33193370  1
  N  N45  1  0.77344086  0.08989120  0.14822066  1
  N  N46  1  0.55946889  0.20162717  0.88547788  1
  N  N47  1  0.44345005  0.09070978  0.56543370  1
  N  N48  1  0.22170926  0.53847930  0.32632496  1
  N  N49  1  0.11095792  0.42766812  0.07474574  1
  N  N50  1  0.88742649  0.54163122  0.82600622  1
  N  N51  1  0.77756701  0.42868991  0.57630884  1
  N  N52  1  0.55763402  0.54147556  0.32445211  1
  N  N53  1  0.44246455  0.43478184  0.08221733  1
  N  N54  1  0.22293570  0.53954367  0.82466008  1
  N  N55  1  0.11109237  0.42782102  0.57665364  1
  N  N56  1  0.88968957  0.53645117  0.32469127  1
  N  N57  1  0.77825726  0.42493235  0.07594341  1
  N  N58  1  0.55493078  0.54077925  0.82671573  1
  N  N59  1  0.44368446  0.43088089  0.57228932  1
  N  N60  1  0.22479705  0.87426869  0.32447904  1
  N  N61  1  0.11817179  0.75912071  0.08204682  1
  N  N62  1  0.88498705  0.87605684  0.88528554  1
  N  N63  1  0.77395240  0.76019208  0.56548610  1
  N  N64  1  0.55427838  0.87090339  0.30142910  1
  N  N65  1  0.45654232  0.77322398  0.08100898  1
  N  N66  1  0.22410709  0.87164315  0.82669566  1
  N  N67  1  0.11416218  0.76040639  0.57242185  1
  N  N68  1  0.87530314  0.90188351  0.36349598  1
  N  N69  1  0.74876833  0.76945756  0.08594721  1
  N  N70  1  0.55563485  0.87240250  0.81971542  1
  N  N71  1  0.44530812  0.76201998  0.57222964  1
