# generated using pymatgen
data_Al17BN18
_symmetry_space_group_name_H-M   'P 1'
_cell_length_a   9.35593550
_cell_length_b   9.34971539
_cell_length_c   10.11530753
_cell_angle_alpha   89.66868427
_cell_angle_beta   89.66799525
_cell_angle_gamma   59.94296086
_symmetry_Int_Tables_number   1
_chemical_formula_structural   Al17BN18
_chemical_formula_sum   'Al34 B2 N36'
_cell_volume   765.83592104
_cell_formula_units_Z   2
loop_
 _symmetry_equiv_pos_site_id
 _symmetry_equiv_pos_as_xyz
  1  'x, y, z'
loop_
 _atom_site_type_symbol
 _atom_site_label
 _atom_site_symmetry_multiplicity
 _atom_site_fract_x
 _atom_site_fract_y
 _atom_site_fract_z
 _atom_site_occupancy
  Al  Al0  1  0.10201113  0.09460155  0.32135643  1
  Al  Al1  1  0.22900459  0.20461542  0.13970491  1
  Al  Al2  1  0.77633451  0.09229417  0.82267119  1
  Al  Al3  1  0.88604475  0.20497625  0.56575643  1
  Al  Al4  1  0.44951656  0.08732045  0.37719396  1
  Al  Al5  1  0.56273922  0.20020180  0.08170749  1
  Al  Al6  1  0.10781782  0.09271120  0.82213399  1
  Al  Al7  1  0.22914897  0.20790086  0.63715690  1
  Al  Al8  1  0.88774634  0.20509253  0.07271238  1
  Al  Al9  1  0.44512702  0.08498711  0.89591746  1
  Al  Al10  1  0.56471704  0.20476318  0.56301380  1
  Al  Al11  1  0.10825904  0.42505208  0.39032091  1
  Al  Al12  1  0.22487414  0.54150784  0.06816381  1
  Al  Al13  1  0.78087616  0.42178163  0.82376322  1
  Al  Al14  1  0.89099954  0.54555446  0.63674508  1
  Al  Al15  1  0.44498880  0.42129579  0.31987006  1
  Al  Al16  1  0.55376221  0.54821820  0.13693013  1
  Al  Al17  1  0.10806702  0.42436542  0.88875584  1
  Al  Al18  1  0.22543040  0.54153543  0.57001780  1
  Al  Al19  1  0.77983546  0.41788480  0.32182952  1
  Al  Al20  1  0.88792604  0.54540317  0.13877936  1
  Al  Al21  1  0.44194356  0.42108251  0.82281450  1
  Al  Al22  1  0.55288684  0.54442535  0.63660549  1
  Al  Al23  1  0.10570155  0.76340117  0.32024520  1
  Al  Al24  1  0.22779842  0.87244366  0.11382260  1
  Al  Al25  1  0.76925045  0.76195164  0.89575431  1
  Al  Al26  1  0.88721154  0.88188159  0.56305703  1
  Al  Al27  1  0.44763573  0.76089397  0.38385782  1
  Al  Al28  1  0.10723959  0.76096386  0.82242691  1
  Al  Al29  1  0.22246267  0.87283625  0.60272569  1
  Al  Al30  1  0.77103239  0.76634215  0.37700973  1
  Al  Al31  1  0.88351079  0.87956649  0.08169230  1
  Al  Al32  1  0.44769509  0.76200865  0.89271678  1
  Al  Al33  1  0.55769821  0.87410523  0.63698030  1
  B  B34  1  0.77784776  0.09453345  0.31599613  1
  B  B35  1  0.55571529  0.87179570  0.14337280  1
  N  N36  1  0.22500390  0.20875915  0.32901821  1
  N  N37  1  0.10578414  0.09752782  0.12864244  1
  N  N38  1  0.88807168  0.20318033  0.88418398  1
  N  N39  1  0.77731556  0.09439548  0.63518794  1
  N  N40  1  0.58455625  0.19342044  0.37021323  1
  N  N41  1  0.45637532  0.06526496  0.08878047  1
  N  N42  1  0.22895714  0.20605805  0.82929263  1
  N  N43  1  0.10539771  0.09819502  0.62611655  1
  N  N44  1  0.87627013  0.19339745  0.37551006  1
  N  N45  1  0.77900075  0.09585102  0.15380414  1
  N  N46  1  0.55961115  0.20454630  0.88988676  1
  N  N47  1  0.44499247  0.09046475  0.56912173  1
  N  N48  1  0.22471187  0.54187133  0.38059163  1
  N  N49  1  0.10838145  0.42481991  0.07834566  1
  N  N50  1  0.88996654  0.54556276  0.82965030  1
  N  N51  1  0.78187444  0.42255715  0.62521165  1
  N  N52  1  0.55267201  0.54290281  0.33242457  1
  N  N53  1  0.44083171  0.42498741  0.12994480  1
  N  N54  1  0.22371658  0.54122247  0.87880265  1
  N  N55  1  0.10891759  0.42578297  0.57980099  1
  N  N56  1  0.89213120  0.54164934  0.32865184  1
  N  N57  1  0.78092442  0.42316176  0.12550272  1
  N  N58  1  0.55175930  0.54369476  0.83427620  1
  N  N59  1  0.44327952  0.42099267  0.62956303  1
  N  N60  1  0.22292532  0.87134148  0.35232256  1
  N  N61  1  0.10892043  0.75818061  0.13160214  1
  N  N62  1  0.88907273  0.87554825  0.88960390  1
  N  N63  1  0.77420698  0.76177237  0.56918900  1
  N  N64  1  0.55482213  0.87115954  0.30495712  1
  N  N65  1  0.45889875  0.77318821  0.08519294  1
  N  N66  1  0.22428406  0.86969261  0.85604990  1
  N  N67  1  0.10511433  0.76107991  0.62953234  1
  N  N68  1  0.87652054  0.90149156  0.37011001  1
  N  N69  1  0.74913094  0.77332626  0.08873426  1
  N  N70  1  0.55647686  0.87227899  0.82389684  1
  N  N71  1  0.44937017  0.76162237  0.57430966  1
