# generated using pymatgen
data_Al17BN18
_symmetry_space_group_name_H-M   'P 1'
_cell_length_a   9.29943278
_cell_length_b   9.29943390
_cell_length_c   9.93896921
_cell_angle_alpha   90.02502272
_cell_angle_beta   90.02506398
_cell_angle_gamma   60.01363546
_symmetry_Int_Tables_number   1
_chemical_formula_structural   Al17BN18
_chemical_formula_sum   'Al34 B2 N36'
_cell_volume   744.46545224
_cell_formula_units_Z   2
loop_
 _symmetry_equiv_pos_site_id
 _symmetry_equiv_pos_as_xyz
  1  'x, y, z'
loop_
 _atom_site_type_symbol
 _atom_site_label
 _atom_site_symmetry_multiplicity
 _atom_site_fract_x
 _atom_site_fract_y
 _atom_site_fract_z
 _atom_site_occupancy
  Al  Al0  1  0.10783102  0.09268473  0.30350741  1
  Al  Al1  1  0.22590339  0.20005485  0.05334321  1
  Al  Al2  1  0.77769974  0.09436702  0.80477826  1
  Al  Al3  1  0.88598451  0.20264965  0.54892984  1
  Al  Al4  1  0.45218857  0.08743801  0.29885686  1
  Al  Al5  1  0.55942543  0.19934179  0.05964545  1
  Al  Al6  1  0.10930150  0.09520128  0.80299967  1
  Al  Al7  1  0.22398588  0.20475138  0.55355137  1
  Al  Al8  1  0.88755324  0.20421938  0.05946400  1
  Al  Al9  1  0.44671450  0.09250626  0.81037688  1
  Al  Al10  1  0.56026507  0.20175407  0.54941816  1
  Al  Al11  1  0.11131404  0.42797934  0.30246046  1
  Al  Al12  1  0.22242269  0.53908983  0.05262051  1
  Al  Al13  1  0.77853538  0.42596750  0.80299975  1
  Al  Al14  1  0.88808589  0.54065115  0.55355145  1
  Al  Al15  1  0.44937560  0.42450802  0.30307929  1
  Al  Al16  1  0.55721045  0.54237112  0.05276704  1
  Al  Al17  1  0.11091310  0.42757889  0.80339341  1
  Al  Al18  1  0.22215677  0.53882346  0.55314972  1
  Al  Al19  1  0.77601757  0.42449824  0.30350733  1
  Al  Al20  1  0.88338911  0.54256921  0.05334302  1
  Al  Al21  1  0.44579010  0.42580154  0.80356583  1
  Al  Al22  1  0.55494585  0.54044582  0.55366070  1
  Al  Al23  1  0.10784116  0.76604203  0.30307910  1
  Al  Al24  1  0.22570493  0.87387660  0.05276733  1
  Al  Al25  1  0.77583947  0.76338110  0.81037686  1
  Al  Al26  1  0.88508804  0.87693163  0.54941810  1
  Al  Al27  1  0.44726910  0.76393592  0.29890875  1
  Al  Al28  1  0.10913423  0.76245752  0.80356594  1
  Al  Al29  1  0.22378092  0.87161086  0.55366042  1
  Al  Al30  1  0.77077253  0.76885409  0.29885680  1
  Al  Al31  1  0.88267419  0.87609292  0.05964529  1
  Al  Al32  1  0.44573178  0.76239880  0.80985695  1
  Al  Al33  1  0.55577008  0.87243493  0.55539753  1
  B  B34  1  0.77747148  0.09413840  0.29884684  1
  B  B35  1  0.55557647  0.87224271  0.04960190  1
  N  N36  1  0.22510581  0.20400087  0.36052184  1
  N  N37  1  0.11095343  0.09429458  0.11361727  1
  N  N38  1  0.88802753  0.20469366  0.86673687  1
  N  N39  1  0.77754249  0.09420894  0.61572369  1
  N  N40  1  0.57939015  0.19214928  0.35367129  1
  N  N41  1  0.45702598  0.06883435  0.10557054  1
  N  N42  1  0.22189914  0.20514737  0.86243666  1
  N  N43  1  0.10900191  0.09563159  0.61011716  1
  N  N44  1  0.87615694  0.19282389  0.35536974  1
  N  N45  1  0.77789328  0.09456047  0.13439917  1
  N  N46  1  0.55773025  0.20477745  0.86795522  1
  N  N47  1  0.44640374  0.09400112  0.61620815  1
  N  N48  1  0.22263474  0.53930123  0.36180938  1
  N  N49  1  0.11082065  0.42748651  0.11126338  1
  N  N50  1  0.88848127  0.53856545  0.86243648  1
  N  N51  1  0.77896641  0.42566706  0.61011730  1
  N  N52  1  0.55400834  0.54199748  0.36164517  1
  N  N53  1  0.44506560  0.42799801  0.11232725  1
  N  N54  1  0.22244131  0.53910854  0.86123873  1
  N  N55  1  0.11092927  0.42759480  0.61189192  1
  N  N56  1  0.88733527  0.54177144  0.36052178  1
  N  N57  1  0.77762833  0.42761971  0.11361712  1
  N  N58  1  0.55624728  0.53799114  0.86216840  1
  N  N59  1  0.44597821  0.42520854  0.61044188  1
  N  N60  1  0.22533069  0.87067500  0.36164490  1
  N  N61  1  0.11133068  0.76173262  0.11232717  1
  N  N62  1  0.88811012  0.87439751  0.86795512  1
  N  N63  1  0.77733592  0.76306923  0.61620805  1
  N  N64  1  0.55538617  0.87205171  0.36688706  1
  N  N65  1  0.45691488  0.77358106  0.10472668  1
  N  N66  1  0.22132455  0.87291367  0.86216872  1
  N  N67  1  0.10854241  0.76264468  0.61044197  1
  N  N68  1  0.87548262  0.89605684  0.35367136  1
  N  N69  1  0.75216816  0.77369211  0.10557042  1
  N  N70  1  0.55564784  0.87231456  0.88377312  1
  N  N71  1  0.44538691  0.76205217  0.61754543  1
