# generated using pymatgen
data_Al17BN18
_symmetry_space_group_name_H-M   'P 1'
_cell_length_a   9.33591293
_cell_length_b   9.33959615
_cell_length_c   10.08478199
_cell_angle_alpha   89.68633459
_cell_angle_beta   89.60276017
_cell_angle_gamma   59.98737411
_symmetry_Int_Tables_number   1
_chemical_formula_structural   Al17BN18
_chemical_formula_sum   'Al34 B2 N36'
_cell_volume   761.40401765
_cell_formula_units_Z   2
loop_
 _symmetry_equiv_pos_site_id
 _symmetry_equiv_pos_as_xyz
  1  'x, y, z'
loop_
 _atom_site_type_symbol
 _atom_site_label
 _atom_site_symmetry_multiplicity
 _atom_site_fract_x
 _atom_site_fract_y
 _atom_site_fract_z
 _atom_site_occupancy
  Al  Al0  1  0.10564178  0.09305378  0.38878492  1
  Al  Al1  1  0.22324473  0.19962953  0.13806617  1
  Al  Al2  1  0.77346949  0.09043689  0.82016727  1
  Al  Al3  1  0.89231281  0.20947375  0.63837143  1
  Al  Al4  1  0.44796158  0.08836840  0.37150577  1
  Al  Al5  1  0.56088686  0.19627093  0.08378744  1
  Al  Al6  1  0.11030369  0.09341798  0.88805712  1
  Al  Al7  1  0.22705767  0.20417861  0.63618507  1
  Al  Al8  1  0.88899590  0.20653177  0.14257696  1
  Al  Al9  1  0.44445289  0.08553052  0.89213020  1
  Al  Al10  1  0.56905850  0.19817396  0.55938630  1
  Al  Al11  1  0.10748792  0.42503188  0.38487197  1
  Al  Al12  1  0.21919821  0.53962021  0.10425764  1
  Al  Al13  1  0.77872237  0.42639383  0.88771567  1
  Al  Al14  1  0.88723727  0.54330493  0.63570047  1
  Al  Al15  1  0.45083086  0.42889405  0.37505880  1
  Al  Al16  1  0.55830149  0.54465895  0.13853341  1
  Al  Al17  1  0.11065129  0.42571132  0.88529178  1
  Al  Al18  1  0.22224060  0.54071997  0.58713815  1
  Al  Al19  1  0.77677031  0.42325757  0.38869756  1
  Al  Al20  1  0.88160942  0.54175771  0.13736501  1
  Al  Al21  1  0.44579489  0.43112938  0.89076209  1
  Al  Al22  1  0.55567148  0.53962222  0.63713643  1
  Al  Al23  1  0.10184307  0.76857216  0.31743287  1
  Al  Al24  1  0.23023708  0.87695971  0.13663637  1
  Al  Al25  1  0.76977280  0.76054187  0.89143071  1
  Al  Al26  1  0.88888883  0.88259871  0.55892416  1
  Al  Al27  1  0.44579431  0.76309769  0.38279413  1
  Al  Al28  1  0.10616284  0.75936376  0.81920465  1
  Al  Al29  1  0.22806207  0.87564495  0.63625835  1
  Al  Al30  1  0.77152554  0.76533476  0.37363961  1
  Al  Al31  1  0.88402864  0.87693913  0.07587355  1
  Al  Al32  1  0.44685983  0.76326094  0.88939757  1
  Al  Al33  1  0.55866623  0.87322407  0.63266998  1
  B  B34  1  0.77471354  0.09211215  0.30872513  1
  B  B35  1  0.55457423  0.87029997  0.13979128  1
  N  N36  1  0.21974210  0.20480316  0.32542977  1
  N  N37  1  0.10754864  0.09525210  0.07663690  1
  N  N38  1  0.89152879  0.20758125  0.82908450  1
  N  N39  1  0.77613214  0.09180633  0.63233497  1
  N  N40  1  0.58553310  0.19089296  0.36285848  1
  N  N41  1  0.45239640  0.06508354  0.08733064  1
  N  N42  1  0.22561284  0.20277725  0.82712862  1
  N  N43  1  0.11190062  0.09555800  0.57705182  1
  N  N44  1  0.87961664  0.19736820  0.33276104  1
  N  N45  1  0.77448090  0.08845325  0.14892932  1
  N  N46  1  0.56138096  0.20015021  0.88842714  1
  N  N47  1  0.44413668  0.09077720  0.56607018  1
  N  N48  1  0.21960015  0.54088939  0.35389995  1
  N  N49  1  0.10693446  0.42396031  0.07772965  1
  N  N50  1  0.88749684  0.54172039  0.82667867  1
  N  N51  1  0.77804656  0.42894387  0.57755646  1
  N  N52  1  0.55858693  0.54224824  0.32523212  1
  N  N53  1  0.44634484  0.43194502  0.08822664  1
  N  N54  1  0.22362992  0.53767662  0.85590322  1
  N  N55  1  0.10856761  0.42481292  0.57629252  1
  N  N56  1  0.88731884  0.53783727  0.32503939  1
  N  N57  1  0.77792119  0.42494968  0.07661508  1
  N  N58  1  0.55613764  0.54045440  0.82803908  1
  N  N59  1  0.44997574  0.42839841  0.57224336  1
  N  N60  1  0.22579870  0.87583146  0.32756138  1
  N  N61  1  0.10612742  0.76490929  0.12650336  1
  N  N62  1  0.88970780  0.87448431  0.88580233  1
  N  N63  1  0.77631558  0.76048692  0.56652095  1
  N  N64  1  0.55504952  0.87060138  0.30232962  1
  N  N65  1  0.45732712  0.77234790  0.08170144  1
  N  N66  1  0.22703945  0.87319128  0.82883682  1
  N  N67  1  0.10511210  0.76498035  0.62346120  1
  N  N68  1  0.87579084  0.90271076  0.36747043  1
  N  N69  1  0.74880418  0.77080793  0.08534984  1
  N  N70  1  0.55683327  0.87224113  0.82057468  1
  N  N71  1  0.44755937  0.76146001  0.57291424  1
