# generated using pymatgen
data_Al17BN18
_symmetry_space_group_name_H-M   'P 1'
_cell_length_a   9.29941802
_cell_length_b   9.29941568
_cell_length_c   9.93902787
_cell_angle_alpha   90.02342997
_cell_angle_beta   90.02438960
_cell_angle_gamma   60.01349858
_symmetry_Int_Tables_number   1
_chemical_formula_structural   Al17BN18
_chemical_formula_sum   'Al34 B2 N36'
_cell_volume   744.46618873
_cell_formula_units_Z   2
loop_
 _symmetry_equiv_pos_site_id
 _symmetry_equiv_pos_as_xyz
  1  'x, y, z'
loop_
 _atom_site_type_symbol
 _atom_site_label
 _atom_site_symmetry_multiplicity
 _atom_site_fract_x
 _atom_site_fract_y
 _atom_site_fract_z
 _atom_site_occupancy
  Al  Al0  1  0.10783382  0.09268866  0.31192274  1
  Al  Al1  1  0.22590793  0.20005937  0.06175956  1
  Al  Al2  1  0.77770449  0.09437209  0.81319473  1
  Al  Al3  1  0.88598954  0.20265418  0.55734618  1
  Al  Al4  1  0.45219132  0.08744236  0.30727508  1
  Al  Al5  1  0.55942830  0.19934652  0.06806199  1
  Al  Al6  1  0.10930712  0.09520612  0.81141603  1
  Al  Al7  1  0.22398978  0.20475599  0.56196709  1
  Al  Al8  1  0.88755668  0.20422462  0.06787920  1
  Al  Al9  1  0.44671932  0.09251176  0.81879220  1
  Al  Al10  1  0.56026996  0.20175896  0.55783443  1
  Al  Al11  1  0.11131730  0.42798356  0.31087560  1
  Al  Al12  1  0.22242592  0.53909539  0.06103589  1
  Al  Al13  1  0.77853985  0.42597364  0.81141611  1
  Al  Al14  1  0.88809096  0.54065464  0.56196633  1
  Al  Al15  1  0.44937875  0.42451179  0.31149472  1
  Al  Al16  1  0.55721357  0.54237739  0.06118367  1
  Al  Al17  1  0.11091770  0.42758427  0.81180967  1
  Al  Al18  1  0.22216175  0.53882743  0.56156586  1
  Al  Al19  1  0.77602074  0.42450165  0.31192244  1
  Al  Al20  1  0.88339189  0.54257559  0.06175925  1
  Al  Al21  1  0.44579524  0.42580719  0.81198270  1
  Al  Al22  1  0.55495073  0.54044929  0.56207600  1
  Al  Al23  1  0.10784444  0.76604593  0.31149460  1
  Al  Al24  1  0.22570960  0.87388141  0.06118379  1
  Al  Al25  1  0.77584431  0.76338647  0.81879094  1
  Al  Al26  1  0.88509340  0.87693641  0.55783384  1
  Al  Al27  1  0.44727240  0.76394007  0.30732658  1
  Al  Al28  1  0.10913964  0.76246260  0.81198187  1
  Al  Al29  1  0.22378504  0.87161518  0.56207576  1
  Al  Al30  1  0.77077529  0.76885852  0.30727475  1
  Al  Al31  1  0.88267691  0.87609785  0.06806092  1
  Al  Al32  1  0.44573677  0.76240428  0.81827144  1
  Al  Al33  1  0.55577465  0.87243925  0.56381459  1
  B  B34  1  0.77747505  0.09414103  0.30726392  1
  B  B35  1  0.55558048  0.87224670  0.05802097  1
  N  N36  1  0.22510791  0.20400415  0.36894009  1
  N  N37  1  0.11095718  0.09429855  0.12203480  1
  N  N38  1  0.88803233  0.20469761  0.87515463  1
  N  N39  1  0.77754773  0.09421223  0.62414242  1
  N  N40  1  0.57939313  0.19215253  0.36209070  1
  N  N41  1  0.45702932  0.06883884  0.11399134  1
  N  N42  1  0.22190414  0.20515149  0.87085515  1
  N  N43  1  0.10900706  0.09563462  0.61853595  1
  N  N44  1  0.87616086  0.19282707  0.36378852  1
  N  N45  1  0.77789672  0.09456463  0.14281919  1
  N  N46  1  0.55773526  0.20478134  0.87637411  1
  N  N47  1  0.44640849  0.09400480  0.62462587  1
  N  N48  1  0.22263792  0.53930377  0.37022782  1
  N  N49  1  0.11082413  0.42749089  0.11968111  1
  N  N50  1  0.88848570  0.53857028  0.87085488  1
  N  N51  1  0.77897127  0.42567063  0.61853596  1
  N  N52  1  0.55401201  0.54199915  0.37006296  1
  N  N53  1  0.44506878  0.42800256  0.12074513  1
  N  N54  1  0.22244609  0.53911249  0.86965664  1
  N  N55  1  0.11093402  0.42759811  0.62031053  1
  N  N56  1  0.88733871  0.54177364  0.36893927  1
  N  N57  1  0.77763197  0.42762398  0.12203460  1
  N  N58  1  0.55625199  0.53799604  0.87058735  1
  N  N59  1  0.44598335  0.42521197  0.61886126  1
  N  N60  1  0.22533315  0.87067798  0.37006294  1
  N  N61  1  0.11133396  0.76173702  0.12074506  1
  N  N62  1  0.88811509  0.87440092  0.87637315  1
  N  N63  1  0.77734165  0.76307216  0.62462478  1
  N  N64  1  0.55538930  0.87205444  0.37530670  1
  N  N65  1  0.45691884  0.77358547  0.11314739  1
  N  N66  1  0.22133011  0.87291723  0.87058737  1
  N  N67  1  0.10854764  0.76264785  0.61886053  1
  N  N68  1  0.87548621  0.89605993  0.36209043  1
  N  N69  1  0.75217145  0.77369662  0.11399099  1
  N  N70  1  0.55565273  0.87231896  0.89219362  1
  N  N71  1  0.44539160  0.76205493  0.62596225  1
