# generated using pymatgen
data_Al17BN18
_symmetry_space_group_name_H-M   'P 1'
_cell_length_a   9.34152073
_cell_length_b   9.33160150
_cell_length_c   10.12205517
_cell_angle_alpha   89.64284033
_cell_angle_beta   89.75203973
_cell_angle_gamma   59.99055833
_symmetry_Int_Tables_number   1
_chemical_formula_structural   Al17BN18
_chemical_formula_sum   'Al34 B2 N36'
_cell_volume   764.05198584
_cell_formula_units_Z   2
loop_
 _symmetry_equiv_pos_site_id
 _symmetry_equiv_pos_as_xyz
  1  'x, y, z'
loop_
 _atom_site_type_symbol
 _atom_site_label
 _atom_site_symmetry_multiplicity
 _atom_site_fract_x
 _atom_site_fract_y
 _atom_site_fract_z
 _atom_site_occupancy
  Al  Al0  1  0.10238371  0.09132671  0.31916446  1
  Al  Al1  1  0.22855803  0.20354151  0.14015596  1
  Al  Al2  1  0.77637404  0.09248046  0.82371342  1
  Al  Al3  1  0.88769809  0.20287849  0.56676257  1
  Al  Al4  1  0.44894821  0.08815446  0.37759815  1
  Al  Al5  1  0.56223876  0.20023471  0.08214151  1
  Al  Al6  1  0.10858789  0.09010036  0.82101959  1
  Al  Al7  1  0.22911506  0.20638834  0.63810477  1
  Al  Al8  1  0.88727227  0.20512843  0.07338837  1
  Al  Al9  1  0.44508765  0.08597574  0.89609221  1
  Al  Al10  1  0.56483429  0.20366451  0.56370237  1
  Al  Al11  1  0.10829192  0.42492875  0.39065121  1
  Al  Al12  1  0.22425141  0.54223737  0.06888399  1
  Al  Al13  1  0.77803399  0.42265589  0.82271007  1
  Al  Al14  1  0.89141678  0.54546795  0.63758594  1
  Al  Al15  1  0.44532931  0.42199914  0.32053617  1
  Al  Al16  1  0.55384013  0.54647033  0.12000742  1
  Al  Al17  1  0.10827652  0.42417664  0.88865667  1
  Al  Al18  1  0.22469108  0.54253501  0.57137768  1
  Al  Al19  1  0.77870327  0.41782377  0.32152352  1
  Al  Al20  1  0.88768444  0.54570364  0.13987039  1
  Al  Al21  1  0.44417971  0.42344129  0.82306760  1
  Al  Al22  1  0.55568539  0.53971924  0.60695943  1
  Al  Al23  1  0.10745598  0.76542795  0.31906910  1
  Al  Al24  1  0.21950752  0.87786233  0.07330735  1
  Al  Al25  1  0.77088887  0.76146289  0.89594907  1
  Al  Al26  1  0.88838820  0.88092934  0.56439421  1
  Al  Al27  1  0.44847975  0.76275334  0.38090532  1
  Al  Al28  1  0.10935939  0.76208675  0.82209746  1
  Al  Al29  1  0.21666420  0.87669180  0.56876815  1
  Al  Al30  1  0.77161219  0.76648131  0.37738969  1
  Al  Al31  1  0.88359412  0.87926564  0.08304412  1
  Al  Al32  1  0.45314188  0.76066095  0.89173500  1
  Al  Al33  1  0.55758999  0.87372071  0.63711161  1
  B  B34  1  0.77799115  0.09446667  0.31711287  1
  B  B35  1  0.55340839  0.87206981  0.14322568  1
  N  N36  1  0.22420384  0.20804586  0.32912074  1
  N  N37  1  0.10622008  0.09376491  0.13084419  1
  N  N38  1  0.88913291  0.20307041  0.88470360  1
  N  N39  1  0.77730372  0.09381264  0.63611164  1
  N  N40  1  0.58450139  0.19325825  0.37108588  1
  N  N41  1  0.45538531  0.06599757  0.08863989  1
  N  N42  1  0.22880482  0.20516369  0.82971239  1
  N  N43  1  0.10709003  0.09335106  0.62977399  1
  N  N44  1  0.87700049  0.19287406  0.37630524  1
  N  N45  1  0.77835450  0.09600256  0.15458977  1
  N  N46  1  0.55950165  0.20521973  0.89025791  1
  N  N47  1  0.44438652  0.09060251  0.56940005  1
  N  N48  1  0.22419697  0.54316344  0.38133027  1
  N  N49  1  0.10795899  0.42463211  0.07846019  1
  N  N50  1  0.88991957  0.54519605  0.82929510  1
  N  N51  1  0.78195563  0.42142135  0.62642300  1
  N  N52  1  0.55395255  0.53981663  0.34773818  1
  N  N53  1  0.44056163  0.42534194  0.13200157  1
  N  N54  1  0.22436249  0.54158535  0.87895702  1
  N  N55  1  0.10927882  0.42496840  0.58029537  1
  N  N56  1  0.89185455  0.54175124  0.32924891  1
  N  N57  1  0.78032478  0.42265329  0.12874916  1
  N  N58  1  0.55437643  0.53954754  0.85405963  1
  N  N59  1  0.44433329  0.42129475  0.63008941  1
  N  N60  1  0.21621329  0.87530395  0.37895960  1
  N  N61  1  0.11108817  0.76046572  0.13242433  1
  N  N62  1  0.89076371  0.87521209  0.89037961  1
  N  N63  1  0.77473876  0.76143548  0.56954355  1
  N  N64  1  0.55468625  0.87228843  0.30472557  1
  N  N65  1  0.45755932  0.77607355  0.08772380  1
  N  N66  1  0.22036555  0.87253423  0.88304000  1
  N  N67  1  0.10797705  0.76316336  0.63168103  1
  N  N68  1  0.87739429  0.90114784  0.37053179  1
  N  N69  1  0.74930561  0.77300884  0.08866529  1
  N  N70  1  0.55744350  0.87322293  0.82372139  1
  N  N71  1  0.44904263  0.76393932  0.57523098  1
