# generated using pymatgen
data_Al17BN18
_symmetry_space_group_name_H-M   'P 1'
_cell_length_a   9.33251418
_cell_length_b   9.33914809
_cell_length_c   10.08239770
_cell_angle_alpha   89.68900725
_cell_angle_beta   89.60209832
_cell_angle_gamma   59.99819571
_symmetry_Int_Tables_number   1
_chemical_formula_structural   Al17BN18
_chemical_formula_sum   'Al34 B2 N36'
_cell_volume   760.99341751
_cell_formula_units_Z   2
loop_
 _symmetry_equiv_pos_site_id
 _symmetry_equiv_pos_as_xyz
  1  'x, y, z'
loop_
 _atom_site_type_symbol
 _atom_site_label
 _atom_site_symmetry_multiplicity
 _atom_site_fract_x
 _atom_site_fract_y
 _atom_site_fract_z
 _atom_site_occupancy
  Al  Al0  1  0.10323906  0.08976905  0.32259556  1
  Al  Al1  1  0.23197761  0.19711241  0.14118072  1
  Al  Al2  1  0.77468352  0.09344116  0.82629794  1
  Al  Al3  1  0.88640598  0.20352685  0.56957538  1
  Al  Al4  1  0.44910045  0.08989017  0.38312938  1
  Al  Al5  1  0.56184523  0.20144639  0.08539369  1
  Al  Al6  1  0.10536947  0.09097359  0.82300395  1
  Al  Al7  1  0.22768805  0.20621651  0.63936511  1
  Al  Al8  1  0.88750034  0.20368033  0.07622870  1
  Al  Al9  1  0.44446832  0.08409921  0.90018398  1
  Al  Al10  1  0.56361747  0.20625058  0.56755090  1
  Al  Al11  1  0.11306106  0.42953922  0.33790945  1
  Al  Al12  1  0.22507866  0.54113947  0.07375791  1
  Al  Al13  1  0.77772823  0.42696982  0.82198275  1
  Al  Al14  1  0.88906370  0.53488259  0.56793940  1
  Al  Al15  1  0.45154503  0.42491252  0.32181433  1
  Al  Al16  1  0.55658499  0.54345612  0.07045815  1
  Al  Al17  1  0.10957845  0.42899263  0.85364409  1
  Al  Al18  1  0.22203651  0.54048660  0.57358490  1
  Al  Al19  1  0.77524868  0.42202829  0.32067607  1
  Al  Al20  1  0.88366649  0.53718029  0.08314243  1
  Al  Al21  1  0.44619023  0.42332443  0.82341499  1
  Al  Al22  1  0.55470590  0.54031716  0.57132775  1
  Al  Al23  1  0.11013227  0.76694162  0.32109632  1
  Al  Al24  1  0.22772423  0.87346509  0.07026608  1
  Al  Al25  1  0.76436451  0.76847234  0.89982904  1
  Al  Al26  1  0.88894854  0.88115493  0.56689741  1
  Al  Al27  1  0.44438022  0.76018189  0.31642354  1
  Al  Al28  1  0.10635417  0.76264101  0.82288836  1
  Al  Al29  1  0.22308801  0.87310886  0.57091794  1
  Al  Al30  1  0.77259503  0.77020830  0.37551163  1
  Al  Al31  1  0.88545035  0.87828154  0.08759416  1
  Al  Al32  1  0.44108263  0.75725447  0.82061006  1
  Al  Al33  1  0.56012061  0.87609698  0.63884000  1
  B  B34  1  0.77877292  0.09643469  0.31921479  1
  B  B35  1  0.55886216  0.87437137  0.15032821  1
  N  N36  1  0.22711438  0.20145442  0.33356876  1
  N  N37  1  0.10752503  0.09078544  0.13137009  1
  N  N38  1  0.88573305  0.20520420  0.88608384  1
  N  N39  1  0.77654590  0.09445862  0.63840402  1
  N  N40  1  0.58453121  0.19589445  0.37363648  1
  N  N41  1  0.45782671  0.06389581  0.09158827  1
  N  N42  1  0.22848002  0.20087498  0.83667196  1
  N  N43  1  0.10629744  0.09345270  0.63010370  1
  N  N44  1  0.87597804  0.19429262  0.37727602  1
  N  N45  1  0.77832486  0.09610579  0.15664188  1
  N  N46  1  0.55707637  0.20621153  0.89247026  1
  N  N47  1  0.44381786  0.09219554  0.57325939  1
  N  N48  1  0.22546022  0.54187905  0.38212536  1
  N  N49  1  0.11268159  0.42829094  0.11741676  1
  N  N50  1  0.88453931  0.53757312  0.88778927  1
  N  N51  1  0.77742695  0.42633018  0.63100549  1
  N  N52  1  0.55538163  0.54174900  0.38235804  1
  N  N53  1  0.44573003  0.42898956  0.13394802  1
  N  N54  1  0.22425506  0.54138085  0.88335169  1
  N  N55  1  0.10834221  0.43155702  0.61673169  1
  N  N56  1  0.88823931  0.53385445  0.37237584  1
  N  N57  1  0.77498471  0.42460694  0.13382885  1
  N  N58  1  0.55531037  0.53779836  0.88148940  1
  N  N59  1  0.44569034  0.42508109  0.63231584  1
  N  N60  1  0.22583436  0.87126021  0.38234791  1
  N  N61  1  0.11376939  0.76170562  0.13357898  1
  N  N62  1  0.88925952  0.87587940  0.89289347  1
  N  N63  1  0.77219620  0.76635917  0.57066865  1
  N  N64  1  0.55904510  0.87811554  0.31014062  1
  N  N65  1  0.45376357  0.76936349  0.12622154  1
  N  N66  1  0.22151288  0.87096439  0.88195597  1
  N  N67  1  0.10786348  0.76383407  0.63187988  1
  N  N68  1  0.88096399  0.90158693  0.37165237  1
  N  N69  1  0.74795261  0.77559297  0.09614989  1
  N  N70  1  0.55741153  0.87475005  0.82671165  1
  N  N71  1  0.44186213  0.75915012  0.62990142  1
