# generated using pymatgen
data_Al17BN18
_symmetry_space_group_name_H-M   'P 1'
_cell_length_a   9.29233910
_cell_length_b   9.29254856
_cell_length_c   10.17637377
_cell_angle_alpha   89.61608213
_cell_angle_beta   89.60785203
_cell_angle_gamma   60.09273494
_symmetry_Int_Tables_number   1
_chemical_formula_structural   Al17BN18
_chemical_formula_sum   'Al34 B2 N36'
_cell_volume   761.68490074
_cell_formula_units_Z   2
loop_
 _symmetry_equiv_pos_site_id
 _symmetry_equiv_pos_as_xyz
  1  'x, y, z'
loop_
 _atom_site_type_symbol
 _atom_site_label
 _atom_site_symmetry_multiplicity
 _atom_site_fract_x
 _atom_site_fract_y
 _atom_site_fract_z
 _atom_site_occupancy
  Al  Al0  1  0.10355494  0.09037410  0.32081993  1
  Al  Al1  1  0.22828290  0.20345968  0.14182555  1
  Al  Al2  1  0.77532193  0.09190273  0.82552154  1
  Al  Al3  1  0.88712590  0.20375464  0.56846090  1
  Al  Al4  1  0.44877318  0.09030328  0.38013825  1
  Al  Al5  1  0.56184948  0.20115278  0.08436503  1
  Al  Al6  1  0.10650661  0.09148660  0.82121343  1
  Al  Al7  1  0.22845453  0.20685067  0.63952145  1
  Al  Al8  1  0.88770800  0.20439099  0.07596086  1
  Al  Al9  1  0.44432457  0.08458105  0.89903605  1
  Al  Al10  1  0.56434391  0.20562874  0.56555392  1
  Al  Al11  1  0.10830681  0.42522714  0.39192840  1
  Al  Al12  1  0.22548256  0.54227097  0.07082453  1
  Al  Al13  1  0.77491317  0.42299205  0.82129642  1
  Al  Al14  1  0.89041584  0.54501547  0.63991788  1
  Al  Al15  1  0.44893390  0.42561180  0.32054782  1
  Al  Al16  1  0.55752376  0.54354554  0.07003005  1
  Al  Al17  1  0.10788241  0.42443203  0.89015401  1
  Al  Al18  1  0.22591012  0.54243026  0.57288359  1
  Al  Al19  1  0.77362787  0.42026626  0.32081509  1
  Al  Al20  1  0.88655244  0.54520696  0.14187992  1
  Al  Al21  1  0.44565613  0.42333755  0.82266091  1
  Al  Al22  1  0.55668294  0.53967188  0.56990482  1
  Al  Al23  1  0.10872692  0.76576585  0.32056064  1
  Al  Al24  1  0.22682088  0.87425217  0.07002765  1
  Al  Al25  1  0.76793061  0.76095776  0.89893209  1
  Al  Al26  1  0.88910781  0.88093425  0.56574913  1
  Al  Al27  1  0.44386005  0.76056487  0.31582842  1
  Al  Al28  1  0.10684375  0.76219829  0.82266813  1
  Al  Al29  1  0.22315218  0.87313512  0.56984781  1
  Al  Al30  1  0.77352895  0.76547449  0.38053578  1
  Al  Al31  1  0.88438840  0.87855540  0.08424593  1
  Al  Al32  1  0.44129260  0.75786703  0.82026197  1
  Al  Al33  1  0.55973928  0.87637024  0.63824709  1
  B  B34  1  0.77829797  0.09503068  0.31937503  1
  B  B35  1  0.55699222  0.87363749  0.14790175  1
  N  N36  1  0.22450074  0.20848423  0.32951648  1
  N  N37  1  0.10759146  0.09105456  0.13219172  1
  N  N38  1  0.88760312  0.20410881  0.88706274  1
  N  N39  1  0.77669639  0.09337088  0.63845937  1
  N  N40  1  0.58471106  0.19632915  0.37315978  1
  N  N41  1  0.45528585  0.06470505  0.08974444  1
  N  N42  1  0.22846639  0.20546975  0.83013921  1
  N  N43  1  0.10680175  0.09277914  0.63035680  1
  N  N44  1  0.87722358  0.19395984  0.37769514  1
  N  N45  1  0.77825356  0.09490335  0.15705924  1
  N  N46  1  0.55832045  0.20643700  0.89302559  1
  N  N47  1  0.44360732  0.09109780  0.56945615  1
  N  N48  1  0.22621773  0.54305493  0.38279761  1
  N  N49  1  0.10756313  0.42445395  0.07895002  1
  N  N50  1  0.88890426  0.54499914  0.83024861  1
  N  N51  1  0.77629842  0.42338266  0.63046385  1
  N  N52  1  0.55519274  0.54193845  0.38253003  1
  N  N53  1  0.44414139  0.42890134  0.13407375  1
  N  N54  1  0.22538241  0.54194433  0.88080229  1
  N  N55  1  0.10862210  0.42521619  0.58068562  1
  N  N56  1  0.89158504  0.54137435  0.32954064  1
  N  N57  1  0.77432476  0.42431689  0.13218780  1
  N  N58  1  0.55546286  0.53851345  0.88285287  1
  N  N59  1  0.44676831  0.42368700  0.63290481  1
  N  N60  1  0.22520141  0.87191743  0.38248270  1
  N  N61  1  0.11207198  0.76094492  0.13406754  1
  N  N62  1  0.88985862  0.87486718  0.89290940  1
  N  N63  1  0.77467030  0.76012122  0.56982069  1
  N  N64  1  0.56100919  0.87758907  0.30777896  1
  N  N65  1  0.45279424  0.76952449  0.12686248  1
  N  N66  1  0.22192766  0.87207284  0.88284592  1
  N  N67  1  0.10720407  0.76326977  0.63294743  1
  N  N68  1  0.87949392  0.90147652  0.37335172  1
  N  N69  1  0.74788201  0.77205882  0.08958077  1
  N  N70  1  0.55875060  0.87543180  0.82493746  1
  N  N71  1  0.44175994  0.75830661  0.63040756  1
