# generated using pymatgen
data_Al17BN18
_symmetry_space_group_name_H-M   'P 1'
_cell_length_a   9.33605348
_cell_length_b   9.33958832
_cell_length_c   10.08494246
_cell_angle_alpha   89.68615064
_cell_angle_beta   89.60280820
_cell_angle_gamma   59.98670176
_symmetry_Int_Tables_number   1
_chemical_formula_structural   Al17BN18
_chemical_formula_sum   'Al34 B2 N36'
_cell_volume   761.42179319
_cell_formula_units_Z   2
loop_
 _symmetry_equiv_pos_site_id
 _symmetry_equiv_pos_as_xyz
  1  'x, y, z'
loop_
 _atom_site_type_symbol
 _atom_site_label
 _atom_site_symmetry_multiplicity
 _atom_site_fract_x
 _atom_site_fract_y
 _atom_site_fract_z
 _atom_site_occupancy
  Al  Al0  1  0.10312077  0.08974138  0.32231030  1
  Al  Al1  1  0.23148987  0.19819183  0.14155162  1
  Al  Al2  1  0.77469503  0.09347597  0.82629213  1
  Al  Al3  1  0.88650623  0.20343007  0.56955925  1
  Al  Al4  1  0.44934201  0.08975674  0.38307927  1
  Al  Al5  1  0.56183843  0.20135699  0.08531687  1
  Al  Al6  1  0.10529603  0.09106223  0.82269424  1
  Al  Al7  1  0.22718586  0.20736761  0.63978620  1
  Al  Al8  1  0.88757180  0.20359520  0.07616491  1
  Al  Al9  1  0.44446181  0.08410720  0.90003068  1
  Al  Al10  1  0.56359123  0.20615108  0.56752972  1
  Al  Al11  1  0.11422805  0.42692765  0.35572786  1
  Al  Al12  1  0.22591185  0.54168714  0.07409735  1
  Al  Al13  1  0.77769077  0.42708222  0.82182456  1
  Al  Al14  1  0.88746545  0.53561739  0.56822755  1
  Al  Al15  1  0.45175557  0.42494235  0.32158780  1
  Al  Al16  1  0.55659148  0.54344035  0.07025367  1
  Al  Al17  1  0.11118849  0.42583474  0.87269771  1
  Al  Al18  1  0.22275932  0.54102499  0.57368419  1
  Al  Al19  1  0.77505718  0.42204295  0.32041622  1
  Al  Al20  1  0.88247952  0.53783237  0.08393371  1
  Al  Al21  1  0.44611454  0.42339881  0.82326265  1
  Al  Al22  1  0.55463801  0.54030145  0.57123997  1
  Al  Al23  1  0.11011775  0.76706528  0.32088751  1
  Al  Al24  1  0.22772162  0.87365237  0.07017170  1
  Al  Al25  1  0.76430080  0.76852298  0.89956192  1
  Al  Al26  1  0.88890689  0.88117206  0.56682954  1
  Al  Al27  1  0.44436342  0.76016454  0.31638587  1
  Al  Al28  1  0.10630364  0.76250968  0.82278031  1
  Al  Al29  1  0.22305644  0.87328803  0.57090100  1
  Al  Al30  1  0.77247509  0.77042935  0.37515842  1
  Al  Al31  1  0.88539900  0.87833061  0.08744759  1
  Al  Al32  1  0.44104829  0.75722221  0.82058763  1
  Al  Al33  1  0.55987798  0.87627244  0.63879334  1
  B  B34  1  0.77878891  0.09639555  0.31916921  1
  B  B35  1  0.55863775  0.87459492  0.15023496  1
  N  N36  1  0.22722891  0.20183049  0.33240173  1
  N  N37  1  0.10756783  0.09087197  0.13140074  1
  N  N38  1  0.88580416  0.20523859  0.88604699  1
  N  N39  1  0.77652848  0.09445791  0.63838670  1
  N  N40  1  0.58456036  0.19588934  0.37361256  1
  N  N41  1  0.45755663  0.06399355  0.09148998  1
  N  N42  1  0.22822605  0.20178095  0.83542945  1
  N  N43  1  0.10632153  0.09351066  0.63012345  1
  N  N44  1  0.87603775  0.19435309  0.37725862  1
  N  N45  1  0.77831348  0.09609450  0.15663294  1
  N  N46  1  0.55704497  0.20620955  0.89243986  1
  N  N47  1  0.44364381  0.09221956  0.57315189  1
  N  N48  1  0.22647200  0.54277442  0.38119891  1
  N  N49  1  0.11382110  0.42566895  0.10436964  1
  N  N50  1  0.88333953  0.53833513  0.88664713  1
  N  N51  1  0.77721729  0.42623485  0.63092173  1
  N  N52  1  0.55544498  0.54174553  0.38234629  1
  N  N53  1  0.44605580  0.42885364  0.13392145  1
  N  N54  1  0.22481110  0.54190362  0.88262190  1
  N  N55  1  0.10980691  0.42888507  0.60234346  1
  N  N56  1  0.88697312  0.53478815  0.37066368  1
  N  N57  1  0.77476720  0.42444285  0.13372389  1
  N  N58  1  0.55531478  0.53775190  0.88140075  1
  N  N59  1  0.44587560  0.42496956  0.63228609  1
  N  N60  1  0.22580905  0.87145625  0.38232334  1
  N  N61  1  0.11361439  0.76189819  0.13352999  1
  N  N62  1  0.88922128  0.87592479  0.89289185  1
  N  N63  1  0.77197316  0.76655886  0.57053689  1
  N  N64  1  0.55887364  0.87824864  0.31003187  1
  N  N65  1  0.45374517  0.76932752  0.12620263  1
  N  N66  1  0.22145943  0.87114986  0.88190695  1
  N  N67  1  0.10774121  0.76392500  0.63183558  1
  N  N68  1  0.88096494  0.90161480  0.37163359  1
  N  N69  1  0.74782480  0.77581336  0.09610344  1
  N  N70  1  0.55721645  0.87490310  0.82662212  1
  N  N71  1  0.44183270  0.75911421  0.62987281  1
