# generated using pymatgen
data_Al17BN18
_symmetry_space_group_name_H-M   'P 1'
_cell_length_a   9.31914762
_cell_length_b   9.31820969
_cell_length_c   10.12281284
_cell_angle_alpha   89.60314500
_cell_angle_beta   89.60613110
_cell_angle_gamma   60.01488457
_symmetry_Int_Tables_number   1
_chemical_formula_structural   Al17BN18
_chemical_formula_sum   'Al34 B2 N36'
_cell_volume   761.36312616
_cell_formula_units_Z   2
loop_
 _symmetry_equiv_pos_site_id
 _symmetry_equiv_pos_as_xyz
  1  'x, y, z'
loop_
 _atom_site_type_symbol
 _atom_site_label
 _atom_site_symmetry_multiplicity
 _atom_site_fract_x
 _atom_site_fract_y
 _atom_site_fract_z
 _atom_site_occupancy
  Al  Al0  1  0.10373687  0.09002871  0.32135084  1
  Al  Al1  1  0.23037692  0.20128502  0.14261804  1
  Al  Al2  1  0.77475309  0.09221774  0.82610266  1
  Al  Al3  1  0.88672979  0.20244341  0.56857184  1
  Al  Al4  1  0.44922198  0.09015827  0.38178759  1
  Al  Al5  1  0.56220075  0.20136159  0.08447116  1
  Al  Al6  1  0.10552820  0.09175715  0.82200588  1
  Al  Al7  1  0.22753996  0.20726512  0.64028636  1
  Al  Al8  1  0.88795513  0.20447180  0.07550961  1
  Al  Al9  1  0.44405019  0.08447482  0.89914283  1
  Al  Al10  1  0.56381833  0.20585728  0.56676380  1
  Al  Al11  1  0.11193858  0.42385211  0.38735826  1
  Al  Al12  1  0.22696196  0.54232770  0.07246934  1
  Al  Al13  1  0.77588686  0.42492748  0.82200945  1
  Al  Al14  1  0.88718748  0.54239689  0.62066746  1
  Al  Al15  1  0.45062528  0.42524449  0.32070125  1
  Al  Al16  1  0.55778789  0.54377036  0.06926872  1
  Al  Al17  1  0.10754120  0.42424033  0.89285149  1
  Al  Al18  1  0.22496798  0.54264269  0.57272274  1
  Al  Al19  1  0.77383129  0.42047086  0.32106384  1
  Al  Al20  1  0.88649850  0.54370178  0.13706211  1
  Al  Al21  1  0.44481114  0.42350067  0.82336840  1
  Al  Al22  1  0.55425206  0.54019178  0.57017598  1
  Al  Al23  1  0.11013652  0.76601814  0.32049072  1
  Al  Al24  1  0.22753475  0.87432778  0.06969967  1
  Al  Al25  1  0.76722819  0.76146041  0.90063548  1
  Al  Al26  1  0.88868084  0.88103618  0.56530641  1
  Al  Al27  1  0.44410833  0.76053040  0.31579946  1
  Al  Al28  1  0.10572707  0.76180341  0.82333178  1
  Al  Al29  1  0.22273265  0.87343751  0.57049859  1
  Al  Al30  1  0.77386518  0.76751542  0.37581461  1
  Al  Al31  1  0.88524900  0.87920634  0.08544531  1
  Al  Al32  1  0.44087006  0.75755765  0.82038293  1
  Al  Al33  1  0.55926398  0.87656800  0.63879762  1
  B  B34  1  0.77899356  0.09569322  0.31887633  1
  B  B35  1  0.55732744  0.87520166  0.14934757  1
  N  N36  1  0.22605680  0.20561948  0.33071330  1
  N  N37  1  0.10801780  0.09132106  0.13152221  1
  N  N38  1  0.88634380  0.20441723  0.88613649  1
  N  N39  1  0.77645342  0.09311612  0.63833364  1
  N  N40  1  0.58498370  0.19604695  0.37355026  1
  N  N41  1  0.45655559  0.06466996  0.09066650  1
  N  N42  1  0.22735987  0.20538401  0.83193061  1
  N  N43  1  0.10623979  0.09339763  0.63012058  1
  N  N44  1  0.87713154  0.19377309  0.37731684  1
  N  N45  1  0.77855598  0.09597885  0.15666873  1
  N  N46  1  0.55742008  0.20622351  0.89245968  1
  N  N47  1  0.44331658  0.09198496  0.57175243  1
  N  N48  1  0.22745438  0.54294940  0.38139264  1
  N  N49  1  0.11170407  0.42337363  0.08419137  1
  N  N50  1  0.88691163  0.54296126  0.84241648  1
  N  N51  1  0.77503226  0.42321154  0.62891247  1
  N  N52  1  0.55527052  0.54207430  0.38229965  1
  N  N53  1  0.44600867  0.42887796  0.13369888  1
  N  N54  1  0.22463893  0.54163625  0.88151653  1
  N  N55  1  0.10968252  0.42429026  0.57855681  1
  N  N56  1  0.89124164  0.53995046  0.33327175  1
  N  N57  1  0.77435180  0.42415878  0.13198320  1
  N  N58  1  0.55484281  0.53799498  0.88147163  1
  N  N59  1  0.44554427  0.42416286  0.63275596  1
  N  N60  1  0.22569447  0.87171544  0.38241942  1
  N  N61  1  0.11322085  0.76161509  0.13361989  1
  N  N62  1  0.88881595  0.87530627  0.89335591  1
  N  N63  1  0.77246046  0.76284328  0.56729790  1
  N  N64  1  0.55946811  0.87849040  0.30896658  1
  N  N65  1  0.45357274  0.76972173  0.12619530  1
  N  N66  1  0.22120605  0.87172469  0.88194640  1
  N  N67  1  0.10665697  0.76344049  0.63236747  1
  N  N68  1  0.88064057  0.90168116  0.37192192  1
  N  N69  1  0.74861008  0.77408274  0.09368165  1
  N  N70  1  0.55810436  0.87484871  0.82622477  1
  N  N71  1  0.44149840  0.75873840  0.63009635  1
