# generated using pymatgen
data_Al17BN18
_symmetry_space_group_name_H-M   'P 1'
_cell_length_a   9.32689846
_cell_length_b   9.30719608
_cell_length_c   10.06634777
_cell_angle_alpha   89.68575669
_cell_angle_beta   89.96051061
_cell_angle_gamma   59.92589998
_symmetry_Int_Tables_number   1
_chemical_formula_structural   Al17BN18
_chemical_formula_sum   'Al34 B2 N36'
_cell_volume   756.18167460
_cell_formula_units_Z   2
loop_
 _symmetry_equiv_pos_site_id
 _symmetry_equiv_pos_as_xyz
  1  'x, y, z'
loop_
 _atom_site_type_symbol
 _atom_site_label
 _atom_site_symmetry_multiplicity
 _atom_site_fract_x
 _atom_site_fract_y
 _atom_site_fract_z
 _atom_site_occupancy
  Al  Al0  1  0.10421770  0.09355492  0.32245711  1
  Al  Al1  1  0.21856729  0.20390968  0.08175736  1
  Al  Al2  1  0.77731804  0.09397666  0.82672452  1
  Al  Al3  1  0.88683598  0.20286097  0.57063492  1
  Al  Al4  1  0.44897351  0.09306616  0.38013019  1
  Al  Al5  1  0.56194989  0.20184368  0.08979125  1
  Al  Al6  1  0.11148402  0.09468391  0.82483534  1
  Al  Al7  1  0.21639048  0.20812223  0.57057683  1
  Al  Al8  1  0.88672802  0.20496818  0.07856138  1
  Al  Al9  1  0.45455502  0.07774118  0.90394202  1
  Al  Al10  1  0.56545520  0.20589204  0.56824350  1
  Al  Al11  1  0.10815861  0.43136950  0.32150692  1
  Al  Al12  1  0.22175046  0.54010167  0.07265640  1
  Al  Al13  1  0.77912452  0.42559940  0.82335491  1
  Al  Al14  1  0.88924957  0.53925488  0.57218598  1
  Al  Al15  1  0.44852996  0.42676456  0.32265517  1
  Al  Al16  1  0.55674455  0.54448619  0.07258894  1
  Al  Al17  1  0.11455431  0.42356351  0.82489910  1
  Al  Al18  1  0.22285511  0.53790315  0.57482179  1
  Al  Al19  1  0.77558944  0.42538382  0.32295930  1
  Al  Al20  1  0.88091061  0.54555517  0.07290950  1
  Al  Al21  1  0.44703504  0.42191048  0.82572452  1
  Al  Al22  1  0.55580481  0.53905378  0.57263387  1
  Al  Al23  1  0.10694017  0.76659824  0.32281263  1
  Al  Al24  1  0.22628058  0.87329199  0.07298433  1
  Al  Al25  1  0.78656708  0.75754791  0.82426913  1
  Al  Al26  1  0.88722828  0.87713560  0.56865035  1
  Al  Al27  1  0.44017741  0.76046752  0.32051653  1
  Al  Al28  1  0.11022940  0.76156128  0.82380690  1
  Al  Al29  1  0.22198539  0.87181710  0.57246730  1
  Al  Al30  1  0.77922186  0.76687237  0.32080391  1
  Al  Al31  1  0.88224828  0.87603829  0.07991237  1
  Al  Al32  1  0.44200646  0.75667778  0.82359807  1
  Al  Al33  1  0.55307094  0.87965152  0.64022282  1
  B  B34  1  0.77822592  0.09679631  0.32022481  1
  B  B35  1  0.55144443  0.87817375  0.15720314  1
  N  N36  1  0.21163431  0.21030036  0.37788027  1
  N  N37  1  0.10868180  0.09299071  0.13519818  1
  N  N38  1  0.88914847  0.20362796  0.88756239  1
  N  N39  1  0.77879797  0.09353407  0.63857814  1
  N  N40  1  0.58393521  0.19733802  0.37257792  1
  N  N41  1  0.45838534  0.06491127  0.09971186  1
  N  N42  1  0.22184620  0.20397125  0.88869906  1
  N  N43  1  0.10976613  0.09475342  0.63320713  1
  N  N44  1  0.87587662  0.19400010  0.37767330  1
  N  N45  1  0.78056050  0.09394604  0.15707138  1
  N  N46  1  0.56090800  0.20408212  0.89521967  1
  N  N47  1  0.44809820  0.09210611  0.57393350  1
  N  N48  1  0.22238154  0.53898875  0.38409898  1
  N  N49  1  0.10804897  0.43134689  0.13281295  1
  N  N50  1  0.89050498  0.53659717  0.88334555  1
  N  N51  1  0.77923378  0.42580084  0.63172908  1
  N  N52  1  0.55476767  0.54094612  0.38352730  1
  N  N53  1  0.44354597  0.43120394  0.13446161  1
  N  N54  1  0.22343374  0.53772643  0.88275596  1
  N  N55  1  0.11192398  0.42619759  0.63463058  1
  N  N56  1  0.88596643  0.54210533  0.38220367  1
  N  N57  1  0.77725715  0.42826543  0.13422245  1
  N  N58  1  0.55687625  0.53619815  0.88334168  1
  N  N59  1  0.44684392  0.42426485  0.63378682  1
  N  N60  1  0.22134540  0.87246005  0.38347043  1
  N  N61  1  0.11088864  0.76200470  0.13360088  1
  N  N62  1  0.88969917  0.87275874  0.88919737  1
  N  N63  1  0.78582921  0.75915818  0.62912415  1
  N  N64  1  0.54985590  0.88017696  0.31951744  1
  N  N65  1  0.45312198  0.77077694  0.12925584  1
  N  N66  1  0.22227089  0.87136244  0.88373932  1
  N  N67  1  0.10937551  0.76189321  0.63241747  1
  N  N68  1  0.87622437  0.89795039  0.37634111  1
  N  N69  1  0.75788388  0.77160794  0.12999015  1
  N  N70  1  0.55626683  0.87304502  0.83068838  1
  N  N71  1  0.44150241  0.75826930  0.63057803  1
