# generated using pymatgen
data_Al17BN18
_symmetry_space_group_name_H-M   'P 1'
_cell_length_a   9.29940320
_cell_length_b   9.29940370
_cell_length_c   9.93904350
_cell_angle_alpha   90.02509726
_cell_angle_beta   90.02508807
_cell_angle_gamma   60.01364189
_symmetry_Int_Tables_number   1
_chemical_formula_structural   Al17BN18
_chemical_formula_sum   'Al34 B2 N36'
_cell_volume   744.46627924
_cell_formula_units_Z   2
loop_
 _symmetry_equiv_pos_site_id
 _symmetry_equiv_pos_as_xyz
  1  'x, y, z'
loop_
 _atom_site_type_symbol
 _atom_site_label
 _atom_site_symmetry_multiplicity
 _atom_site_fract_x
 _atom_site_fract_y
 _atom_site_fract_z
 _atom_site_occupancy
  Al  Al0  1  0.10765185  0.09281634  0.40340404  1
  Al  Al1  1  0.22551681  0.20064958  0.15309225  1
  Al  Al2  1  0.77758845  0.09425671  0.90078134  1
  Al  Al3  1  0.88762634  0.20429338  0.64631820  1
  Al  Al4  1  0.45068326  0.09059989  0.39653225  1
  Al  Al5  1  0.56258649  0.19783758  0.15732309  1
  Al  Al6  1  0.10957762  0.09508109  0.90251050  1
  Al  Al7  1  0.22422414  0.20423444  0.65260460  1
  Al  Al8  1  0.88608885  0.20275581  0.15726867  1
  Al  Al9  1  0.44827099  0.08976074  0.90676067  1
  Al  Al10  1  0.55751888  0.20331121  0.64579983  1
  Al  Al11  1  0.11093569  0.42760223  0.40354933  1
  Al  Al12  1  0.22204428  0.53871287  0.15371008  1
  Al  Al13  1  0.77841404  0.42624457  0.90251071  1
  Al  Al14  1  0.88756792  0.54089051  0.65260469  1
  Al  Al15  1  0.44997018  0.42412222  0.40282797  1
  Al  Al16  1  0.55734096  0.54219344  0.15266413  1
  Al  Al17  1  0.11120197  0.42786857  0.90301977  1
  Al  Al18  1  0.22244588  0.53911368  0.65277494  1
  Al  Al19  1  0.77614747  0.42432070  0.40340401  1
  Al  Al20  1  0.88398302  0.54218327  0.15309227  1
  Al  Al21  1  0.44527229  0.42603993  0.90261974  1
  Al  Al22  1  0.55482414  0.54072307  0.65317200  1
  Al  Al23  1  0.10745348  0.76663816  0.40282785  1
  Al  Al24  1  0.22552581  0.87400846  0.15266423  1
  Al  Al25  1  0.77309377  0.76493774  0.90676065  1
  Al  Al26  1  0.88664387  0.87418662  0.64579996  1
  Al  Al27  1  0.44580347  0.76247270  0.39671199  1
  Al  Al28  1  0.10937165  0.76194087  0.90261980  1
  Al  Al29  1  0.22405652  0.87149073  0.65317171  1
  Al  Al30  1  0.77393276  0.76734987  0.39653227  1
  Al  Al31  1  0.88116861  0.87925464  0.15732299  1
  Al  Al32  1  0.44737445  0.76404197  0.90724755  1
  Al  Al33  1  0.55565917  0.87232520  0.65139836  1
  B  B34  1  0.77778116  0.09444939  0.40657618  1
  B  B35  1  0.55588662  0.87255391  0.15733193  1
  N  N36  1  0.22202737  0.20495982  0.34383966  1
  N  N37  1  0.10802751  0.09601693  0.09452185  1
  N  N38  1  0.88797159  0.20463876  0.83862590  1
  N  N39  1  0.77770995  0.09437778  0.57239764  1
  N  N40  1  0.58118901  0.19300005  0.35060134  1
  N  N41  1  0.45787584  0.07063511  0.10250060  1
  N  N42  1  0.22481724  0.20404664  0.84572671  1
  N  N43  1  0.11203506  0.09377765  0.59400045  1
  N  N44  1  0.87644292  0.19311147  0.35144326  1
  N  N45  1  0.77797147  0.09463978  0.08928683  1
  N  N46  1  0.55602264  0.20362230  0.83996506  1
  N  N47  1  0.44524826  0.09229322  0.58821782  1
  N  N48  1  0.22253799  0.53920591  0.34490232  1
  N  N49  1  0.11072426  0.42739106  0.09435585  1
  N  N50  1  0.88737985  0.54148393  0.84572687  1
  N  N51  1  0.77711055  0.42870211  0.59400035  1
  N  N52  1  0.55572872  0.53907386  0.34254976  1
  N  N53  1  0.44602278  0.42492030  0.09564553  1
  N  N54  1  0.22242940  0.53909777  0.84427425  1
  N  N55  1  0.11091728  0.42758386  0.59492873  1
  N  N56  1  0.88829290  0.53869422  0.34383968  1
  N  N57  1  0.77934957  0.42469464  0.09452211  1
  N  N58  1  0.55439163  0.54102545  0.84605220  1
  N  N59  1  0.44487704  0.42812759  0.59373212  1
  N  N60  1  0.22240488  0.87239735  0.34254984  1
  N  N61  1  0.10825169  0.76269121  0.09564558  1
  N  N62  1  0.88695419  0.87269079  0.83996517  1
  N  N63  1  0.77562687  0.76191481  0.58821786  1
  N  N64  1  0.55546386  0.87213132  0.32177179  1
  N  N65  1  0.45720096  0.77386864  0.10080008  1
  N  N66  1  0.22435811  0.87105900  0.84605197  1
  N  N67  1  0.11146005  0.76154467  0.59373196  1
  N  N68  1  0.87633141  0.89785722  0.35060130  1
  N  N69  1  0.75396761  0.77454284  0.10250060  1
  N  N70  1  0.55581553  0.87248263  0.84045044  1
  N  N71  1  0.44533144  0.76199828  0.58943535  1
