# generated using pymatgen
data_Al17BN18
_symmetry_space_group_name_H-M   'P 1'
_cell_length_a   9.32734474
_cell_length_b   9.30780688
_cell_length_c   10.06418167
_cell_angle_alpha   89.67183454
_cell_angle_beta   89.95816376
_cell_angle_gamma   59.92551094
_symmetry_Int_Tables_number   1
_chemical_formula_structural   Al17BN18
_chemical_formula_sum   'Al34 B2 N36'
_cell_volume   756.10057490
_cell_formula_units_Z   2
loop_
 _symmetry_equiv_pos_site_id
 _symmetry_equiv_pos_as_xyz
  1  'x, y, z'
loop_
 _atom_site_type_symbol
 _atom_site_label
 _atom_site_symmetry_multiplicity
 _atom_site_fract_x
 _atom_site_fract_y
 _atom_site_fract_z
 _atom_site_occupancy
  Al  Al0  1  0.10699080  0.09346111  0.39605568  1
  Al  Al1  1  0.22638820  0.20019103  0.14633390  1
  Al  Al2  1  0.78032048  0.08699527  0.82914045  1
  Al  Al3  1  0.89135610  0.20994152  0.64564717  1
  Al  Al4  1  0.45119658  0.09071008  0.38913765  1
  Al  Al5  1  0.55414624  0.19990942  0.14810807  1
  Al  Al6  1  0.11146825  0.09479475  0.89666722  1
  Al  Al7  1  0.22317216  0.20503981  0.64523846  1
  Al  Al8  1  0.89312614  0.20631740  0.14838264  1
  Al  Al9  1  0.44613050  0.08944739  0.90051569  1
  Al  Al10  1  0.54684420  0.20906307  0.64501586  1
  Al  Al11  1  0.11160507  0.42664256  0.39643959  1
  Al  Al12  1  0.22510299  0.53548649  0.14760305  1
  Al  Al13  1  0.77755221  0.42761738  0.89650653  1
  Al  Al14  1  0.88636052  0.54464640  0.64333051  1
  Al  Al15  1  0.45248092  0.42114168  0.39614251  1
  Al  Al16  1  0.55772152  0.54144561  0.14616888  1
  Al  Al17  1  0.11055147  0.42868827  0.89425924  1
  Al  Al18  1  0.21889127  0.54298336  0.64416669  1
  Al  Al19  1  0.77661615  0.42221701  0.39645392  1
  Al  Al20  1  0.88478903  0.54008929  0.14644324  1
  Al  Al21  1  0.44413149  0.42740836  0.89699010  1
  Al  Al22  1  0.55426092  0.54100693  0.64571414  1
  Al  Al23  1  0.11469044  0.76290900  0.38740845  1
  Al  Al24  1  0.22907843  0.87321031  0.14662240  1
  Al  Al25  1  0.76794200  0.76063699  0.90069194  1
  Al  Al26  1  0.87881205  0.88893803  0.56541713  1
  Al  Al27  1  0.44661653  0.76179273  0.39052043  1
  Al  Al28  1  0.11709435  0.75840291  0.89835679  1
  Al  Al29  1  0.22190537  0.87196802  0.64424240  1
  Al  Al30  1  0.77144016  0.76496578  0.37936373  1
  Al  Al31  1  0.88435443  0.87368769  0.08863612  1
  Al  Al32  1  0.44654149  0.76376935  0.89846621  1
  Al  Al33  1  0.55604626  0.87266965  0.64235359  1
  B  B34  1  0.78186887  0.08865850  0.31183291  1
  B  B35  1  0.55510480  0.87001668  0.14887809  1
  N  N36  1  0.22247711  0.20474359  0.33555843  1
  N  N37  1  0.11204067  0.09431918  0.08566910  1
  N  N38  1  0.89188795  0.20835880  0.83872732  1
  N  N39  1  0.77710823  0.09360232  0.63863268  1
  N  N40  1  0.57557028  0.19513143  0.33895081  1
  N  N41  1  0.45707647  0.06880863  0.09281914  1
  N  N42  1  0.22403654  0.20471583  0.83667133  1
  N  N43  1  0.11103641  0.09530930  0.58535838  1
  N  N44  1  0.88015151  0.19597000  0.33967280  1
  N  N45  1  0.78347050  0.08662586  0.14911624  1
  N  N46  1  0.54757473  0.20745339  0.84023179  1
  N  N47  1  0.44373903  0.09391062  0.57990827  1
  N  N48  1  0.22526032  0.53546963  0.33633348  1
  N  N49  1  0.11095210  0.42779530  0.08501974  1
  N  N50  1  0.88657113  0.54226204  0.83527616  1
  N  N51  1  0.77651827  0.43037450  0.58575397  1
  N  N52  1  0.55607763  0.53851622  0.33491645  1
  N  N53  1  0.44729828  0.42478235  0.08696722  1
  N  N54  1  0.22154943  0.54031626  0.83444864  1
  N  N55  1  0.10995526  0.42889432  0.58635221  1
  N  N56  1  0.88978883  0.53560425  0.33467323  1
  N  N57  1  0.77852956  0.42593987  0.08561427  1
  N  N58  1  0.55414118  0.54083647  0.83738144  1
  N  N59  1  0.44293130  0.42995700  0.58576237  1
  N  N60  1  0.22463304  0.87375657  0.33392201  1
  N  N61  1  0.12165792  0.75651289  0.09110913  1
  N  N62  1  0.88543470  0.87422602  0.89480088  1
  N  N63  1  0.77249749  0.76255104  0.57395898  1
  N  N64  1  0.55283888  0.87279605  0.31205230  1
  N  N65  1  0.45742966  0.77279748  0.09144819  1
  N  N66  1  0.22364184  0.87189420  0.83588492  1
  N  N67  1  0.11153824  0.76265188  0.58049649  1
  N  N68  1  0.87488444  0.90200748  0.36949009  1
  N  N69  1  0.74937961  0.76948455  0.09641822  1
  N  N70  1  0.55454159  0.87311026  0.83051368  1
  N  N71  1  0.44423164  0.76301987  0.58154006  1
