# generated using pymatgen
data_Al17BN18
_symmetry_space_group_name_H-M   'P 1'
_cell_length_a   9.32723340
_cell_length_b   9.31081930
_cell_length_c   10.04837300
_cell_angle_alpha   89.60518150
_cell_angle_beta   89.94885892
_cell_angle_gamma   59.93037057
_symmetry_Int_Tables_number   1
_chemical_formula_structural   Al17BN18
_chemical_formula_sum   'Al34 B2 N36'
_cell_volume   755.17876258
_cell_formula_units_Z   2
loop_
 _symmetry_equiv_pos_site_id
 _symmetry_equiv_pos_as_xyz
  1  'x, y, z'
loop_
 _atom_site_type_symbol
 _atom_site_label
 _atom_site_symmetry_multiplicity
 _atom_site_fract_x
 _atom_site_fract_y
 _atom_site_fract_z
 _atom_site_occupancy
  Al  Al0  1  0.10652714  0.09337297  0.39604996  1
  Al  Al1  1  0.22610013  0.20081907  0.14692838  1
  Al  Al2  1  0.78020369  0.08747564  0.83464617  1
  Al  Al3  1  0.89135997  0.20925539  0.64763280  1
  Al  Al4  1  0.45186183  0.09059443  0.38916548  1
  Al  Al5  1  0.55608478  0.19959979  0.14630593  1
  Al  Al6  1  0.11196630  0.09444582  0.89779289  1
  Al  Al7  1  0.22352777  0.20443933  0.64547763  1
  Al  Al8  1  0.89136760  0.20594784  0.14643735  1
  Al  Al9  1  0.44607689  0.08890981  0.90158455  1
  Al  Al10  1  0.54764546  0.20834180  0.64716230  1
  Al  Al11  1  0.11151917  0.42689046  0.39703207  1
  Al  Al12  1  0.22415281  0.53665595  0.14790511  1
  Al  Al13  1  0.77767727  0.42734750  0.89774835  1
  Al  Al14  1  0.88672350  0.54334598  0.64371860  1
  Al  Al15  1  0.45262210  0.42147677  0.39623615  1
  Al  Al16  1  0.55733596  0.54217385  0.14657358  1
  Al  Al17  1  0.11084668  0.42807566  0.89459564  1
  Al  Al18  1  0.21988570  0.54171255  0.64456730  1
  Al  Al19  1  0.77620633  0.42250847  0.39646503  1
  Al  Al20  1  0.88450972  0.54123820  0.14676909  1
  Al  Al21  1  0.44427792  0.42711528  0.89827848  1
  Al  Al22  1  0.55462952  0.54033294  0.64612706  1
  Al  Al23  1  0.11391381  0.76385190  0.38864388  1
  Al  Al24  1  0.22842685  0.87363900  0.14676489  1
  Al  Al25  1  0.76824857  0.75913496  0.89952124  1
  Al  Al26  1  0.87939195  0.88789094  0.57032060  1
  Al  Al27  1  0.44647185  0.76210689  0.39087674  1
  Al  Al28  1  0.11811788  0.75698011  0.89730550  1
  Al  Al29  1  0.22217301  0.87186758  0.64474275  1
  Al  Al30  1  0.77137873  0.76586266  0.38062719  1
  Al  Al31  1  0.88365629  0.87472021  0.08471087  1
  Al  Al32  1  0.44661625  0.76344937  0.89899349  1
  Al  Al33  1  0.55600185  0.87252050  0.64276251  1
  B  B34  1  0.78026660  0.09156389  0.32047849  1
  B  B35  1  0.55492126  0.87085435  0.14912843  1
  N  N36  1  0.22239591  0.20507496  0.33635904  1
  N  N37  1  0.11193665  0.09498842  0.08697549  1
  N  N38  1  0.89251695  0.20839597  0.84023852  1
  N  N39  1  0.77734658  0.09328399  0.64168990  1
  N  N40  1  0.57888732  0.19410850  0.33867771  1
  N  N41  1  0.45656515  0.06926329  0.09409688  1
  N  N42  1  0.22436523  0.20411484  0.83718428  1
  N  N43  1  0.11064481  0.09523157  0.58554084  1
  N  N44  1  0.87792456  0.19493134  0.33934239  1
  N  N45  1  0.78132510  0.09067465  0.13269432  1
  N  N46  1  0.54704010  0.20737697  0.84185640  1
  N  N47  1  0.44440073  0.09383683  0.58011709  1
  N  N48  1  0.22480373  0.53619005  0.33705515  1
  N  N49  1  0.11069968  0.42831875  0.08554491  1
  N  N50  1  0.88692351  0.54072847  0.83550691  1
  N  N51  1  0.77690343  0.42927716  0.58590869  1
  N  N52  1  0.55580088  0.53908198  0.33547441  1
  N  N53  1  0.44620740  0.42614125  0.08832869  1
  N  N54  1  0.22268030  0.53883664  0.83475557  1
  N  N55  1  0.11027509  0.42837700  0.58694467  1
  N  N56  1  0.88959989  0.53628314  0.33539683  1
  N  N57  1  0.77828305  0.42722657  0.08692367  1
  N  N58  1  0.55435061  0.54038041  0.83810095  1
  N  N59  1  0.44374431  0.42883036  0.58599837  1
  N  N60  1  0.22432977  0.87387923  0.33443522  1
  N  N61  1  0.12065066  0.75750948  0.09068798  1
  N  N62  1  0.88763227  0.86955664  0.88988376  1
  N  N63  1  0.77290960  0.76177443  0.57507373  1
  N  N64  1  0.55311305  0.87292027  0.31271453  1
  N  N65  1  0.45702853  0.77340182  0.09203121  1
  N  N66  1  0.22391256  0.87178185  0.83639210  1
  N  N67  1  0.11214880  0.76186061  0.58159227  1
  N  N68  1  0.87333940  0.90508207  0.37151558  1
  N  N69  1  0.74912786  0.77050474  0.09600001  1
  N  N70  1  0.55421346  0.87296617  0.83092756  1
  N  N71  1  0.44445236  0.76266081  0.58203660  1
