# generated using pymatgen
data_Al17BN18
_symmetry_space_group_name_H-M   'P 1'
_cell_length_a   9.35417291
_cell_length_b   9.34425328
_cell_length_c   10.11566728
_cell_angle_alpha   89.66625171
_cell_angle_beta   89.68063161
_cell_angle_gamma   59.93575880
_symmetry_Int_Tables_number   1
_chemical_formula_structural   Al17BN18
_chemical_formula_sum   'Al34 B2 N36'
_cell_volume   765.21636862
_cell_formula_units_Z   2
loop_
 _symmetry_equiv_pos_site_id
 _symmetry_equiv_pos_as_xyz
  1  'x, y, z'
loop_
 _atom_site_type_symbol
 _atom_site_label
 _atom_site_symmetry_multiplicity
 _atom_site_fract_x
 _atom_site_fract_y
 _atom_site_fract_z
 _atom_site_occupancy
  Al  Al0  1  0.10270749  0.09290136  0.32077469  1
  Al  Al1  1  0.22911376  0.20425925  0.14003140  1
  Al  Al2  1  0.77640307  0.09227407  0.82277488  1
  Al  Al3  1  0.88620466  0.20485976  0.56608145  1
  Al  Al4  1  0.44946515  0.08743282  0.37728191  1
  Al  Al5  1  0.56270791  0.20018975  0.08174458  1
  Al  Al6  1  0.10861753  0.09098301  0.82155958  1
  Al  Al7  1  0.22917361  0.20748637  0.63740898  1
  Al  Al8  1  0.88768310  0.20512179  0.07297631  1
  Al  Al9  1  0.44506662  0.08512806  0.89599174  1
  Al  Al10  1  0.56469003  0.20475451  0.56305164  1
  Al  Al11  1  0.10827469  0.42504714  0.39035340  1
  Al  Al12  1  0.22482713  0.54155211  0.06843538  1
  Al  Al13  1  0.78112666  0.42152014  0.82373219  1
  Al  Al14  1  0.89097933  0.54552508  0.63677809  1
  Al  Al15  1  0.44484161  0.42127140  0.31990458  1
  Al  Al16  1  0.55344020  0.54857773  0.13713441  1
  Al  Al17  1  0.10808981  0.42432315  0.88872476  1
  Al  Al18  1  0.22535316  0.54173525  0.57037925  1
  Al  Al19  1  0.77995039  0.41774868  0.32187961  1
  Al  Al20  1  0.88789040  0.54539872  0.13883446  1
  Al  Al21  1  0.44184261  0.42101012  0.82280294  1
  Al  Al22  1  0.55266250  0.54468064  0.63668781  1
  Al  Al23  1  0.10653748  0.76440449  0.32009649  1
  Al  Al24  1  0.22432721  0.87442466  0.09161824  1
  Al  Al25  1  0.76956693  0.76194253  0.89579543  1
  Al  Al26  1  0.88741855  0.88170889  0.56343932  1
  Al  Al27  1  0.44894667  0.76044398  0.38363757  1
  Al  Al28  1  0.10809843  0.76177517  0.82228894  1
  Al  Al29  1  0.21935849  0.87470893  0.58153332  1
  Al  Al30  1  0.77122803  0.76639466  0.37708049  1
  Al  Al31  1  0.88353234  0.87947293  0.08203837  1
  Al  Al32  1  0.44984270  0.76106850  0.89249875  1
  Al  Al33  1  0.55756871  0.87396681  0.63694318  1
  B  B34  1  0.77792679  0.09449494  0.31616754  1
  B  B35  1  0.55539276  0.87154693  0.14337448  1
  N  N36  1  0.22493516  0.20853247  0.32910577  1
  N  N37  1  0.10626807  0.09590924  0.13027324  1
  N  N38  1  0.88849987  0.20291728  0.88434594  1
  N  N39  1  0.77723942  0.09440930  0.63529791  1
  N  N40  1  0.58455152  0.19342958  0.37026742  1
  N  N41  1  0.45625741  0.06530104  0.08876050  1
  N  N42  1  0.22892810  0.20576499  0.82939205  1
  N  N43  1  0.10618928  0.09616826  0.62780326  1
  N  N44  1  0.87645688  0.19335649  0.37563048  1
  N  N45  1  0.77893061  0.09589170  0.15388807  1
  N  N46  1  0.55967454  0.20451333  0.88993569  1
  N  N47  1  0.44491453  0.09048591  0.56913075  1
  N  N48  1  0.22454858  0.54221953  0.38068838  1
  N  N49  1  0.10838368  0.42468892  0.07838371  1
  N  N50  1  0.88993499  0.54554945  0.82967563  1
  N  N51  1  0.78194776  0.42242239  0.62534357  1
  N  N52  1  0.55251593  0.54290805  0.33230219  1
  N  N53  1  0.44081357  0.42497165  0.12998609  1
  N  N54  1  0.22361698  0.54151465  0.87889321  1
  N  N55  1  0.10895018  0.42564847  0.57987570  1
  N  N56  1  0.89207858  0.54165205  0.32869141  1
  N  N57  1  0.78087831  0.42315685  0.12557693  1
  N  N58  1  0.55174821  0.54356268  0.83423501  1
  N  N59  1  0.44330126  0.42091782  0.62966181  1
  N  N60  1  0.21976274  0.87307043  0.36894139  1
  N  N61  1  0.10986342  0.75895289  0.13253207  1
  N  N62  1  0.88942798  0.87540362  0.88971411  1
  N  N63  1  0.77441716  0.76178277  0.56928378  1
  N  N64  1  0.55475742  0.87126714  0.30496614  1
  N  N65  1  0.45947069  0.77328114  0.08594443  1
  N  N66  1  0.22184522  0.87104135  0.87282280  1
  N  N67  1  0.10630294  0.76201922  0.63056778  1
  N  N68  1  0.87664811  0.90142942  0.37011995  1
  N  N69  1  0.74934593  0.77328270  0.08875242  1
  N  N70  1  0.55657852  0.87239831  0.82387215  1
  N  N71  1  0.45026261  0.76128787  0.57510521  1
