# generated using pymatgen
data_Al17BN18
_symmetry_space_group_name_H-M   'P 1'
_cell_length_a   9.32655468
_cell_length_b   9.32497381
_cell_length_c   10.11407027
_cell_angle_alpha   89.61003445
_cell_angle_beta   89.59868800
_cell_angle_gamma   60.03231061
_symmetry_Int_Tables_number   1
_chemical_formula_structural   Al17BN18
_chemical_formula_sum   'Al34 B2 N36'
_cell_volume   761.99644970
_cell_formula_units_Z   2
loop_
 _symmetry_equiv_pos_site_id
 _symmetry_equiv_pos_as_xyz
  1  'x, y, z'
loop_
 _atom_site_type_symbol
 _atom_site_label
 _atom_site_symmetry_multiplicity
 _atom_site_fract_x
 _atom_site_fract_y
 _atom_site_fract_z
 _atom_site_occupancy
  Al  Al0  1  0.10574380  0.09231737  0.38922682  1
  Al  Al1  1  0.22302695  0.20062346  0.13847503  1
  Al  Al2  1  0.77425495  0.08999353  0.81981770  1
  Al  Al3  1  0.89244268  0.20935932  0.63837693  1
  Al  Al4  1  0.44799339  0.08724104  0.37299796  1
  Al  Al5  1  0.56021981  0.19712143  0.08516586  1
  Al  Al6  1  0.11060279  0.09315421  0.88838554  1
  Al  Al7  1  0.22772620  0.20489669  0.63553871  1
  Al  Al8  1  0.88925806  0.20636967  0.14301681  1
  Al  Al9  1  0.44462380  0.08546528  0.89336830  1
  Al  Al10  1  0.56720287  0.20313844  0.55812259  1
  Al  Al11  1  0.10588151  0.42433633  0.38590258  1
  Al  Al12  1  0.21807357  0.54445338  0.07352826  1
  Al  Al13  1  0.77972077  0.42637266  0.88842532  1
  Al  Al14  1  0.88831188  0.54319297  0.63540772  1
  Al  Al15  1  0.44882046  0.42470249  0.34224333  1
  Al  Al16  1  0.55909075  0.54575429  0.13824559  1
  Al  Al17  1  0.10846963  0.42389444  0.88579053  1
  Al  Al18  1  0.22440306  0.54321110  0.56547018  1
  Al  Al19  1  0.77594930  0.42296131  0.38983884  1
  Al  Al20  1  0.88223028  0.54155254  0.13812595  1
  Al  Al21  1  0.44889366  0.42748996  0.87145844  1
  Al  Al22  1  0.55592481  0.53983599  0.63649853  1
  Al  Al23  1  0.10227325  0.76619129  0.31583975  1
  Al  Al24  1  0.22981370  0.87673285  0.13739402  1
  Al  Al25  1  0.76961890  0.76089982  0.89202659  1
  Al  Al26  1  0.88945501  0.88211243  0.55972179  1
  Al  Al27  1  0.44537530  0.76255099  0.38359836  1
  Al  Al28  1  0.10591134  0.75932306  0.81830871  1
  Al  Al29  1  0.22811398  0.87482360  0.63676100  1
  Al  Al30  1  0.77119812  0.76533356  0.37439844  1
  Al  Al31  1  0.88402708  0.87676307  0.07669404  1
  Al  Al32  1  0.44661080  0.76455518  0.89010513  1
  Al  Al33  1  0.55866189  0.87399960  0.63270010  1
  B  B34  1  0.77604765  0.09094245  0.30905277  1
  B  B35  1  0.55426759  0.87067447  0.14004836  1
  N  N36  1  0.22001512  0.20491878  0.32540198  1
  N  N37  1  0.10769016  0.09501166  0.07657593  1
  N  N38  1  0.89187579  0.20788435  0.82890029  1
  N  N39  1  0.77569533  0.09163941  0.63252290  1
  N  N40  1  0.58555290  0.19041582  0.36298158  1
  N  N41  1  0.45240390  0.06490798  0.08726704  1
  N  N42  1  0.22662603  0.20303313  0.82667616  1
  N  N43  1  0.11221198  0.09494249  0.57709078  1
  N  N44  1  0.87968910  0.19712853  0.33279401  1
  N  N45  1  0.77473978  0.08787959  0.14963886  1
  N  N46  1  0.56219612  0.20109167  0.89125924  1
  N  N47  1  0.44467374  0.09095029  0.56556117  1
  N  N48  1  0.21834779  0.54461975  0.37164408  1
  N  N49  1  0.10547312  0.42362353  0.07767802  1
  N  N50  1  0.88769233  0.54256910  0.82619440  1
  N  N51  1  0.77845138  0.42895420  0.57782974  1
  N  N52  1  0.55932914  0.54285711  0.32572501  1
  N  N53  1  0.44378977  0.42883114  0.11041851  1
  N  N54  1  0.22211403  0.54288942  0.87950767  1
  N  N55  1  0.10863403  0.42505532  0.57731459  1
  N  N56  1  0.88688631  0.53788246  0.32520488  1
  N  N57  1  0.77795347  0.42478207  0.07647448  1
  N  N58  1  0.55771246  0.54243745  0.82944787  1
  N  N59  1  0.44881849  0.42626371  0.59140426  1
  N  N60  1  0.22543454  0.87525762  0.32744294  1
  N  N61  1  0.10660556  0.76237666  0.12786835  1
  N  N62  1  0.89015712  0.87455273  0.88676216  1
  N  N63  1  0.77607202  0.76051252  0.56651884  1
  N  N64  1  0.55486120  0.87041103  0.30228482  1
  N  N65  1  0.45649715  0.77276680  0.08154949  1
  N  N66  1  0.22720471  0.87312958  0.82890280  1
  N  N67  1  0.10599556  0.76154741  0.62671696  1
  N  N68  1  0.87669794  0.90207391  0.36811331  1
  N  N69  1  0.74839224  0.77076525  0.08535053  1
  N  N70  1  0.55700835  0.87322846  0.82062668  1
  N  N71  1  0.44732864  0.76197952  0.57312490  1
