# generated using pymatgen
data_Al17BN18
_symmetry_space_group_name_H-M   'P 1'
_cell_length_a   9.31432763
_cell_length_b   9.31434378
_cell_length_c   10.12637776
_cell_angle_alpha   89.63527537
_cell_angle_beta   89.62789649
_cell_angle_gamma   60.07414589
_symmetry_Int_Tables_number   1
_chemical_formula_structural   Al17BN18
_chemical_formula_sum   'Al34 B2 N36'
_cell_volume   761.37838167
_cell_formula_units_Z   2
loop_
 _symmetry_equiv_pos_site_id
 _symmetry_equiv_pos_as_xyz
  1  'x, y, z'
loop_
 _atom_site_type_symbol
 _atom_site_label
 _atom_site_symmetry_multiplicity
 _atom_site_fract_x
 _atom_site_fract_y
 _atom_site_fract_z
 _atom_site_occupancy
  Al  Al0  1  0.10249278  0.09135671  0.32069839  1
  Al  Al1  1  0.22856952  0.20343117  0.14137630  1
  Al  Al2  1  0.77561081  0.09227144  0.82504864  1
  Al  Al3  1  0.88699842  0.20365931  0.56837127  1
  Al  Al4  1  0.44889265  0.08971253  0.37986993  1
  Al  Al5  1  0.56204128  0.20084289  0.08430158  1
  Al  Al6  1  0.10641041  0.09207505  0.82128829  1
  Al  Al7  1  0.22855468  0.20682374  0.63887365  1
  Al  Al8  1  0.88778150  0.20443918  0.07540263  1
  Al  Al9  1  0.44447333  0.08632289  0.89829805  1
  Al  Al10  1  0.56433260  0.20525498  0.56563244  1
  Al  Al11  1  0.10844632  0.42511463  0.39150496  1
  Al  Al12  1  0.22552739  0.54218197  0.07085250  1
  Al  Al13  1  0.77541747  0.42306754  0.82128833  1
  Al  Al14  1  0.89015545  0.54522336  0.63887563  1
  Al  Al15  1  0.44866785  0.42425165  0.32023606  1
  Al  Al16  1  0.55852399  0.54204550  0.07280294  1
  Al  Al17  1  0.10798355  0.42464905  0.88969742  1
  Al  Al18  1  0.22590456  0.54256454  0.57294724  1
  Al  Al19  1  0.77469863  0.41915085  0.32069791  1
  Al  Al20  1  0.88676535  0.54523365  0.14137496  1
  Al  Al21  1  0.44554930  0.42391838  0.82239876  1
  Al  Al22  1  0.55730782  0.53857268  0.57033588  1
  Al  Al23  1  0.10759048  0.76532750  0.32023522  1
  Al  Al24  1  0.22538614  0.87518388  0.07280242  1
  Al  Al25  1  0.76965526  0.76114134  0.89829888  1
  Al  Al26  1  0.88859629  0.88099018  0.56563342  1
  Al  Al27  1  0.44420941  0.76086819  0.32934854  1
  Al  Al28  1  0.10725910  0.76221026  0.82240072  1
  Al  Al29  1  0.22190960  0.87396954  0.57033540  1
  Al  Al30  1  0.77304619  0.76555800  0.37987134  1
  Al  Al31  1  0.88418559  0.87869840  0.08430325  1
  Al  Al32  1  0.44385077  0.76050774  0.83885013  1
  Al  Al33  1  0.55831724  0.87498616  0.63738031  1
  B  B34  1  0.77804872  0.09471695  0.31852551  1
  B  B35  1  0.55529324  0.87195017  0.14643396  1
  N  N36  1  0.22443828  0.20800587  0.33010688  1
  N  N37  1  0.10701213  0.09244560  0.13176552  1
  N  N38  1  0.88759931  0.20426707  0.88625425  1
  N  N39  1  0.77688247  0.09355293  0.63763831  1
  N  N40  1  0.58453125  0.19512113  0.37216743  1
  N  N41  1  0.45537189  0.06537805  0.08973941  1
  N  N42  1  0.22839128  0.20551033  0.83051972  1
  N  N43  1  0.10643320  0.09356213  0.63000739  1
  N  N44  1  0.87683782  0.19350608  0.37726583  1
  N  N45  1  0.77851932  0.09518424  0.15607819  1
  N  N46  1  0.55862451  0.20677942  0.89201377  1
  N  N47  1  0.44406897  0.09135789  0.57030445  1
  N  N48  1  0.22605732  0.54272816  0.38195760  1
  N  N49  1  0.10801562  0.42466931  0.07948172  1
  N  N50  1  0.88885483  0.54504673  0.83052194  1
  N  N51  1  0.77689084  0.42310497  0.63000688  1
  N  N52  1  0.55656682  0.53780281  0.38135943  1
  N  N53  1  0.44413889  0.42841033  0.13345158  1
  N  N54  1  0.22533281  0.54200338  0.88011776  1
  N  N55  1  0.10884135  0.42549869  0.58107093  1
  N  N56  1  0.89134885  0.54109521  0.33010542  1
  N  N57  1  0.77577530  0.42368080  0.13176492  1
  N  N58  1  0.55666256  0.53662076  0.88382923  1
  N  N59  1  0.44685857  0.42365360  0.63237547  1
  N  N60  1  0.22113483  0.87323464  0.38135842  1
  N  N61  1  0.11174587  0.76080382  0.13345033  1
  N  N62  1  0.89010792  0.87529823  0.89201495  1
  N  N63  1  0.77470332  0.76072419  0.57030554  1
  N  N64  1  0.55950923  0.87616565  0.30793951  1
  N  N65  1  0.45449864  0.77116536  0.12007579  1
  N  N66  1  0.21995568  0.87333060  0.88382873  1
  N  N67  1  0.10698435  0.76352771  0.63237740  1
  N  N68  1  0.87845072  0.90119875  0.37216701  1
  N  N69  1  0.74872125  0.77202575  0.08973886  1
  N  N70  1  0.55921591  0.87586906  0.82563512  1
  N  N71  1  0.44343899  0.76011132  0.61848546  1
