# generated using pymatgen
data_Al17BN18
_symmetry_space_group_name_H-M   'P 1'
_cell_length_a   9.31811892
_cell_length_b   9.31075025
_cell_length_c   9.98559404
_cell_angle_alpha   89.74218388
_cell_angle_beta   89.94211662
_cell_angle_gamma   59.96851481
_symmetry_Int_Tables_number   1
_chemical_formula_structural   Al17BN18
_chemical_formula_sum   'Al34 B2 N36'
_cell_volume   750.02328415
_cell_formula_units_Z   2
loop_
 _symmetry_equiv_pos_site_id
 _symmetry_equiv_pos_as_xyz
  1  'x, y, z'
loop_
 _atom_site_type_symbol
 _atom_site_label
 _atom_site_symmetry_multiplicity
 _atom_site_fract_x
 _atom_site_fract_y
 _atom_site_fract_z
 _atom_site_occupancy
  Al  Al0  1  0.10591552  0.09275111  0.31217710  1
  Al  Al1  1  0.22640431  0.19873105  0.06579751  1
  Al  Al2  1  0.77795030  0.09366422  0.81598273  1
  Al  Al3  1  0.88661312  0.20292723  0.55987832  1
  Al  Al4  1  0.45104042  0.08952087  0.34392408  1
  Al  Al5  1  0.55970199  0.19752295  0.07325064  1
  Al  Al6  1  0.11041611  0.09436271  0.81397760  1
  Al  Al7  1  0.21831045  0.20837907  0.56383081  1
  Al  Al8  1  0.88691355  0.20487372  0.06812394  1
  Al  Al9  1  0.44675224  0.09329640  0.82217633  1
  Al  Al10  1  0.56293205  0.20595935  0.56093799  1
  Al  Al11  1  0.11068274  0.42857689  0.31103771  1
  Al  Al12  1  0.22213777  0.53935796  0.06171492  1
  Al  Al13  1  0.77792343  0.42768693  0.81313100  1
  Al  Al14  1  0.89021865  0.53866525  0.56078056  1
  Al  Al15  1  0.44895253  0.42467755  0.31205918  1
  Al  Al16  1  0.55758660  0.54380050  0.06302493  1
  Al  Al17  1  0.11073643  0.42789992  0.81433447  1
  Al  Al18  1  0.22246826  0.53864602  0.56435950  1
  Al  Al19  1  0.77643945  0.42357399  0.31237001  1
  Al  Al20  1  0.88111318  0.54438778  0.06323274  1
  Al  Al21  1  0.44615180  0.42624111  0.81501977  1
  Al  Al22  1  0.55534257  0.53834422  0.56124814  1
  Al  Al23  1  0.10785095  0.76531673  0.31210662  1
  Al  Al24  1  0.22636820  0.87456965  0.06310348  1
  Al  Al25  1  0.78013829  0.76139366  0.81042533  1
  Al  Al26  1  0.88758475  0.87736107  0.55781301  1
  Al  Al27  1  0.44680467  0.76339785  0.31757552  1
  Al  Al28  1  0.10933262  0.76277718  0.81394450  1
  Al  Al29  1  0.22143706  0.87177685  0.56155411  1
  Al  Al30  1  0.77122287  0.76888101  0.31749844  1
  Al  Al31  1  0.88087367  0.87718077  0.07015581  1
  Al  Al32  1  0.44410080  0.76040614  0.81010935  1
  Al  Al33  1  0.55724210  0.86989585  0.58313730  1
  B  B34  1  0.77885944  0.09451674  0.30923902  1
  B  B35  1  0.55347034  0.87539778  0.10393908  1
  N  N36  1  0.21784458  0.20643159  0.37118020  1
  N  N37  1  0.10980969  0.09430859  0.12335259  1
  N  N38  1  0.88809654  0.20491064  0.87656439  1
  N  N39  1  0.77926018  0.09357105  0.62722244  1
  N  N40  1  0.58235516  0.19420381  0.36543847  1
  N  N41  1  0.45908312  0.06374928  0.11681316  1
  N  N42  1  0.22217305  0.20520912  0.87419315  1
  N  N43  1  0.10902971  0.09480172  0.62160230  1
  N  N44  1  0.87643249  0.19260228  0.36593358  1
  N  N45  1  0.77844547  0.09491459  0.14506298  1
  N  N46  1  0.55791419  0.20486000  0.88034017  1
  N  N47  1  0.44285449  0.10216255  0.60767055  1
  N  N48  1  0.22280588  0.53826159  0.37258719  1
  N  N49  1  0.11010539  0.42831334  0.12087943  1
  N  N50  1  0.88847530  0.53958625  0.87338476  1
  N  N51  1  0.77897875  0.42622696  0.62010612  1
  N  N52  1  0.55516009  0.53901354  0.37038966  1
  N  N53  1  0.44457314  0.42853787  0.12235449  1
  N  N54  1  0.22260836  0.53900140  0.87142936  1
  N  N55  1  0.11029947  0.42829416  0.62350203  1
  N  N56  1  0.88824518  0.53930922  0.36899930  1
  N  N57  1  0.77749960  0.42774954  0.12321454  1
  N  N58  1  0.55560458  0.53910149  0.87348968  1
  N  N59  1  0.44625857  0.42624733  0.62260810  1
  N  N60  1  0.22277024  0.87137781  0.37056995  1
  N  N61  1  0.11106504  0.76162163  0.12214710  1
  N  N62  1  0.88827112  0.87288327  0.87912117  1
  N  N63  1  0.78775822  0.75809007  0.61808448  1
  N  N64  1  0.55763506  0.86680252  0.38613316  1
  N  N65  1  0.45892051  0.77652860  0.12136975  1
  N  N66  1  0.22295065  0.87146158  0.87346215  1
  N  N67  1  0.10885651  0.76262121  0.62120252  1
  N  N68  1  0.87644491  0.89702938  0.36338534  1
  N  N69  1  0.74657910  0.77697695  0.12221049  1
  N  N70  1  0.55716417  0.87028953  0.83639999  1
  N  N71  1  0.44037157  0.75677802  0.61974789  1
