# generated using pymatgen
data_Al17BN18
_symmetry_space_group_name_H-M   'P 1'
_cell_length_a   9.29923708
_cell_length_b   9.29916568
_cell_length_c   9.93997517
_cell_angle_alpha   90.01067296
_cell_angle_beta   90.01907883
_cell_angle_gamma   60.01222441
_symmetry_Int_Tables_number   1
_chemical_formula_structural   Al17BN18
_chemical_formula_sum   'Al34 B2 N36'
_cell_volume   744.49313244
_cell_formula_units_Z   2
loop_
 _symmetry_equiv_pos_site_id
 _symmetry_equiv_pos_as_xyz
  1  'x, y, z'
loop_
 _atom_site_type_symbol
 _atom_site_label
 _atom_site_symmetry_multiplicity
 _atom_site_fract_x
 _atom_site_fract_y
 _atom_site_fract_z
 _atom_site_occupancy
  Al  Al0  1  0.10762015  0.09281392  0.39637026  1
  Al  Al1  1  0.22551697  0.20065903  0.14609143  1
  Al  Al2  1  0.77757810  0.09425275  0.89369795  1
  Al  Al3  1  0.88761317  0.20427690  0.63935447  1
  Al  Al4  1  0.45071311  0.09058786  0.38949457  1
  Al  Al5  1  0.56258711  0.19783345  0.15019687  1
  Al  Al6  1  0.10960293  0.09506596  0.89550302  1
  Al  Al7  1  0.22421025  0.20422298  0.64556752  1
  Al  Al8  1  0.88609260  0.20275344  0.15014461  1
  Al  Al9  1  0.44823430  0.08974196  0.89973580  1
  Al  Al10  1  0.55751395  0.20329463  0.63883706  1
  Al  Al11  1  0.11094135  0.42758892  0.39654874  1
  Al  Al12  1  0.22204699  0.53870957  0.14671559  1
  Al  Al13  1  0.77839350  0.42627544  0.89550452  1
  Al  Al14  1  0.88755169  0.54087822  0.64555349  1
  Al  Al15  1  0.44999750  0.42407190  0.39580066  1
  Al  Al16  1  0.55733704  0.54221009  0.14567065  1
  Al  Al17  1  0.11118965  0.42786941  0.89598300  1
  Al  Al18  1  0.22244025  0.53910471  0.64573917  1
  Al  Al19  1  0.77615946  0.42427256  0.39636890  1
  Al  Al20  1  0.88399293  0.54218360  0.14609106  1
  Al  Al21  1  0.44524140  0.42606952  0.89562031  1
  Al  Al22  1  0.55482484  0.54069047  0.64613641  1
  Al  Al23  1  0.10742026  0.76665060  0.39579402  1
  Al  Al24  1  0.22554891  0.87400103  0.14566855  1
  Al  Al25  1  0.77307316  0.76490453  0.89972570  1
  Al  Al26  1  0.88663066  0.87417905  0.63882510  1
  Al  Al27  1  0.44581060  0.76245863  0.38971232  1
  Al  Al28  1  0.10940142  0.76191545  0.89560632  1
  Al  Al29  1  0.22402906  0.87149018  0.64613015  1
  Al  Al30  1  0.77394084  0.76736471  0.38947986  1
  Al  Al31  1  0.88118178  0.87924142  0.15018049  1
  Al  Al32  1  0.44735847  0.76403081  0.90020190  1
  Al  Al33  1  0.55565610  0.87232108  0.64435329  1
  B  B34  1  0.77778092  0.09444491  0.39937831  1
  B  B35  1  0.55587385  0.87255551  0.15028611  1
  N  N36  1  0.22203161  0.20495625  0.33682173  1
  N  N37  1  0.10806268  0.09601498  0.08749277  1
  N  N38  1  0.88798115  0.20466545  0.83164603  1
  N  N39  1  0.77770049  0.09437400  0.56542439  1
  N  N40  1  0.58122617  0.19297412  0.34347319  1
  N  N41  1  0.45786060  0.07063138  0.09545405  1
  N  N42  1  0.22479951  0.20405481  0.83867628  1
  N  N43  1  0.11199694  0.09379718  0.58695495  1
  N  N44  1  0.87642529  0.19308737  0.34431574  1
  N  N45  1  0.77797377  0.09465332  0.08216805  1
  N  N46  1  0.55596792  0.20364675  0.83298610  1
  N  N47  1  0.44524327  0.09231344  0.58117487  1
  N  N48  1  0.22254093  0.53920067  0.33788987  1
  N  N49  1  0.11072679  0.42740756  0.08731893  1
  N  N50  1  0.88736820  0.54148239  0.83866377  1
  N  N51  1  0.77711486  0.42867239  0.58695270  1
  N  N52  1  0.55572942  0.53906802  0.33553838  1
  N  N53  1  0.44601248  0.42496261  0.08862381  1
  N  N54  1  0.22242098  0.53910206  0.83722686  1
  N  N55  1  0.11090819  0.42758657  0.58790157  1
  N  N56  1  0.88829789  0.53868759  0.33682151  1
  N  N57  1  0.77933724  0.42474008  0.08749562  1
  N  N58  1  0.55438334  0.54102178  0.83900672  1
  N  N59  1  0.44487914  0.42810017  0.58669344  1
  N  N60  1  0.22240797  0.87239459  0.33553773  1
  N  N61  1  0.10829836  0.76268567  0.08861044  1
  N  N62  1  0.88696305  0.87265554  0.83297718  1
  N  N63  1  0.77562926  0.76192635  0.58116273  1
  N  N64  1  0.55546268  0.87212352  0.31473074  1
  N  N65  1  0.45719800  0.77387493  0.09375995  1
  N  N66  1  0.22434259  0.87106869  0.83899965  1
  N  N67  1  0.11142706  0.76155441  0.58668852  1
  N  N68  1  0.87632032  0.89788258  0.34346052  1
  N  N69  1  0.75396158  0.77453414  0.09544598  1
  N  N70  1  0.55579977  0.87248550  0.83339750  1
  N  N71  1  0.44532381  0.76199711  0.58241252  1
