# generated using pymatgen
data_Al17BN18
_symmetry_space_group_name_H-M   'P 1'
_cell_length_a   9.29942770
_cell_length_b   9.29942848
_cell_length_c   9.93899045
_cell_angle_alpha   90.02511264
_cell_angle_beta   90.02509574
_cell_angle_gamma   60.01364469
_symmetry_Int_Tables_number   1
_chemical_formula_structural   Al17BN18
_chemical_formula_sum   'Al34 B2 N36'
_cell_volume   744.46627087
_cell_formula_units_Z   2
loop_
 _symmetry_equiv_pos_site_id
 _symmetry_equiv_pos_as_xyz
  1  'x, y, z'
loop_
 _atom_site_type_symbol
 _atom_site_label
 _atom_site_symmetry_multiplicity
 _atom_site_fract_x
 _atom_site_fract_y
 _atom_site_fract_z
 _atom_site_occupancy
  Al  Al0  1  0.10765522  0.09281865  0.40808639  1
  Al  Al1  1  0.22551861  0.20065237  0.15777380  1
  Al  Al2  1  0.77759069  0.09425877  0.90546294  1
  Al  Al3  1  0.88762894  0.20429585  0.65099578  1
  Al  Al4  1  0.45068520  0.09060119  0.40120862  1
  Al  Al5  1  0.56258783  0.19784098  0.16200341  1
  Al  Al6  1  0.10958021  0.09508256  0.90719328  1
  Al  Al7  1  0.22422663  0.20423682  0.65728737  1
  Al  Al8  1  0.88609144  0.20275828  0.16195042  1
  Al  Al9  1  0.44827311  0.08976340  0.91144090  1
  Al  Al10  1  0.55752054  0.20331305  0.65047648  1
  Al  Al11  1  0.11093856  0.42760498  0.40823060  1
  Al  Al12  1  0.22204682  0.53871527  0.15838957  1
  Al  Al13  1  0.77841571  0.42624695  0.90719348  1
  Al  Al14  1  0.88757049  0.54089283  0.65728740  1
  Al  Al15  1  0.44997054  0.42412577  0.40751173  1
  Al  Al16  1  0.55734297  0.54219519  0.15734822  1
  Al  Al17  1  0.11120420  0.42787064  0.90770201  1
  Al  Al18  1  0.22244780  0.53911556  0.65746000  1
  Al  Al19  1  0.77615000  0.42432384  0.40808633  1
  Al  Al20  1  0.88398593  0.54218491  0.15777383  1
  Al  Al21  1  0.44527545  0.42604217  0.90730143  1
  Al  Al22  1  0.55482609  0.54072669  0.65785313  1
  Al  Al23  1  0.10745726  0.76663838  0.40751157  1
  Al  Al24  1  0.22552779  0.87401029  0.15734827  1
  Al  Al25  1  0.77309656  0.76493975  0.91144094  1
  Al  Al26  1  0.88664587  0.87418819  0.65047664  1
  Al  Al27  1  0.44580652  0.76247551  0.40138975  1
  Al  Al28  1  0.10937413  0.76194389  0.90730144  1
  Al  Al29  1  0.22406022  0.87149260  0.65785284  1
  Al  Al30  1  0.77393421  0.76735167  0.40120871  1
  Al  Al31  1  0.88117221  0.87925587  0.16200331  1
  Al  Al32  1  0.44737603  0.76404347  0.91192888  1
  Al  Al33  1  0.55566101  0.87232701  0.65608264  1
  B  B34  1  0.77778361  0.09445177  0.41125655  1
  B  B35  1  0.55588880  0.87255595  0.16201003  1
  N  N36  1  0.22202938  0.20496204  0.34852427  1
  N  N37  1  0.10802903  0.09601921  0.09920823  1
  N  N38  1  0.88797367  0.20464072  0.84330761  1
  N  N39  1  0.77771242  0.09438005  0.57707846  1
  N  N40  1  0.58119115  0.19300294  0.35528643  1
  N  N41  1  0.45787794  0.07063849  0.10718491  1
  N  N42  1  0.22481922  0.20404888  0.85041072  1
  N  N43  1  0.11203647  0.09378061  0.59868331  1
  N  N44  1  0.87644551  0.19311383  0.35612914  1
  N  N45  1  0.77797408  0.09464207  0.09397203  1
  N  N46  1  0.55602590  0.20362380  0.84464519  1
  N  N47  1  0.44525086  0.09229508  0.59289773  1
  N  N48  1  0.22254035  0.53920820  0.34958672  1
  N  N49  1  0.11072620  0.42739293  0.09904122  1
  N  N50  1  0.88738218  0.54148581  0.85041077  1
  N  N51  1  0.77711363  0.42870340  0.59868320  1
  N  N52  1  0.55573169  0.53907477  0.34723657  1
  N  N53  1  0.44602619  0.42492195  0.10033041  1
  N  N54  1  0.22243159  0.53909985  0.84895998  1
  N  N55  1  0.11091969  0.42758622  0.59961194  1
  N  N56  1  0.88829525  0.53869610  0.34852435  1
  N  N57  1  0.77935203  0.42469601  0.09920836  1
  N  N58  1  0.55439481  0.54102698  0.85073519  1
  N  N59  1  0.44487905  0.42812934  0.59841622  1
  N  N60  1  0.22240594  0.87240015  0.34723679  1
  N  N61  1  0.10825349  0.76269451  0.10033053  1
  N  N62  1  0.88695589  0.87269381  0.84464524  1
  N  N63  1  0.77562888  0.76191726  0.59289781  1
  N  N64  1  0.55546667  0.87213398  0.32645316  1
  N  N65  1  0.45720257  0.77387012  0.10548667  1
  N  N66  1  0.22435977  0.87106201  0.85073502  1
  N  N67  1  0.11146194  0.76154660  0.59841624  1
  N  N68  1  0.87633449  0.89785916  0.35528639  1
  N  N69  1  0.75397122  0.77454471  0.10718494  1
  N  N70  1  0.55581819  0.87248504  0.84513496  1
  N  N71  1  0.44533425  0.76200098  0.59411606  1
