# generated using pymatgen
data_Al17BN18
_symmetry_space_group_name_H-M   'P 1'
_cell_length_a   9.34197908
_cell_length_b   9.32835977
_cell_length_c   10.13765074
_cell_angle_alpha   89.64841037
_cell_angle_beta   89.76148625
_cell_angle_gamma   59.97697181
_symmetry_Int_Tables_number   1
_chemical_formula_structural   Al17BN18
_chemical_formula_sum   'Al34 B2 N36'
_cell_volume   764.89670147
_cell_formula_units_Z   2
loop_
 _symmetry_equiv_pos_site_id
 _symmetry_equiv_pos_as_xyz
  1  'x, y, z'
loop_
 _atom_site_type_symbol
 _atom_site_label
 _atom_site_symmetry_multiplicity
 _atom_site_fract_x
 _atom_site_fract_y
 _atom_site_fract_z
 _atom_site_occupancy
  Al  Al0  1  0.10264842  0.09105906  0.31904180  1
  Al  Al1  1  0.22860558  0.20350114  0.14021216  1
  Al  Al2  1  0.77648996  0.09227739  0.82340985  1
  Al  Al3  1  0.88735355  0.20343258  0.56663226  1
  Al  Al4  1  0.44893085  0.08787521  0.37761859  1
  Al  Al5  1  0.56224896  0.20039149  0.08211167  1
  Al  Al6  1  0.10893888  0.08972150  0.82075724  1
  Al  Al7  1  0.22915651  0.20641956  0.63800316  1
  Al  Al8  1  0.88711908  0.20538483  0.07351420  1
  Al  Al9  1  0.44511036  0.08563772  0.89620186  1
  Al  Al10  1  0.56477503  0.20411039  0.56344426  1
  Al  Al11  1  0.10826002  0.42490083  0.39073434  1
  Al  Al12  1  0.22433542  0.54218268  0.06894145  1
  Al  Al13  1  0.78078536  0.42130340  0.82285504  1
  Al  Al14  1  0.89147304  0.54526721  0.63709318  1
  Al  Al15  1  0.44452868  0.42143773  0.32039868  1
  Al  Al16  1  0.55233476  0.54920370  0.13496114  1
  Al  Al17  1  0.10831631  0.42412945  0.88892988  1
  Al  Al18  1  0.22500673  0.54240401  0.57101155  1
  Al  Al19  1  0.77961127  0.41755980  0.32195009  1
  Al  Al20  1  0.88764547  0.54551857  0.13952176  1
  Al  Al21  1  0.44262236  0.42176843  0.82273731  1
  Al  Al22  1  0.55340222  0.54351898  0.62971077  1
  Al  Al23  1  0.10750122  0.76559484  0.31899010  1
  Al  Al24  1  0.21962401  0.87765205  0.07297227  1
  Al  Al25  1  0.77084892  0.76165538  0.89598314  1
  Al  Al26  1  0.88847678  0.88098133  0.56428961  1
  Al  Al27  1  0.44936852  0.76130578  0.38262515  1
  Al  Al28  1  0.10926420  0.76217043  0.82192382  1
  Al  Al29  1  0.21692750  0.87645407  0.56859798  1
  Al  Al30  1  0.77149062  0.76658111  0.37738535  1
  Al  Al31  1  0.88366341  0.87931333  0.08301053  1
  Al  Al32  1  0.45375379  0.75972455  0.89231202  1
  Al  Al33  1  0.55759706  0.87364973  0.63678796  1
  B  B34  1  0.77802997  0.09440576  0.31700505  1
  B  B35  1  0.55376256  0.87185556  0.14281087  1
  N  N36  1  0.22423733  0.20809168  0.32892863  1
  N  N37  1  0.10637504  0.09351339  0.13090582  1
  N  N38  1  0.88928035  0.20267461  0.88488553  1
  N  N39  1  0.77729395  0.09387773  0.63607992  1
  N  N40  1  0.58451955  0.19336111  0.37109796  1
  N  N41  1  0.45545631  0.06571107  0.08845072  1
  N  N42  1  0.22889647  0.20520842  0.82955622  1
  N  N43  1  0.10721719  0.09314704  0.62984147  1
  N  N44  1  0.87691543  0.19290260  0.37620839  1
  N  N45  1  0.77834558  0.09600098  0.15464295  1
  N  N46  1  0.55983393  0.20496058  0.89047204  1
  N  N47  1  0.44442713  0.09042845  0.56911651  1
  N  N48  1  0.22404280  0.54329713  0.38128359  1
  N  N49  1  0.10797686  0.42457482  0.07832359  1
  N  N50  1  0.89015988  0.54538191  0.82927293  1
  N  N51  1  0.78264084  0.42136750  0.62552088  1
  N  N52  1  0.55229610  0.54267752  0.33505819  1
  N  N53  1  0.44028345  0.42502106  0.13110020  1
  N  N54  1  0.22414121  0.54181989  0.87930813  1
  N  N55  1  0.10933288  0.42498519  0.58003194  1
  N  N56  1  0.89191423  0.54178722  0.32898113  1
  N  N57  1  0.78022141  0.42307271  0.12711226  1
  N  N58  1  0.55269596  0.54262702  0.83710250  1
  N  N59  1  0.44357713  0.42059807  0.62981015  1
  N  N60  1  0.21651545  0.87514722  0.37920533  1
  N  N61  1  0.11112619  0.76050522  0.13251470  1
  N  N62  1  0.89083322  0.87521933  0.89044712  1
  N  N63  1  0.77483177  0.76153744  0.56937702  1
  N  N64  1  0.55446484  0.87196245  0.30454034  1
  N  N65  1  0.45826175  0.77472389  0.08599233  1
  N  N66  1  0.22062395  0.87219052  0.88303120  1
  N  N67  1  0.10811622  0.76306491  0.63174408  1
  N  N68  1  0.87739786  0.90120000  0.37053193  1
  N  N69  1  0.74934482  0.77315811  0.08851850  1
  N  N70  1  0.55743042  0.87298219  0.82350862  1
  N  N71  1  0.45006776  0.76211475  0.57461426  1
