# generated using pymatgen
data_Al17BN18
_symmetry_space_group_name_H-M   'P 1'
_cell_length_a   9.29811577
_cell_length_b   9.29617911
_cell_length_c   9.96948365
_cell_angle_alpha   89.88506932
_cell_angle_beta   89.97049211
_cell_angle_gamma   59.99598729
_symmetry_Int_Tables_number   1
_chemical_formula_structural   Al17BN18
_chemical_formula_sum   'Al34 B2 N36'
_cell_volume   746.24979468
_cell_formula_units_Z   2
loop_
 _symmetry_equiv_pos_site_id
 _symmetry_equiv_pos_as_xyz
  1  'x, y, z'
loop_
 _atom_site_type_symbol
 _atom_site_label
 _atom_site_symmetry_multiplicity
 _atom_site_fract_x
 _atom_site_fract_y
 _atom_site_fract_z
 _atom_site_occupancy
  Al  Al0  1  0.10704580  0.09291409  0.31310385  1
  Al  Al1  1  0.22678800  0.19919346  0.06387690  1
  Al  Al2  1  0.77743968  0.09402053  0.81568227  1
  Al  Al3  1  0.88622156  0.20277802  0.55984419  1
  Al  Al4  1  0.45176289  0.08802963  0.31496194  1
  Al  Al5  1  0.55942230  0.19843263  0.07056503  1
  Al  Al6  1  0.11019650  0.09480720  0.81383326  1
  Al  Al7  1  0.22251531  0.20583206  0.56328322  1
  Al  Al8  1  0.88735765  0.20447096  0.06888822  1
  Al  Al9  1  0.44685602  0.09256423  0.81665916  1
  Al  Al10  1  0.56080040  0.20298681  0.55955194  1
  Al  Al11  1  0.11125263  0.42804052  0.31200145  1
  Al  Al12  1  0.22229378  0.53920961  0.06224185  1
  Al  Al13  1  0.77821656  0.42687309  0.81355461  1
  Al  Al14  1  0.88921832  0.53935050  0.56282840  1
  Al  Al15  1  0.44909688  0.42447719  0.31277358  1
  Al  Al16  1  0.55716354  0.54348668  0.06315533  1
  Al  Al17  1  0.11096467  0.42751055  0.81419087  1
  Al  Al18  1  0.22231350  0.53872999  0.56401926  1
  Al  Al19  1  0.77620921  0.42389787  0.31305687  1
  Al  Al20  1  0.88224936  0.54375658  0.06355262  1
  Al  Al21  1  0.44606812  0.42578467  0.81463508  1
  Al  Al22  1  0.55533731  0.53908004  0.56310736  1
  Al  Al23  1  0.10782746  0.76570248  0.31271798  1
  Al  Al24  1  0.22647413  0.87406011  0.06316627  1
  Al  Al25  1  0.77611484  0.76338349  0.81646457  1
  Al  Al26  1  0.88630534  0.87734864  0.55917909  1
  Al  Al27  1  0.44698369  0.76375887  0.31395794  1
  Al  Al28  1  0.10927375  0.76257289  0.81428068  1
  Al  Al29  1  0.22247641  0.87192610  0.56314124  1
  Al  Al30  1  0.77112309  0.76878071  0.31394922  1
  Al  Al31  1  0.88160159  0.87646726  0.07012623  1
  Al  Al32  1  0.44579348  0.76239628  0.81598776  1
  Al  Al33  1  0.55593626  0.87228106  0.56943791  1
  B  B34  1  0.77789331  0.09436072  0.30942653  1
  B  B35  1  0.55530731  0.87255744  0.07738010  1
  N  N36  1  0.22322527  0.20458533  0.37104930  1
  N  N37  1  0.11072147  0.09439714  0.12374447  1
  N  N38  1  0.88807476  0.20469460  0.87688559  1
  N  N39  1  0.77777557  0.09410675  0.62670551  1
  N  N40  1  0.57991603  0.19273056  0.36461186  1
  N  N41  1  0.45796510  0.06667444  0.12096269  1
  N  N42  1  0.22293460  0.20482292  0.87339464  1
  N  N43  1  0.10923663  0.09540455  0.62110863  1
  N  N44  1  0.87616602  0.19274220  0.36605869  1
  N  N45  1  0.77793784  0.09479179  0.14497767  1
  N  N46  1  0.55716273  0.20438989  0.87913489  1
  N  N47  1  0.44506505  0.09693610  0.62297347  1
  N  N48  1  0.22257472  0.53899385  0.37259955  1
  N  N49  1  0.11067083  0.42761520  0.12137414  1
  N  N50  1  0.88841649  0.53934132  0.87318019  1
  N  N51  1  0.77899919  0.42584219  0.62079602  1
  N  N52  1  0.55459645  0.54043227  0.37184467  1
  N  N53  1  0.44491107  0.42811517  0.12258030  1
  N  N54  1  0.22254040  0.53900862  0.87165353  1
  N  N55  1  0.11093795  0.42756089  0.62294123  1
  N  N56  1  0.88786696  0.54028772  0.37059084  1
  N  N57  1  0.77755546  0.42772056  0.12371642  1
  N  N58  1  0.55571974  0.53882003  0.87309011  1
  N  N59  1  0.44613850  0.42527239  0.62173968  1
  N  N60  1  0.22384438  0.87114313  0.37188283  1
  N  N61  1  0.11120332  0.76173883  0.12253643  1
  N  N62  1  0.88812628  0.87351560  0.87882318  1
  N  N63  1  0.78055032  0.76153414  0.62296895  1
  N  N64  1  0.55542254  0.87167045  0.38097802  1
  N  N65  1  0.45794837  0.77494401  0.11941616  1
  N  N66  1  0.22235820  0.87206505  0.87309131  1
  N  N67  1  0.10873534  0.76255781  0.62141185  1
  N  N68  1  0.87607810  0.89651228  0.36425543  1
  N  N69  1  0.74963406  0.77511528  0.12027165  1
  N  N70  1  0.55586121  0.87224010  0.87867839  1
  N  N71  1  0.44391758  0.76040063  0.62443258  1
