# generated using pymatgen
data_Al17BN18
_symmetry_space_group_name_H-M   'P 1'
_cell_length_a   9.33549015
_cell_length_b   9.32998586
_cell_length_c   10.11790809
_cell_angle_alpha   89.65710508
_cell_angle_beta   89.74713518
_cell_angle_gamma   60.01670844
_symmetry_Int_Tables_number   1
_chemical_formula_structural   Al17BN18
_chemical_formula_sum   'Al34 B2 N36'
_cell_volume   763.31571598
_cell_formula_units_Z   2
loop_
 _symmetry_equiv_pos_site_id
 _symmetry_equiv_pos_as_xyz
  1  'x, y, z'
loop_
 _atom_site_type_symbol
 _atom_site_label
 _atom_site_symmetry_multiplicity
 _atom_site_fract_x
 _atom_site_fract_y
 _atom_site_fract_z
 _atom_site_occupancy
  Al  Al0  1  0.11364125  0.08892200  0.38489247  1
  Al  Al1  1  0.22596914  0.20140173  0.13952163  1
  Al  Al2  1  0.77596032  0.09312123  0.82158524  1
  Al  Al3  1  0.88144256  0.20376909  0.56798571  1
  Al  Al4  1  0.44980575  0.08746218  0.37555281  1
  Al  Al5  1  0.56162892  0.20030650  0.08116682  1
  Al  Al6  1  0.11648071  0.09005195  0.88953696  1
  Al  Al7  1  0.22412184  0.20467705  0.63659178  1
  Al  Al8  1  0.88555317  0.20271802  0.07867316  1
  Al  Al9  1  0.44501700  0.08579283  0.89420854  1
  Al  Al10  1  0.56232597  0.20533494  0.56264092  1
  Al  Al11  1  0.10905826  0.42445207  0.38942884  1
  Al  Al12  1  0.22505248  0.54173286  0.06798826  1
  Al  Al13  1  0.77535501  0.43069306  0.87701554  1
  Al  Al14  1  0.88814014  0.54222679  0.63581948  1
  Al  Al15  1  0.44597791  0.42083839  0.31837583  1
  Al  Al16  1  0.55650833  0.54817483  0.13765687  1
  Al  Al17  1  0.10839645  0.42420294  0.88683713  1
  Al  Al18  1  0.22512252  0.54247492  0.57007847  1
  Al  Al19  1  0.77695644  0.42441209  0.36451968  1
  Al  Al20  1  0.88678476  0.54378062  0.13822401  1
  Al  Al21  1  0.44240445  0.42119406  0.82079221  1
  Al  Al22  1  0.55738713  0.54312063  0.63651469  1
  Al  Al23  1  0.10479890  0.76315239  0.31844041  1
  Al  Al24  1  0.23119834  0.87515670  0.13933931  1
  Al  Al25  1  0.76871428  0.76283410  0.89450371  1
  Al  Al26  1  0.88830293  0.88036138  0.56254483  1
  Al  Al27  1  0.44602012  0.76169773  0.38500655  1
  Al  Al28  1  0.10427621  0.76029176  0.82053653  1
  Al  Al29  1  0.22516285  0.87619449  0.63759251  1
  Al  Al30  1  0.77119642  0.76650612  0.37612363  1
  Al  Al31  1  0.88437290  0.87833998  0.08096795  1
  Al  Al32  1  0.44580168  0.76363102  0.89151930  1
  Al  Al33  1  0.55703431  0.87414824  0.63481347  1
  B  B34  1  0.78020309  0.09493209  0.31527531  1
  B  B35  1  0.55541720  0.87214019  0.14134245  1
  N  N36  1  0.22239226  0.20621587  0.32622565  1
  N  N37  1  0.11723313  0.09139533  0.07987071  1
  N  N38  1  0.88511285  0.20177110  0.88181728  1
  N  N39  1  0.77570773  0.09327425  0.63491730  1
  N  N40  1  0.58407882  0.19386080  0.36997809  1
  N  N41  1  0.45597482  0.06555572  0.08809614  1
  N  N42  1  0.22558892  0.20345630  0.82693826  1
  N  N43  1  0.11327176  0.09392401  0.57568372  1
  N  N44  1  0.87603990  0.19017234  0.36969279  1
  N  N45  1  0.77848820  0.09443218  0.15388884  1
  N  N46  1  0.55865936  0.20537986  0.88907178  1
  N  N47  1  0.44263807  0.09140838  0.56823939  1
  N  N48  1  0.22551212  0.54205668  0.38011197  1
  N  N49  1  0.10874914  0.42369872  0.07729132  1
  N  N50  1  0.88786156  0.54411323  0.82747699  1
  N  N51  1  0.77729745  0.43005971  0.58494971  1
  N  N52  1  0.55454078  0.54370176  0.32797302  1
  N  N53  1  0.44170714  0.42502003  0.12927310  1
  N  N54  1  0.22422779  0.54167010  0.87822685  1
  N  N55  1  0.10861284  0.42518588  0.57963796  1
  N  N56  1  0.89186917  0.54036430  0.32556867  1
  N  N57  1  0.77711008  0.43083009  0.09099066  1
  N  N58  1  0.55366287  0.54443719  0.83035724  1
  N  N59  1  0.44375594  0.42154579  0.62920377  1
  N  N60  1  0.22725139  0.87280447  0.32779968  1
  N  N61  1  0.10914306  0.75867851  0.12945921  1
  N  N62  1  0.88898598  0.87588436  0.88910445  1
  N  N63  1  0.77404264  0.76106209  0.56830396  1
  N  N64  1  0.55497136  0.87077515  0.30401156  1
  N  N65  1  0.45635849  0.77364661  0.08223548  1
  N  N66  1  0.22654375  0.87309344  0.82885842  1
  N  N67  1  0.10457186  0.76153413  0.62887258  1
  N  N68  1  0.87804121  0.90051866  0.36996103  1
  N  N69  1  0.74891833  0.77336807  0.08760134  1
  N  N70  1  0.55606084  0.87299187  0.82244263  1
  N  N71  1  0.44453177  0.76311066  0.57380141  1
