# generated using pymatgen
data_Al17BN18
_symmetry_space_group_name_H-M   'P 1'
_cell_length_a   9.32865410
_cell_length_b   9.33575369
_cell_length_c   10.05560525
_cell_angle_alpha   89.71738509
_cell_angle_beta   89.63101845
_cell_angle_gamma   59.96344403
_symmetry_Int_Tables_number   1
_chemical_formula_structural   Al17BN18
_chemical_formula_sum   'Al34 B2 N36'
_cell_volume   758.11881533
_cell_formula_units_Z   2
loop_
 _symmetry_equiv_pos_site_id
 _symmetry_equiv_pos_as_xyz
  1  'x, y, z'
loop_
 _atom_site_type_symbol
 _atom_site_label
 _atom_site_symmetry_multiplicity
 _atom_site_fract_x
 _atom_site_fract_y
 _atom_site_fract_z
 _atom_site_occupancy
  Al  Al0  1  0.10556923  0.09431519  0.38806609  1
  Al  Al1  1  0.22325594  0.20079148  0.13705618  1
  Al  Al2  1  0.77324610  0.09026354  0.81897074  1
  Al  Al3  1  0.89238098  0.20879447  0.63705707  1
  Al  Al4  1  0.44790110  0.08889042  0.37105772  1
  Al  Al5  1  0.55938548  0.19828751  0.08149865  1
  Al  Al6  1  0.10976871  0.09538453  0.88717714  1
  Al  Al7  1  0.22672519  0.20360960  0.63467112  1
  Al  Al8  1  0.88899808  0.20686032  0.14185116  1
  Al  Al9  1  0.44433851  0.08535031  0.89120682  1
  Al  Al10  1  0.56803308  0.19852539  0.55993851  1
  Al  Al11  1  0.11019265  0.42691263  0.38780453  1
  Al  Al12  1  0.22241735  0.53523451  0.13721881  1
  Al  Al13  1  0.77831700  0.42654848  0.88691383  1
  Al  Al14  1  0.88777687  0.54324522  0.63447294  1
  Al  Al15  1  0.44734345  0.43087389  0.37984595  1
  Al  Al16  1  0.55710131  0.54455338  0.13730058  1
  Al  Al17  1  0.11159548  0.42659752  0.88482433  1
  Al  Al18  1  0.22355070  0.53802647  0.63346284  1
  Al  Al19  1  0.77671892  0.42329203  0.38755250  1
  Al  Al20  1  0.88364985  0.54079249  0.13661857  1
  Al  Al21  1  0.44378920  0.43184249  0.88954829  1
  Al  Al22  1  0.55489797  0.53981795  0.63544125  1
  Al  Al23  1  0.10680224  0.76779346  0.34821284  1
  Al  Al24  1  0.22894207  0.87596149  0.13548238  1
  Al  Al25  1  0.76929245  0.76039330  0.89163790  1
  Al  Al26  1  0.88827145  0.88139369  0.55852642  1
  Al  Al27  1  0.44583073  0.76322577  0.38253916  1
  Al  Al28  1  0.11298208  0.76021998  0.87041226  1
  Al  Al29  1  0.22418453  0.87165215  0.63448978  1
  Al  Al30  1  0.77096334  0.76504921  0.37206233  1
  Al  Al31  1  0.88156827  0.87715012  0.08085574  1
  Al  Al32  1  0.44821314  0.76305522  0.88885561  1
  Al  Al33  1  0.55789958  0.87289866  0.63180946  1
  B  B34  1  0.77286046  0.09361638  0.30747797  1
  B  B35  1  0.55390373  0.86997125  0.13957166  1
  N  N36  1  0.21924982  0.20636823  0.32540995  1
  N  N37  1  0.10767528  0.09608552  0.07608379  1
  N  N38  1  0.89103899  0.20760023  0.82846985  1
  N  N39  1  0.77644661  0.09105518  0.63111432  1
  N  N40  1  0.58426514  0.19255811  0.36292422  1
  N  N41  1  0.45252004  0.06551881  0.08659843  1
  N  N42  1  0.22546551  0.20340064  0.82638885  1
  N  N43  1  0.11230126  0.09464970  0.57692794  1
  N  N44  1  0.87950156  0.19731110  0.33235976  1
  N  N45  1  0.77252745  0.09112165  0.14773392  1
  N  N46  1  0.55981271  0.20099851  0.88556692  1
  N  N47  1  0.44411459  0.09039768  0.56584104  1
  N  N48  1  0.22250530  0.53539661  0.32653968  1
  N  N49  1  0.11048820  0.42663806  0.07491729  1
  N  N50  1  0.88784785  0.54163441  0.82654193  1
  N  N51  1  0.77803254  0.42875867  0.57687425  1
  N  N52  1  0.55695495  0.54178768  0.32510445  1
  N  N53  1  0.44277062  0.43476689  0.08216435  1
  N  N54  1  0.22489751  0.53570422  0.82611126  1
  N  N55  1  0.11154634  0.42679425  0.57725266  1
  N  N56  1  0.88932523  0.53682031  0.32514278  1
  N  N57  1  0.77798471  0.42544462  0.07638146  1
  N  N58  1  0.55522682  0.54068338  0.82714888  1
  N  N59  1  0.44502807  0.42976742  0.57307361  1
  N  N60  1  0.22551770  0.87634773  0.32461289  1
  N  N61  1  0.11326245  0.76142525  0.09962642  1
  N  N62  1  0.88553222  0.87629582  0.88659309  1
  N  N63  1  0.77540801  0.76038655  0.56555190  1
  N  N64  1  0.55397402  0.87092714  0.30200899  1
  N  N65  1  0.45736193  0.77287225  0.08123783  1
  N  N66  1  0.22603409  0.87254410  0.82850428  1
  N  N67  1  0.11247978  0.76113449  0.58742820  1
  N  N68  1  0.87320376  0.90303900  0.36254481  1
  N  N69  1  0.74864914  0.77004658  0.08627569  1
  N  N70  1  0.55672718  0.87211456  0.82012495  1
  N  N71  1  0.44671272  0.76191079  0.57283956  1
