# generated using pymatgen
data_Al17BN18
_symmetry_space_group_name_H-M   'P 1'
_cell_length_a   9.34045410
_cell_length_b   9.33161101
_cell_length_c   10.12048635
_cell_angle_alpha   89.64354209
_cell_angle_beta   89.75122012
_cell_angle_gamma   59.99312842
_symmetry_Int_Tables_number   1
_chemical_formula_structural   Al17BN18
_chemical_formula_sum   'Al34 B2 N36'
_cell_volume   763.86693846
_cell_formula_units_Z   2
loop_
 _symmetry_equiv_pos_site_id
 _symmetry_equiv_pos_as_xyz
  1  'x, y, z'
loop_
 _atom_site_type_symbol
 _atom_site_label
 _atom_site_symmetry_multiplicity
 _atom_site_fract_x
 _atom_site_fract_y
 _atom_site_fract_z
 _atom_site_occupancy
  Al  Al0  1  0.10233081  0.09137957  0.31920142  1
  Al  Al1  1  0.22855713  0.20353883  0.14016722  1
  Al  Al2  1  0.77635692  0.09251498  0.82375786  1
  Al  Al3  1  0.88770007  0.20287058  0.56683162  1
  Al  Al4  1  0.44896043  0.08820630  0.37761390  1
  Al  Al5  1  0.56223569  0.20019575  0.08219892  1
  Al  Al6  1  0.10850134  0.09019394  0.82104148  1
  Al  Al7  1  0.22910869  0.20638652  0.63811573  1
  Al  Al8  1  0.88730171  0.20507023  0.07341283  1
  Al  Al9  1  0.44508499  0.08605688  0.89608500  1
  Al  Al10  1  0.56480649  0.20366351  0.56378866  1
  Al  Al11  1  0.10829735  0.42493641  0.39064570  1
  Al  Al12  1  0.22422915  0.54225581  0.06892571  1
  Al  Al13  1  0.77742899  0.42294258  0.82259487  1
  Al  Al14  1  0.89133829  0.54549588  0.63767868  1
  Al  Al15  1  0.44561778  0.42221687  0.32054364  1
  Al  Al16  1  0.55438073  0.54552959  0.11389731  1
  Al  Al17  1  0.10826913  0.42418735  0.88862049  1
  Al  Al18  1  0.22470343  0.54254255  0.57147063  1
  Al  Al19  1  0.77828785  0.41798474  0.32140681  1
  Al  Al20  1  0.88765111  0.54575797  0.13997818  1
  Al  Al21  1  0.44449364  0.42376772  0.82305186  1
  Al  Al22  1  0.55628636  0.53871293  0.60012922  1
  Al  Al23  1  0.10745060  0.76539509  0.31908944  1
  Al  Al24  1  0.21950973  0.87788119  0.07339511  1
  Al  Al25  1  0.77091945  0.76143149  0.89595230  1
  Al  Al26  1  0.88837579  0.88092375  0.56440498  1
  Al  Al27  1  0.44829898  0.76308648  0.38063658  1
  Al  Al28  1  0.10935480  0.76206579  0.82210319  1
  Al  Al29  1  0.21667251  0.87671141  0.56884576  1
  Al  Al30  1  0.77164371  0.76645853  0.37740728  1
  Al  Al31  1  0.88358356  0.87925968  0.08304976  1
  Al  Al32  1  0.45290070  0.76109036  0.89148753  1
  Al  Al33  1  0.55755853  0.87370895  0.63714525  1
  B  B34  1  0.77797857  0.09448927  0.31716203  1
  B  B35  1  0.55334188  0.87205575  0.14329925  1
  N  N36  1  0.22420485  0.20803634  0.32914126  1
  N  N37  1  0.10618842  0.09380846  0.13084739  1
  N  N38  1  0.88908408  0.20317857  0.88472189  1
  N  N39  1  0.77730377  0.09379564  0.63613027  1
  N  N40  1  0.58448902  0.19325113  0.37107763  1
  N  N41  1  0.45536888  0.06605188  0.08866181  1
  N  N42  1  0.22879709  0.20516009  0.82973013  1
  N  N43  1  0.10702881  0.09341734  0.62977516  1
  N  N44  1  0.87701849  0.19289728  0.37633161  1
  N  N45  1  0.77836051  0.09599595  0.15459666  1
  N  N46  1  0.55944518  0.20529901  0.89026856  1
  N  N47  1  0.44438136  0.09065875  0.56944095  1
  N  N48  1  0.22426790  0.54312320  0.38133851  1
  N  N49  1  0.10794168  0.42463227  0.07848263  1
  N  N50  1  0.88985816  0.54517752  0.82931835  1
  N  N51  1  0.78150652  0.42158113  0.62687544  1
  N  N52  1  0.55450607  0.53883650  0.35268882  1
  N  N53  1  0.44072660  0.42553628  0.13230892  1
  N  N54  1  0.22443596  0.54155246  0.87895333  1
  N  N55  1  0.10924959  0.42497616  0.58032861  1
  N  N56  1  0.89182107  0.54173816  0.32928043  1
  N  N57  1  0.78010592  0.42267011  0.12925783  1
  N  N58  1  0.55480532  0.53876427  0.85910590  1
  N  N59  1  0.44458628  0.42158078  0.63035011  1
  N  N60  1  0.21617989  0.87531546  0.37892451  1
  N  N61  1  0.11107204  0.76046670  0.13242309  1
  N  N62  1  0.89075556  0.87522387  0.89038453  1
  N  N63  1  0.77472432  0.76141170  0.56955632  1
  N  N64  1  0.55473509  0.87230909  0.30474683  1
  N  N65  1  0.45743954  0.77632728  0.08811189  1
  N  N66  1  0.22030021  0.87260261  0.88303919  1
  N  N67  1  0.10793513  0.76318349  0.63168419  1
  N  N68  1  0.87739610  0.90114248  0.37053543  1
  N  N69  1  0.74929707  0.77297183  0.08867482  1
  N  N70  1  0.55747934  0.87327756  0.82374654  1
  N  N71  1  0.44878999  0.76432669  0.57562743  1
