# generated using pymatgen
data_Al17BN18
_symmetry_space_group_name_H-M   'P 1'
_cell_length_a   9.32602084
_cell_length_b   9.31060809
_cell_length_c   10.04843319
_cell_angle_alpha   89.59967779
_cell_angle_beta   89.94839108
_cell_angle_gamma   59.93341378
_symmetry_Int_Tables_number   1
_chemical_formula_structural   Al17BN18
_chemical_formula_sum   'Al34 B2 N36'
_cell_volume   755.09059372
_cell_formula_units_Z   2
loop_
 _symmetry_equiv_pos_site_id
 _symmetry_equiv_pos_as_xyz
  1  'x, y, z'
loop_
 _atom_site_type_symbol
 _atom_site_label
 _atom_site_symmetry_multiplicity
 _atom_site_fract_x
 _atom_site_fract_y
 _atom_site_fract_z
 _atom_site_occupancy
  Al  Al0  1  0.10503616  0.09298994  0.31267610  1
  Al  Al1  1  0.21933158  0.20277974  0.07047726  1
  Al  Al2  1  0.77740620  0.09412537  0.81651009  1
  Al  Al3  1  0.88673826  0.20327075  0.56032178  1
  Al  Al4  1  0.44996787  0.09146802  0.37569113  1
  Al  Al5  1  0.56215458  0.20076523  0.07850897  1
  Al  Al6  1  0.11117707  0.09477511  0.81450174  1
  Al  Al7  1  0.21515843  0.20993230  0.56224021  1
  Al  Al8  1  0.88689323  0.20457867  0.06843364  1
  Al  Al9  1  0.45374223  0.07924598  0.88747131  1
  Al  Al10  1  0.56498295  0.20779239  0.56006698  1
  Al  Al11  1  0.10931645  0.42991874  0.31153415  1
  Al  Al12  1  0.22184392  0.53979230  0.06221809  1
  Al  Al13  1  0.77867409  0.42646924  0.81315403  1
  Al  Al14  1  0.88902797  0.53972560  0.56085285  1
  Al  Al15  1  0.44885918  0.42534262  0.31266225  1
  Al  Al16  1  0.55735249  0.54391517  0.06289392  1
  Al  Al17  1  0.11330461  0.42518160  0.81467318  1
  Al  Al18  1  0.22250293  0.53865149  0.56474567  1
  Al  Al19  1  0.77603219  0.42450959  0.31285779  1
  Al  Al20  1  0.88080429  0.54493525  0.06310564  1
  Al  Al21  1  0.44660312  0.42354890  0.81552103  1
  Al  Al22  1  0.55559341  0.53948730  0.56138254  1
  Al  Al23  1  0.10727733  0.76580793  0.31248177  1
  Al  Al24  1  0.22663146  0.87351445  0.06329643  1
  Al  Al25  1  0.78553081  0.75847862  0.81168901  1
  Al  Al26  1  0.88725884  0.87776480  0.55762748  1
  Al  Al27  1  0.44287012  0.76138726  0.31367080  1
  Al  Al28  1  0.10980845  0.76229471  0.81380106  1
  Al  Al29  1  0.22144777  0.87220707  0.56137658  1
  Al  Al30  1  0.77578002  0.76771907  0.31372854  1
  Al  Al31  1  0.88147454  0.87630553  0.07019294  1
  Al  Al32  1  0.44204609  0.75756111  0.81126548  1
  Al  Al33  1  0.55331239  0.87882390  0.62225212  1
  B  B34  1  0.77843583  0.09571087  0.31030983  1
  B  B35  1  0.55365339  0.87409949  0.13186057  1
  N  N36  1  0.21291207  0.20902811  0.36866715  1
  N  N37  1  0.10903926  0.09282771  0.12491415  1
  N  N38  1  0.88888762  0.20407319  0.87730058  1
  N  N39  1  0.77920614  0.09371846  0.62840128  1
  N  N40  1  0.58423067  0.19602349  0.36334724  1
  N  N41  1  0.46047090  0.06070387  0.08741207  1
  N  N42  1  0.22106210  0.20498304  0.87777050  1
  N  N43  1  0.10942564  0.09489988  0.62292735  1
  N  N44  1  0.87635590  0.19324099  0.36728261  1
  N  N45  1  0.78021904  0.09378114  0.14655833  1
  N  N46  1  0.56041625  0.20505580  0.88428184  1
  N  N47  1  0.44502263  0.09859857  0.57098801  1
  N  N48  1  0.22268190  0.53832579  0.37378419  1
  N  N49  1  0.10863931  0.43043359  0.12226409  1
  N  N50  1  0.88950630  0.53802568  0.87349476  1
  N  N51  1  0.77897528  0.42638814  0.62118183  1
  N  N52  1  0.55499587  0.53935240  0.37210604  1
  N  N53  1  0.44373813  0.43034593  0.12392070  1
  N  N54  1  0.22306650  0.53834577  0.87238277  1
  N  N55  1  0.11045260  0.42807921  0.62459638  1
  N  N56  1  0.88736007  0.54041464  0.37069367  1
  N  N57  1  0.77759091  0.42754528  0.12388755  1
  N  N58  1  0.55639996  0.53757639  0.87359782  1
  N  N59  1  0.44644251  0.42620870  0.62385825  1
  N  N60  1  0.22151761  0.87156653  0.37206021  1
  N  N61  1  0.11098969  0.76154609  0.12296750  1
  N  N62  1  0.88887759  0.87282561  0.87937316  1
  N  N63  1  0.78678644  0.75912155  0.61770589  1
  N  N64  1  0.55312473  0.87391275  0.33662789  1
  N  N65  1  0.45626707  0.77248392  0.11983255  1
  N  N66  1  0.22279448  0.87144125  0.87395244  1
  N  N67  1  0.10896027  0.76266297  0.62211948  1
  N  N68  1  0.87683004  0.89735594  0.36494469  1
  N  N69  1  0.75288744  0.77330530  0.12049373  1
  N  N70  1  0.55599165  0.87342587  0.81716245  1
  N  N71  1  0.44056586  0.75807469  0.61931869  1
