# generated using pymatgen
data_Al17BN18
_symmetry_space_group_name_H-M   'P 1'
_cell_length_a   9.29810462
_cell_length_b   9.29615983
_cell_length_c   9.96938419
_cell_angle_alpha   89.88770498
_cell_angle_beta   89.97108696
_cell_angle_gamma   59.99613825
_symmetry_Int_Tables_number   1
_chemical_formula_structural   Al17BN18
_chemical_formula_sum   'Al34 B2 N36'
_cell_volume   746.24111664
_cell_formula_units_Z   2
loop_
 _symmetry_equiv_pos_site_id
 _symmetry_equiv_pos_as_xyz
  1  'x, y, z'
loop_
 _atom_site_type_symbol
 _atom_site_label
 _atom_site_symmetry_multiplicity
 _atom_site_fract_x
 _atom_site_fract_y
 _atom_site_fract_z
 _atom_site_occupancy
  Al  Al0  1  0.10688334  0.09263711  0.39617456  1
  Al  Al1  1  0.22553216  0.20099062  0.14662154  1
  Al  Al2  1  0.77742354  0.09441228  0.88990939  1
  Al  Al3  1  0.88756634  0.20429798  0.64334264  1
  Al  Al4  1  0.45175515  0.09022918  0.38921174  1
  Al  Al5  1  0.56223743  0.19791364  0.14539766  1
  Al  Al6  1  0.11088057  0.09476842  0.89619777  1
  Al  Al7  1  0.22408609  0.20412106  0.64505923  1
  Al  Al8  1  0.88637500  0.20293512  0.14538986  1
  Al  Al9  1  0.44705559  0.08934610  0.90015643  1
  Al  Al10  1  0.55724638  0.20330966  0.64286386  1
  Al  Al11  1  0.11106546  0.42748596  0.39709762  1
  Al  Al12  1  0.22210780  0.53865385  0.14733760  1
  Al  Al13  1  0.77802326  0.42761143  0.89623206  1
  Al  Al14  1  0.88729239  0.54090858  0.64470561  1
  Al  Al15  1  0.45110847  0.42293976  0.39578704  1
  Al  Al16  1  0.55715139  0.54279557  0.14628164  1
  Al  Al17  1  0.11104649  0.42796393  0.89532262  1
  Al  Al18  1  0.22239603  0.53918391  0.64514963  1
  Al  Al19  1  0.77619564  0.42320987  0.39618431  1
  Al  Al20  1  0.88426291  0.54221606  0.14656564  1
  Al  Al21  1  0.44414286  0.42734153  0.89650940  1
  Al  Al22  1  0.55514355  0.53982251  0.64578518  1
  Al  Al23  1  0.10657012  0.76750134  0.39546315  1
  Al  Al24  1  0.22631180  0.87378204  0.14623529  1
  Al  Al25  1  0.77255893  0.76370953  0.89978379  1
  Al  Al26  1  0.88650316  0.87413255  0.64267079  1
  Al  Al27  1  0.44599971  0.76222562  0.39044808  1
  Al  Al28  1  0.11084075  0.76086523  0.89605666  1
  Al  Al29  1  0.22316513  0.87188621  0.64550679  1
  Al  Al30  1  0.77393633  0.76826212  0.38877507  1
  Al  Al31  1  0.88159409  0.87866714  0.14438722  1
  Al  Al32  1  0.44713799  0.76391625  0.89949328  1
  Al  Al33  1  0.55591918  0.87267272  0.64365382  1
  B  B34  1  0.77805108  0.09413854  0.38200580  1
  B  B35  1  0.55546739  0.87233176  0.14991071  1
  N  N36  1  0.22215589  0.20495481  0.33680358  1
  N  N37  1  0.10951338  0.09555021  0.08745662  1
  N  N38  1  0.88943930  0.20628802  0.83490014  1
  N  N39  1  0.77750004  0.09444920  0.58061150  1
  N  N40  1  0.58371980  0.19158209  0.33907349  1
  N  N41  1  0.45728211  0.07018224  0.09508164  1
  N  N42  1  0.22462500  0.20413505  0.83792846  1
  N  N43  1  0.11100254  0.09462637  0.58625033  1
  N  N44  1  0.87541267  0.19175317  0.33992945  1
  N  N45  1  0.77793688  0.09502070  0.07836552  1
  N  N46  1  0.55281630  0.20515538  0.83636177  1
  N  N47  1  0.44523411  0.09317564  0.58051569  1
  N  N48  1  0.22268964  0.53907848  0.33796553  1
  N  N49  1  0.11078635  0.42769801  0.08674147  1
  N  N50  1  0.88722324  0.54141909  0.83760145  1
  N  N51  1  0.77763980  0.42787329  0.58625062  1
  N  N52  1  0.55580424  0.53897265  0.33562269  1
  N  N53  1  0.44549383  0.42640334  0.08874711  1
  N  N54  1  0.22242265  0.53913154  0.83640005  1
  N  N55  1  0.11082078  0.42768374  0.58768699  1
  N  N56  1  0.88844888  0.53857898  0.33675978  1
  N  N57  1  0.77876429  0.42625819  0.08749470  1
  N  N58  1  0.55436155  0.54084958  0.83854371  1
  N  N59  1  0.44494415  0.42735176  0.58616052  1
  N  N60  1  0.22263717  0.87229697  0.33559485  1
  N  N61  1  0.11013112  0.76210852  0.08829096  1
  N  N62  1  0.88829247  0.86976257  0.83635741  1
  N  N63  1  0.77619699  0.76230149  0.58020544  1
  N  N64  1  0.55542159  0.87190233  0.31435975  1
  N  N65  1  0.45719376  0.77395073  0.09327925  1
  N  N66  1  0.22412380  0.87128714  0.83823188  1
  N  N67  1  0.11042750  0.76186862  0.58594584  1
  N  N68  1  0.87539539  0.90001581  0.33838414  1
  N  N69  1  0.75344454  0.77396269  0.09472533  1
  N  N70  1  0.55558434  0.87258535  0.83263186  1
  N  N71  1  0.44528546  0.76199662  0.58245197  1
