# generated using pymatgen
data_Al17BN18
_symmetry_space_group_name_H-M   'P 1'
_cell_length_a   9.32286341
_cell_length_b   9.31408335
_cell_length_c   9.99234670
_cell_angle_alpha   89.71040350
_cell_angle_beta   89.93810276
_cell_angle_gamma   59.96190833
_symmetry_Int_Tables_number   1
_chemical_formula_structural   Al17BN18
_chemical_formula_sum   'Al34 B2 N36'
_cell_volume   751.12909423
_cell_formula_units_Z   2
loop_
 _symmetry_equiv_pos_site_id
 _symmetry_equiv_pos_as_xyz
  1  'x, y, z'
loop_
 _atom_site_type_symbol
 _atom_site_label
 _atom_site_symmetry_multiplicity
 _atom_site_fract_x
 _atom_site_fract_y
 _atom_site_fract_z
 _atom_site_occupancy
  Al  Al0  1  0.10576227  0.09270582  0.31199687  1
  Al  Al1  1  0.22526517  0.19928336  0.06668538  1
  Al  Al2  1  0.77824631  0.09362805  0.81584672  1
  Al  Al3  1  0.88669094  0.20297676  0.55971413  1
  Al  Al4  1  0.45071310  0.09037839  0.36022711  1
  Al  Al5  1  0.56009613  0.19785095  0.07430851  1
  Al  Al6  1  0.11024683  0.09430887  0.81380852  1
  Al  Al7  1  0.21678622  0.20916067  0.56392677  1
  Al  Al8  1  0.88684756  0.20489373  0.06805492  1
  Al  Al9  1  0.44774044  0.09123138  0.83707827  1
  Al  Al10  1  0.56385579  0.20688282  0.56134185  1
  Al  Al11  1  0.11053103  0.42865562  0.31085651  1
  Al  Al12  1  0.22207321  0.53947796  0.06169693  1
  Al  Al13  1  0.77792466  0.42770978  0.81303718  1
  Al  Al14  1  0.89018214  0.53874198  0.56040062  1
  Al  Al15  1  0.44903143  0.42460938  0.31191513  1
  Al  Al16  1  0.55758132  0.54390248  0.06300825  1
  Al  Al17  1  0.11068063  0.42811101  0.81414112  1
  Al  Al18  1  0.22248286  0.53864332  0.56426525  1
  Al  Al19  1  0.77645192  0.42362364  0.31232069  1
  Al  Al20  1  0.88092548  0.54457574  0.06319724  1
  Al  Al21  1  0.44603857  0.42646003  0.81485239  1
  Al  Al22  1  0.55534350  0.53843727  0.56089679  1
  Al  Al23  1  0.10782438  0.76530596  0.31205001  1
  Al  Al24  1  0.22640812  0.87452820  0.06311740  1
  Al  Al25  1  0.78108226  0.76092909  0.80968566  1
  Al  Al26  1  0.88767361  0.87730376  0.55753245  1
  Al  Al27  1  0.44686316  0.76340318  0.31727468  1
  Al  Al28  1  0.10933201  0.76282203  0.81383906  1
  Al  Al29  1  0.22141030  0.87171892  0.56126287  1
  Al  Al30  1  0.77098820  0.76903728  0.31714247  1
  Al  Al31  1  0.88082867  0.87717585  0.07017937  1
  Al  Al32  1  0.44366103  0.75994521  0.80941422  1
  Al  Al33  1  0.55752444  0.86939780  0.58527662  1
  B  B34  1  0.77873005  0.09473674  0.30920079  1
  B  B35  1  0.55316184  0.87584977  0.10420066  1
  N  N36  1  0.21615972  0.20701843  0.37045642  1
  N  N37  1  0.10953382  0.09413481  0.12331783  1
  N  N38  1  0.88814189  0.20491976  0.87651788  1
  N  N39  1  0.77963976  0.09343874  0.62734162  1
  N  N40  1  0.58334130  0.19451433  0.36488775  1
  N  N41  1  0.45957233  0.06262251  0.10685460  1
  N  N42  1  0.22095955  0.20582931  0.87430200  1
  N  N43  1  0.10896000  0.09468223  0.62173702  1
  N  N44  1  0.87651829  0.19259331  0.36594575  1
  N  N45  1  0.77875125  0.09479562  0.14504147  1
  N  N46  1  0.55868618  0.20559982  0.88056292  1
  N  N47  1  0.44300199  0.10219198  0.59571191  1
  N  N48  1  0.22289985  0.53807233  0.37259535  1
  N  N49  1  0.10985648  0.42869380  0.12078549  1
  N  N50  1  0.88845180  0.53960169  0.87333707  1
  N  N51  1  0.77897757  0.42626414  0.62005991  1
  N  N52  1  0.55514545  0.53889251  0.37023636  1
  N  N53  1  0.44442736  0.42881677  0.12232496  1
  N  N54  1  0.22263588  0.53897004  0.87141511  1
  N  N55  1  0.11017006  0.42848099  0.62360454  1
  N  N56  1  0.88827036  0.53932174  0.36883346  1
  N  N57  1  0.77751120  0.42771808  0.12312349  1
  N  N58  1  0.55563393  0.53912715  0.87346580  1
  N  N59  1  0.44623206  0.42650704  0.62277522  1
  N  N60  1  0.22274513  0.87131900  0.37042819  1
  N  N61  1  0.11104409  0.76162297  0.12208616  1
  N  N62  1  0.88817505  0.87291638  0.87908114  1
  N  N63  1  0.78851177  0.75773101  0.61776809  1
  N  N64  1  0.55846173  0.86499283  0.38549802  1
  N  N65  1  0.45890359  0.77645932  0.12105949  1
  N  N66  1  0.22301608  0.87150098  0.87345214  1
  N  N67  1  0.10887622  0.76262467  0.62120507  1
  N  N68  1  0.87646595  0.89699496  0.36329491  1
  N  N69  1  0.74655562  0.77698535  0.12188493  1
  N  N70  1  0.55747932  0.86974987  0.83095472  1
  N  N71  1  0.43999109  0.75643929  0.61943247  1
