# generated using pymatgen
data_Al17BN18
_symmetry_space_group_name_H-M   'P 1'
_cell_length_a   9.32396150
_cell_length_b   9.33481310
_cell_length_c   10.08982216
_cell_angle_alpha   89.68647494
_cell_angle_beta   89.60519810
_cell_angle_gamma   60.00398478
_symmetry_Int_Tables_number   1
_chemical_formula_structural   Al17BN18
_chemical_formula_sum   'Al34 B2 N36'
_cell_volume   760.54721118
_cell_formula_units_Z   2
loop_
 _symmetry_equiv_pos_site_id
 _symmetry_equiv_pos_as_xyz
  1  'x, y, z'
loop_
 _atom_site_type_symbol
 _atom_site_label
 _atom_site_symmetry_multiplicity
 _atom_site_fract_x
 _atom_site_fract_y
 _atom_site_fract_z
 _atom_site_occupancy
  Al  Al0  1  0.10340471  0.08992873  0.32292893  1
  Al  Al1  1  0.23250024  0.19604103  0.14087993  1
  Al  Al2  1  0.77463550  0.09340852  0.82636806  1
  Al  Al3  1  0.88619464  0.20362690  0.56952455  1
  Al  Al4  1  0.44865579  0.09016963  0.38300079  1
  Al  Al5  1  0.56184102  0.20155317  0.08536038  1
  Al  Al6  1  0.10552728  0.09126928  0.82362612  1
  Al  Al7  1  0.22878947  0.20399854  0.63932227  1
  Al  Al8  1  0.88735551  0.20377689  0.07630982  1
  Al  Al9  1  0.44389555  0.08458838  0.90017173  1
  Al  Al10  1  0.56372807  0.20640052  0.56745044  1
  Al  Al11  1  0.11172425  0.43203752  0.32404223  1
  Al  Al12  1  0.22388889  0.54040657  0.07247157  1
  Al  Al13  1  0.77799125  0.42697046  0.82248255  1
  Al  Al14  1  0.89042867  0.53424894  0.56783729  1
  Al  Al15  1  0.45088730  0.42494127  0.32210747  1
  Al  Al16  1  0.55658340  0.54344871  0.07078085  1
  Al  Al17  1  0.10725292  0.43336347  0.83204766  1
  Al  Al18  1  0.22145319  0.54027342  0.57354416  1
  Al  Al19  1  0.77576138  0.42209706  0.32103943  1
  Al  Al20  1  0.88545012  0.53606732  0.08128669  1
  Al  Al21  1  0.44585238  0.42341076  0.82383117  1
  Al  Al22  1  0.55484334  0.54031363  0.57142402  1
  Al  Al23  1  0.11019476  0.76645104  0.32137223  1
  Al  Al24  1  0.22773802  0.87312377  0.07040867  1
  Al  Al25  1  0.76465364  0.76811716  0.90008672  1
  Al  Al26  1  0.88900312  0.88129249  0.56690371  1
  Al  Al27  1  0.44443762  0.76015047  0.31644459  1
  Al  Al28  1  0.10654768  0.76268509  0.82328197  1
  Al  Al29  1  0.22314515  0.87283516  0.57086951  1
  Al  Al30  1  0.77300470  0.76958474  0.37602628  1
  Al  Al31  1  0.88547737  0.87819719  0.08771314  1
  Al  Al32  1  0.44118067  0.75729753  0.82069636  1
  Al  Al33  1  0.56055434  0.87584203  0.63910403  1
  B  B34  1  0.77870744  0.09650274  0.31933573  1
  B  B35  1  0.55927644  0.87387170  0.15041557  1
  N  N36  1  0.22653951  0.20192401  0.33452776  1
  N  N37  1  0.10749202  0.09066600  0.13140476  1
  N  N38  1  0.88559584  0.20515027  0.88627317  1
  N  N39  1  0.77653197  0.09448825  0.63850910  1
  N  N40  1  0.58445335  0.19592576  0.37375308  1
  N  N41  1  0.45811632  0.06376639  0.09159530  1
  N  N42  1  0.22814069  0.20121093  0.83712723  1
  N  N43  1  0.10615566  0.09342184  0.62999473  1
  N  N44  1  0.87588292  0.19421892  0.37736773  1
  N  N45  1  0.77830350  0.09611245  0.15679385  1
  N  N46  1  0.55712271  0.20626506  0.89260183  1
  N  N47  1  0.44403506  0.09218536  0.57315888  1
  N  N48  1  0.22393086  0.54064307  0.38341797  1
  N  N49  1  0.11146492  0.43094516  0.12809153  1
  N  N50  1  0.88675352  0.53653021  0.88813804  1
  N  N51  1  0.77790388  0.42636037  0.63129158  1
  N  N52  1  0.55533560  0.54165276  0.38245287  1
  N  N53  1  0.44495942  0.42922206  0.13402930  1
  N  N54  1  0.22300537  0.54058828  0.88327649  1
  N  N55  1  0.10668758  0.43464451  0.63136497  1
  N  N56  1  0.89037138  0.53231276  0.37476108  1
  N  N57  1  0.77551138  0.42487482  0.13404306  1
  N  N58  1  0.55530751  0.53784618  0.88176282  1
  N  N59  1  0.44534706  0.42516671  0.63243721  1
  N  N60  1  0.22585335  0.87098092  0.38244492  1
  N  N61  1  0.11401681  0.76113451  0.13371453  1
  N  N62  1  0.88929478  0.87592212  0.89300876  1
  N  N63  1  0.77269310  0.76600311  0.57097325  1
  N  N64  1  0.55940667  0.87788870  0.31026067  1
  N  N65  1  0.45382353  0.76937230  0.12640132  1
  N  N66  1  0.22160942  0.87089405  0.88215238  1
  N  N67  1  0.10793896  0.76367802  0.63206580  1
  N  N68  1  0.88096199  0.90150563  0.37179905  1
  N  N69  1  0.74831109  0.77501331  0.09613957  1
  N  N70  1  0.55762019  0.87474713  0.82680612  1
  N  N71  1  0.44194252  0.75917306  0.63003930  1
