# generated using pymatgen
data_Al17BN18
_symmetry_space_group_name_H-M   'P 1'
_cell_length_a   9.32758422
_cell_length_b   9.32510921
_cell_length_c   10.12619197
_cell_angle_alpha   89.67474609
_cell_angle_beta   89.74971756
_cell_angle_gamma   60.01771854
_symmetry_Int_Tables_number   1
_chemical_formula_structural   Al17BN18
_chemical_formula_sum   'Al34 B2 N36'
_cell_volume   762.90371667
_cell_formula_units_Z   2
loop_
 _symmetry_equiv_pos_site_id
 _symmetry_equiv_pos_as_xyz
  1  'x, y, z'
loop_
 _atom_site_type_symbol
 _atom_site_label
 _atom_site_symmetry_multiplicity
 _atom_site_fract_x
 _atom_site_fract_y
 _atom_site_fract_z
 _atom_site_occupancy
  Al  Al0  1  0.10199319  0.09172394  0.31941785  1
  Al  Al1  1  0.22857322  0.20357290  0.14034672  1
  Al  Al2  1  0.77629551  0.09257460  0.82395519  1
  Al  Al3  1  0.88723784  0.20346345  0.56750362  1
  Al  Al4  1  0.44905961  0.08851404  0.37779397  1
  Al  Al5  1  0.56200373  0.20035367  0.08307033  1
  Al  Al6  1  0.10773153  0.09098761  0.82106095  1
  Al  Al7  1  0.22900710  0.20651655  0.63816366  1
  Al  Al8  1  0.88737054  0.20495757  0.07407268  1
  Al  Al9  1  0.44502252  0.08683633  0.89622972  1
  Al  Al10  1  0.56439078  0.20433410  0.56456991  1
  Al  Al11  1  0.10833719  0.42502880  0.39078531  1
  Al  Al12  1  0.22468110  0.54210602  0.06967883  1
  Al  Al13  1  0.77501617  0.42394119  0.82158749  1
  Al  Al14  1  0.89042589  0.54544399  0.63802014  1
  Al  Al15  1  0.44761340  0.42361497  0.31987712  1
  Al  Al16  1  0.55872856  0.53900210  0.07932960  1
  Al  Al17  1  0.10818760  0.42436810  0.88870765  1
  Al  Al18  1  0.22548591  0.54239048  0.57215120  1
  Al  Al19  1  0.77545904  0.41890757  0.32027144  1
  Al  Al20  1  0.88685598  0.54578773  0.14053339  1
  Al  Al21  1  0.44569221  0.42493955  0.82249501  1
  Al  Al22  1  0.55935188  0.53417017  0.57130506  1
  Al  Al23  1  0.10731484  0.76516343  0.31914683  1
  Al  Al24  1  0.22033202  0.87730529  0.07423495  1
  Al  Al25  1  0.77114791  0.76133711  0.89617883  1
  Al  Al26  1  0.88829533  0.88087159  0.56449546  1
  Al  Al27  1  0.44755327  0.76442730  0.37954730  1
  Al  Al28  1  0.10900437  0.76203722  0.82198598  1
  Al  Al29  1  0.21715689  0.87648245  0.56937062  1
  Al  Al30  1  0.77181476  0.76626048  0.37763147  1
  Al  Al31  1  0.88353120  0.87915613  0.08320323  1
  Al  Al32  1  0.45075105  0.76522653  0.88986417  1
  Al  Al33  1  0.55721094  0.87340777  0.63680378  1
  B  B34  1  0.77790108  0.09461853  0.31756975  1
  B  B35  1  0.55307948  0.87097314  0.14308709  1
  N  N36  1  0.22424229  0.20803943  0.32921436  1
  N  N37  1  0.10616735  0.09379798  0.13100581  1
  N  N38  1  0.88836549  0.20416532  0.88516707  1
  N  N39  1  0.77727135  0.09361456  0.63643443  1
  N  N40  1  0.58437869  0.19362012  0.37110548  1
  N  N41  1  0.45526507  0.06624734  0.08860895  1
  N  N42  1  0.22874588  0.20529643  0.82974028  1
  N  N43  1  0.10658406  0.09379396  0.62992187  1
  N  N44  1  0.87685517  0.19334728  0.37662611  1
  N  N45  1  0.77846376  0.09573320  0.15488003  1
  N  N46  1  0.55924776  0.20621061  0.89060533  1
  N  N47  1  0.44435385  0.09101446  0.56957523  1
  N  N48  1  0.22528943  0.54277559  0.38147372  1
  N  N49  1  0.10768649  0.42472879  0.07856857  1
  N  N50  1  0.88923429  0.54515741  0.82955036  1
  N  N51  1  0.77787719  0.42287449  0.62959942  1
  N  N52  1  0.55773560  0.53356164  0.37690050  1
  N  N53  1  0.44263204  0.42721935  0.13323419  1
  N  N54  1  0.22518578  0.54156444  0.87925185  1
  N  N55  1  0.10895626  0.42521622  0.58047531  1
  N  N56  1  0.89136172  0.54148218  0.32942316  1
  N  N57  1  0.77720688  0.42335868  0.13149387  1
  N  N58  1  0.55702057  0.53532852  0.88274559  1
  N  N59  1  0.44646715  0.42357569  0.63188917  1
  N  N60  1  0.21612432  0.87520800  0.37872619  1
  N  N61  1  0.11086289  0.76046499  0.13257541  1
  N  N62  1  0.89065929  0.87539244  0.89058904  1
  N  N63  1  0.77467720  0.76116108  0.56951258  1
  N  N64  1  0.55495634  0.87204593  0.30464187  1
  N  N65  1  0.45773275  0.77584807  0.08881567  1
  N  N66  1  0.21964917  0.87306485  0.88289433  1
  N  N67  1  0.10762336  0.76327936  0.63185111  1
  N  N68  1  0.87735562  0.90113002  0.37074770  1
  N  N69  1  0.74928567  0.77261221  0.08857785  1
  N  N70  1  0.55787618  0.87376935  0.82346619  1
  N  N71  1  0.44809211  0.76474093  0.57766820  1
