# generated using pymatgen
data_Al17BN18
_symmetry_space_group_name_H-M   'P 1'
_cell_length_a   9.31203077
_cell_length_b   9.31130706
_cell_length_c   10.13498104
_cell_angle_alpha   89.60817156
_cell_angle_beta   89.60850598
_cell_angle_gamma   60.02282901
_symmetry_Int_Tables_number   1
_chemical_formula_structural   Al17BN18
_chemical_formula_sum   'Al34 B2 N36'
_cell_volume   761.19328867
_cell_formula_units_Z   2
loop_
 _symmetry_equiv_pos_site_id
 _symmetry_equiv_pos_as_xyz
  1  'x, y, z'
loop_
 _atom_site_type_symbol
 _atom_site_label
 _atom_site_symmetry_multiplicity
 _atom_site_fract_x
 _atom_site_fract_y
 _atom_site_fract_z
 _atom_site_occupancy
  Al  Al0  1  0.10590535  0.09239687  0.38926672  1
  Al  Al1  1  0.22345799  0.20076297  0.13843308  1
  Al  Al2  1  0.77385597  0.09028808  0.82043669  1
  Al  Al3  1  0.89256180  0.20903363  0.63883828  1
  Al  Al4  1  0.44821862  0.08775062  0.37380832  1
  Al  Al5  1  0.55930149  0.20025734  0.08136205  1
  Al  Al6  1  0.11062153  0.09336029  0.88860647  1
  Al  Al7  1  0.22743012  0.20480679  0.63586339  1
  Al  Al8  1  0.88922319  0.20607206  0.14325172  1
  Al  Al9  1  0.44472478  0.08581761  0.89361048  1
  Al  Al10  1  0.56582815  0.20568430  0.55891466  1
  Al  Al11  1  0.10682436  0.42438825  0.38691007  1
  Al  Al12  1  0.22303785  0.54221477  0.06986148  1
  Al  Al13  1  0.77833106  0.42664334  0.88892189  1
  Al  Al14  1  0.88856163  0.54322881  0.63585046  1
  Al  Al15  1  0.44648717  0.42236638  0.31842358  1
  Al  Al16  1  0.55953638  0.54624991  0.13782035  1
  Al  Al17  1  0.10834379  0.42420773  0.88632473  1
  Al  Al18  1  0.22598957  0.54228600  0.56702713  1
  Al  Al19  1  0.77552935  0.42290278  0.38947037  1
  Al  Al20  1  0.88314073  0.54135828  0.13828997  1
  Al  Al21  1  0.44473345  0.42286087  0.82641553  1
  Al  Al22  1  0.55831927  0.54285006  0.63745962  1
  Al  Al23  1  0.10356003  0.76474945  0.31661785  1
  Al  Al24  1  0.22954220  0.87659177  0.13774749  1
  Al  Al25  1  0.76945652  0.76082632  0.89239373  1
  Al  Al26  1  0.88927160  0.88229267  0.55984447  1
  Al  Al27  1  0.44540286  0.76216236  0.38323308  1
  Al  Al28  1  0.10579806  0.75938126  0.81896519  1
  Al  Al29  1  0.22762888  0.87508482  0.63721283  1
  Al  Al30  1  0.77117328  0.76537572  0.37455082  1
  Al  Al31  1  0.88419767  0.87643940  0.07754381  1
  Al  Al32  1  0.44665910  0.76371363  0.89044171  1
  Al  Al33  1  0.55855057  0.87470930  0.63305584  1
  B  B34  1  0.77599128  0.09196678  0.31001714  1
  B  B35  1  0.55447900  0.87121957  0.13997474  1
  N  N36  1  0.22028187  0.20523019  0.32526701  1
  N  N37  1  0.10765856  0.09494838  0.07654018  1
  N  N38  1  0.89188853  0.20801982  0.82881306  1
  N  N39  1  0.77508029  0.09191342  0.63300420  1
  N  N40  1  0.58454675  0.19371655  0.36676845  1
  N  N41  1  0.45297238  0.06516345  0.08675336  1
  N  N42  1  0.22666491  0.20335590  0.82648569  1
  N  N43  1  0.11206527  0.09495995  0.57687456  1
  N  N44  1  0.87989352  0.19690789  0.33267191  1
  N  N45  1  0.77319289  0.08851220  0.15030868  1
  N  N46  1  0.55995780  0.20529364  0.89080535  1
  N  N47  1  0.44433379  0.09167281  0.56572678  1
  N  N48  1  0.22341373  0.54273122  0.37672833  1
  N  N49  1  0.10628635  0.42383729  0.07734418  1
  N  N50  1  0.88768738  0.54251473  0.82620586  1
  N  N51  1  0.77848886  0.42849440  0.57710470  1
  N  N52  1  0.55880041  0.54229110  0.32724385  1
  N  N53  1  0.44173243  0.42613344  0.12817030  1
  N  N54  1  0.22456664  0.54189106  0.87976415  1
  N  N55  1  0.10872069  0.42497810  0.57762099  1
  N  N56  1  0.88777697  0.53778747  0.32523521  1
  N  N57  1  0.77810855  0.42456456  0.07673708  1
  N  N58  1  0.55811436  0.54349219  0.82965934  1
  N  N59  1  0.44544186  0.42261259  0.62513981  1
  N  N60  1  0.22531282  0.87546303  0.32734673  1
  N  N61  1  0.10777530  0.76013497  0.12856147  1
  N  N62  1  0.89000256  0.87487709  0.88767154  1
  N  N63  1  0.77582229  0.76043935  0.56643963  1
  N  N64  1  0.55479931  0.87099656  0.30225666  1
  N  N65  1  0.45612232  0.77290966  0.08165736  1
  N  N66  1  0.22703525  0.87347329  0.82877475  1
  N  N67  1  0.10592302  0.76128091  0.62735593  1
  N  N68  1  0.87698332  0.90201438  0.36848673  1
  N  N69  1  0.74837460  0.77056439  0.08546891  1
  N  N70  1  0.55682543  0.87361683  0.82060404  1
  N  N71  1  0.44674123  0.76241708  0.57248926  1
