# generated using pymatgen
data_Al17BN18
_symmetry_space_group_name_H-M   'P 1'
_cell_length_a   9.35244272
_cell_length_b   9.34104417
_cell_length_c   10.11891069
_cell_angle_alpha   89.66601383
_cell_angle_beta   89.68943178
_cell_angle_gamma   59.93349220
_symmetry_Int_Tables_number   1
_chemical_formula_structural   Al17BN18
_chemical_formula_sum   'Al34 B2 N36'
_cell_volume   765.04017493
_cell_formula_units_Z   2
loop_
 _symmetry_equiv_pos_site_id
 _symmetry_equiv_pos_as_xyz
  1  'x, y, z'
loop_
 _atom_site_type_symbol
 _atom_site_label
 _atom_site_symmetry_multiplicity
 _atom_site_fract_x
 _atom_site_fract_y
 _atom_site_fract_z
 _atom_site_occupancy
  Al  Al0  1  0.10295387  0.09220760  0.32043833  1
  Al  Al1  1  0.22910799  0.20400820  0.14014093  1
  Al  Al2  1  0.77641206  0.09227431  0.82280953  1
  Al  Al3  1  0.88636031  0.20474526  0.56624634  1
  Al  Al4  1  0.44943871  0.08748252  0.37733466  1
  Al  Al5  1  0.56268718  0.20019051  0.08177527  1
  Al  Al6  1  0.10885063  0.09042676  0.82130162  1
  Al  Al7  1  0.22915582  0.20724854  0.63748530  1
  Al  Al8  1  0.88771373  0.20510964  0.07315402  1
  Al  Al9  1  0.44505198  0.08519855  0.89605832  1
  Al  Al10  1  0.56467669  0.20475328  0.56306731  1
  Al  Al11  1  0.10828400  0.42504043  0.39039589  1
  Al  Al12  1  0.22475810  0.54166292  0.06860938  1
  Al  Al13  1  0.78124625  0.42138287  0.82368379  1
  Al  Al14  1  0.89098822  0.54550393  0.63679687  1
  Al  Al15  1  0.44476613  0.42125433  0.31988842  1
  Al  Al16  1  0.55318114  0.54887566  0.13720998  1
  Al  Al17  1  0.10810781  0.42429577  0.88876398  1
  Al  Al18  1  0.22529153  0.54191002  0.57054124  1
  Al  Al19  1  0.77998472  0.41768985  0.32186557  1
  Al  Al20  1  0.88788158  0.54539373  0.13887283  1
  Al  Al21  1  0.44179736  0.42095409  0.82276646  1
  Al  Al22  1  0.55252870  0.54482382  0.63666110  1
  Al  Al23  1  0.10686921  0.76481006  0.31989883  1
  Al  Al24  1  0.22285498  0.87534723  0.08403382  1
  Al  Al25  1  0.76974260  0.76193773  0.89584444  1
  Al  Al26  1  0.88760011  0.88160415  0.56363458  1
  Al  Al27  1  0.44941841  0.76030660  0.38363759  1
  Al  Al28  1  0.10834994  0.76201620  0.82218868  1
  Al  Al29  1  0.21835112  0.87536602  0.57552324  1
  Al  Al30  1  0.77131859  0.76642283  0.37712360  1
  Al  Al31  1  0.88362260  0.87939183  0.08225137  1
  Al  Al32  1  0.45094328  0.76059656  0.89249744  1
  Al  Al33  1  0.55748681  0.87390259  0.63686038  1
  B  B34  1  0.77796127  0.09447883  0.31625342  1
  B  B35  1  0.55513046  0.87145706  0.14326934  1
  N  N36  1  0.22487871  0.20839233  0.32913270  1
  N  N37  1  0.10653287  0.09504832  0.13073423  1
  N  N38  1  0.88872295  0.20275468  0.88445215  1
  N  N39  1  0.77720053  0.09441183  0.63537464  1
  N  N40  1  0.58455406  0.19343432  0.37032633  1
  N  N41  1  0.45619394  0.06532592  0.08872578  1
  N  N42  1  0.22891974  0.20559705  0.82942990  1
  N  N43  1  0.10654756  0.09522398  0.62842472  1
  N  N44  1  0.87658545  0.19329839  0.37570779  1
  N  N45  1  0.77887303  0.09591546  0.15396528  1
  N  N46  1  0.55971152  0.20450594  0.88998273  1
  N  N47  1  0.44486674  0.09050432  0.56911441  1
  N  N48  1  0.22446519  0.54244673  0.38075908  1
  N  N49  1  0.10839937  0.42459993  0.07838602  1
  N  N50  1  0.88993432  0.54554563  0.82966739  1
  N  N51  1  0.78197375  0.42234964  0.62543628  1
  N  N52  1  0.55239779  0.54296465  0.33223467  1
  N  N53  1  0.44079468  0.42495454  0.13003201  1
  N  N54  1  0.22359665  0.54167898  0.87897246  1
  N  N55  1  0.10898660  0.42556959  0.57989738  1
  N  N56  1  0.89205987  0.54165658  0.32869983  1
  N  N57  1  0.78079984  0.42318199  0.12563969  1
  N  N58  1  0.55171407  0.54352600  0.83415127  1
  N  N59  1  0.44329580  0.42087899  0.62973154  1
  N  N60  1  0.21864673  0.87371233  0.37392402  1
  N  N61  1  0.11029155  0.75937079  0.13271773  1
  N  N62  1  0.88963695  0.87536589  0.88978958  1
  N  N63  1  0.77450755  0.76178920  0.56930970  1
  N  N64  1  0.55468820  0.87130909  0.30493898  1
  N  N65  1  0.45943086  0.77345190  0.08598797  1
  N  N66  1  0.22102606  0.87153833  0.87817756  1
  N  N67  1  0.10681795  0.76244777  0.63093526  1
  N  N68  1  0.87677256  0.90139697  0.37014865  1
  N  N69  1  0.74942518  0.77326399  0.08873094  1
  N  N70  1  0.55663271  0.87247275  0.82379995  1
  N  N71  1  0.45034749  0.76128819  0.57528064  1
