# generated using pymatgen
data_Al17BN18
_symmetry_space_group_name_H-M   'P 1'
_cell_length_a   9.33496145
_cell_length_b   9.32894637
_cell_length_c   10.03367322
_cell_angle_alpha   89.70756290
_cell_angle_beta   89.88657537
_cell_angle_gamma   59.94756299
_symmetry_Int_Tables_number   1
_chemical_formula_structural   Al17BN18
_chemical_formula_sum   'Al34 B2 N36'
_cell_volume   756.31068609
_cell_formula_units_Z   2
loop_
 _symmetry_equiv_pos_site_id
 _symmetry_equiv_pos_as_xyz
  1  'x, y, z'
loop_
 _atom_site_type_symbol
 _atom_site_label
 _atom_site_symmetry_multiplicity
 _atom_site_fract_x
 _atom_site_fract_y
 _atom_site_fract_z
 _atom_site_occupancy
  Al  Al0  1  0.10532020  0.09289693  0.32260870  1
  Al  Al1  1  0.21987306  0.20225026  0.08097123  1
  Al  Al2  1  0.77674206  0.09422706  0.82656128  1
  Al  Al3  1  0.88650327  0.20296757  0.57068157  1
  Al  Al4  1  0.45073919  0.09126852  0.38069803  1
  Al  Al5  1  0.56145810  0.20170453  0.08870403  1
  Al  Al6  1  0.11025335  0.09525835  0.82399125  1
  Al  Al7  1  0.21670094  0.20801295  0.57114946  1
  Al  Al8  1  0.88702614  0.20424288  0.07743219  1
  Al  Al9  1  0.45088154  0.08237505  0.89993383  1
  Al  Al10  1  0.56472500  0.20591439  0.56895817  1
  Al  Al11  1  0.11179035  0.42818913  0.32104628  1
  Al  Al12  1  0.22275922  0.53950388  0.07222926  1
  Al  Al13  1  0.77846604  0.42645149  0.82308915  1
  Al  Al14  1  0.88884446  0.53796437  0.56915634  1
  Al  Al15  1  0.44920783  0.42608127  0.32297914  1
  Al  Al16  1  0.55646401  0.54393694  0.07213623  1
  Al  Al17  1  0.11153201  0.42642740  0.82440372  1
  Al  Al18  1  0.22164496  0.53874742  0.57492017  1
  Al  Al19  1  0.77582638  0.42247386  0.32249751  1
  Al  Al20  1  0.88499818  0.53797126  0.08039238  1
  Al  Al21  1  0.44593424  0.42346356  0.82480251  1
  Al  Al22  1  0.55536186  0.54016316  0.57261404  1
  Al  Al23  1  0.11000730  0.76573121  0.32280634  1
  Al  Al24  1  0.22718042  0.87298134  0.07217843  1
  Al  Al25  1  0.77258235  0.76412765  0.88299346  1
  Al  Al26  1  0.88702890  0.87899309  0.56666537  1
  Al  Al27  1  0.44219696  0.76022964  0.31894932  1
  Al  Al28  1  0.10774788  0.76247216  0.82359083  1
  Al  Al29  1  0.22257081  0.87206448  0.57269195  1
  Al  Al30  1  0.77756815  0.76690490  0.34936471  1
  Al  Al31  1  0.88525876  0.87797705  0.08734944  1
  Al  Al32  1  0.44062333  0.75731047  0.82238171  1
  Al  Al33  1  0.55963910  0.87634365  0.63930862  1
  B  B34  1  0.77989971  0.09681593  0.31940856  1
  B  B35  1  0.55444033  0.87703029  0.15385074  1
  N  N36  1  0.21441514  0.20798169  0.37752767  1
  N  N37  1  0.10882684  0.09258065  0.13443364  1
  N  N38  1  0.88815967  0.20447278  0.88647967  1
  N  N39  1  0.77854515  0.09362354  0.63841730  1
  N  N40  1  0.58446402  0.19678812  0.37287893  1
  N  N41  1  0.45849971  0.06469104  0.09663530  1
  N  N42  1  0.21956947  0.20584478  0.88684895  1
  N  N43  1  0.10916974  0.09508222  0.63234607  1
  N  N44  1  0.87670081  0.19328031  0.37753755  1
  N  N45  1  0.77951136  0.09613869  0.15674644  1
  N  N46  1  0.55958349  0.20571559  0.89340588  1
  N  N47  1  0.44762058  0.09199945  0.57601161  1
  N  N48  1  0.22261170  0.53883392  0.38389991  1
  N  N49  1  0.11177582  0.42849648  0.13253295  1
  N  N50  1  0.89007903  0.53504812  0.88706327  1
  N  N51  1  0.77894928  0.42589256  0.63131684  1
  N  N52  1  0.55509813  0.54118425  0.38289610  1
  N  N53  1  0.44392580  0.43043421  0.13401259  1
  N  N54  1  0.22214229  0.53882433  0.88196381  1
  N  N55  1  0.11002787  0.42740082  0.63389462  1
  N  N56  1  0.89018647  0.53378861  0.37610874  1
  N  N57  1  0.77618928  0.42575813  0.13417382  1
  N  N58  1  0.55602041  0.53734047  0.88249977  1
  N  N59  1  0.44601743  0.42520609  0.63289348  1
  N  N60  1  0.22387495  0.87199764  0.38309335  1
  N  N61  1  0.11391142  0.76054393  0.13381111  1
  N  N62  1  0.88995161  0.87586392  0.89328332  1
  N  N63  1  0.77671336  0.76362790  0.58754447  1
  N  N64  1  0.55359837  0.87942891  0.31431592  1
  N  N65  1  0.45355512  0.77012160  0.12739889  1
  N  N66  1  0.22108670  0.87219777  0.88261909  1
  N  N67  1  0.10800920  0.76289676  0.63195882  1
  N  N68  1  0.88003315  0.90046635  0.37162323  1
  N  N69  1  0.75407902  0.77269836  0.11232109  1
  N  N70  1  0.55660607  0.87387694  0.82990192  1
  N  N71  1  0.44168622  0.75913177  0.63083607  1
