# generated using pymatgen
data_Al17BN18
_symmetry_space_group_name_H-M   'P 1'
_cell_length_a   9.31286737
_cell_length_b   9.31286368
_cell_length_c   10.15768694
_cell_angle_alpha   89.74909180
_cell_angle_beta   89.74869794
_cell_angle_gamma   60.07681233
_symmetry_Int_Tables_number   1
_chemical_formula_structural   Al17BN18
_chemical_formula_sum   'Al34 B2 N36'
_cell_volume   763.52310363
_cell_formula_units_Z   2
loop_
 _symmetry_equiv_pos_site_id
 _symmetry_equiv_pos_as_xyz
  1  'x, y, z'
loop_
 _atom_site_type_symbol
 _atom_site_label
 _atom_site_symmetry_multiplicity
 _atom_site_fract_x
 _atom_site_fract_y
 _atom_site_fract_z
 _atom_site_occupancy
  Al  Al0  1  0.11246938  0.08999416  0.38406942  1
  Al  Al1  1  0.22607497  0.20168813  0.13896707  1
  Al  Al2  1  0.77642477  0.09309990  0.82164609  1
  Al  Al3  1  0.88328713  0.19998843  0.56925987  1
  Al  Al4  1  0.44973000  0.08786106  0.37485781  1
  Al  Al5  1  0.56170130  0.20083359  0.08057490  1
  Al  Al6  1  0.11652609  0.09015143  0.88857571  1
  Al  Al7  1  0.22470458  0.20444677  0.63616258  1
  Al  Al8  1  0.88578020  0.20243142  0.07796984  1
  Al  Al9  1  0.44534062  0.08597027  0.89370234  1
  Al  Al10  1  0.56234731  0.20521722  0.56193015  1
  Al  Al11  1  0.10814562  0.42482703  0.38830260  1
  Al  Al12  1  0.22498807  0.54165562  0.06739613  1
  Al  Al13  1  0.77349638  0.43318252  0.88858515  1
  Al  Al14  1  0.88776981  0.54138492  0.63616682  1
  Al  Al15  1  0.44661729  0.42128218  0.31763261  1
  Al  Al16  1  0.55845897  0.54794892  0.13874097  1
  Al  Al17  1  0.10760730  0.42426878  0.88625061  1
  Al  Al18  1  0.22528000  0.54195994  0.56920391  1
  Al  Al19  1  0.77330393  0.42916731  0.38406838  1
  Al  Al20  1  0.88502675  0.54274637  0.13896929  1
  Al  Al21  1  0.44316208  0.42123700  0.82006899  1
  Al  Al22  1  0.55837677  0.54275687  0.63727906  1
  Al  Al23  1  0.10459097  0.76330498  0.31763912  1
  Al  Al24  1  0.23128744  0.87511571  0.13874597  1
  Al  Al25  1  0.76930610  0.76200469  0.89369273  1
  Al  Al26  1  0.88852806  0.87904453  0.56193964  1
  Al  Al27  1  0.44565904  0.76234217  0.38389168  1
  Al  Al28  1  0.10457381  0.75982876  0.82005447  1
  Al  Al29  1  0.22607519  0.87506105  0.63726497  1
  Al  Al30  1  0.77118027  0.76641802  0.37487301  1
  Al  Al31  1  0.88417035  0.87836517  0.08056001  1
  Al  Al32  1  0.44642377  0.76308890  0.89060204  1
  Al  Al33  1  0.55723426  0.87391798  0.63407456  1
  B  B34  1  0.78014664  0.09682885  0.31597435  1
  B  B35  1  0.55546640  0.87212975  0.14010834  1
  N  N36  1  0.22242446  0.20650941  0.32509600  1
  N  N37  1  0.11733024  0.09143179  0.07886003  1
  N  N38  1  0.88556349  0.20222080  0.88010630  1
  N  N39  1  0.77534641  0.09204755  0.63540435  1
  N  N40  1  0.58400448  0.19475652  0.37010613  1
  N  N41  1  0.45611801  0.06564669  0.08693610  1
  N  N42  1  0.22615411  0.20349458  0.82586859  1
  N  N43  1  0.11435512  0.09283155  0.57520396  1
  N  N44  1  0.87497809  0.19167462  0.37089477  1
  N  N45  1  0.77852171  0.09518147  0.15419314  1
  N  N46  1  0.55901569  0.20599929  0.88924400  1
  N  N47  1  0.44286062  0.09083814  0.56700228  1
  N  N48  1  0.22562503  0.54230868  0.37992878  1
  N  N49  1  0.10736726  0.42402783  0.07652161  1
  N  N50  1  0.88683288  0.54281320  0.82587149  1
  N  N51  1  0.77614062  0.43105327  0.57520308  1
  N  N52  1  0.55685226  0.54365432  0.32662641  1
  N  N53  1  0.44189440  0.42555451  0.12937788  1
  N  N54  1  0.22470074  0.54137336  0.87828657  1
  N  N55  1  0.10795211  0.42463080  0.57827887  1
  N  N56  1  0.88982860  0.53911694  0.32509976  1
  N  N57  1  0.77478376  0.43398298  0.07887032  1
  N  N58  1  0.55606233  0.54390169  0.82783758  1
  N  N59  1  0.44407887  0.42125184  0.62905695  1
  N  N60  1  0.22696766  0.87353706  0.32663195  1
  N  N61  1  0.10888237  0.75856122  0.12938280  1
  N  N62  1  0.88933433  0.87568175  0.88922864  1
  N  N63  1  0.77416190  0.75954660  0.56701679  1
  N  N64  1  0.55478643  0.87145806  0.30271372  1
  N  N65  1  0.45652385  0.77318532  0.08123674  1
  N  N66  1  0.22724414  0.87272168  0.82782234  1
  N  N67  1  0.10457039  0.76076471  0.62904519  1
  N  N68  1  0.87806738  0.90069919  0.37011852  1
  N  N69  1  0.74898229  0.77278394  0.08692627  1
  N  N70  1  0.55649604  0.87316441  0.82135497  1
  N  N71  1  0.44524568  0.76192352  0.57250547  1
