# generated using pymatgen
data_Al17BN18
_symmetry_space_group_name_H-M   'P 1'
_cell_length_a   9.32692598
_cell_length_b   9.30721448
_cell_length_c   10.06620279
_cell_angle_alpha   89.68460875
_cell_angle_beta   89.96039461
_cell_angle_gamma   59.92611985
_symmetry_Int_Tables_number   1
_chemical_formula_structural   Al17BN18
_chemical_formula_sum   'Al34 B2 N36'
_cell_volume   756.17609022
_cell_formula_units_Z   2
loop_
 _symmetry_equiv_pos_site_id
 _symmetry_equiv_pos_as_xyz
  1  'x, y, z'
loop_
 _atom_site_type_symbol
 _atom_site_label
 _atom_site_symmetry_multiplicity
 _atom_site_fract_x
 _atom_site_fract_y
 _atom_site_fract_z
 _atom_site_occupancy
  Al  Al0  1  0.10709644  0.09340027  0.39462110  1
  Al  Al1  1  0.22644201  0.20008920  0.14480208  1
  Al  Al2  1  0.78028659  0.08704403  0.82740849  1
  Al  Al3  1  0.89132567  0.21002889  0.64401715  1
  Al  Al4  1  0.45114027  0.09065249  0.38769421  1
  Al  Al5  1  0.55416860  0.19981380  0.14679126  1
  Al  Al6  1  0.11137490  0.09488186  0.89513297  1
  Al  Al7  1  0.22310552  0.20514833  0.64379868  1
  Al  Al8  1  0.89321314  0.20622831  0.14706554  1
  Al  Al9  1  0.44612243  0.08955934  0.89897136  1
  Al  Al10  1  0.54676828  0.20915446  0.64337202  1
  Al  Al11  1  0.11162626  0.42658689  0.39495671  1
  Al  Al12  1  0.22522074  0.53531790  0.14610992  1
  Al  Al13  1  0.77754382  0.42765463  0.89496304  1
  Al  Al14  1  0.88628917  0.54481203  0.64187429  1
  Al  Al15  1  0.45247195  0.42112339  0.39469891  1
  Al  Al16  1  0.55779420  0.54130589  0.14465316  1
  Al  Al17  1  0.11049428  0.42879898  0.89278456  1
  Al  Al18  1  0.21878162  0.54314123  0.64270962  1
  Al  Al19  1  0.77663511  0.42220162  0.39501657  1
  Al  Al20  1  0.88485431  0.53992002  0.14495077  1
  Al  Al21  1  0.44410119  0.42744460  0.89543711  1
  Al  Al22  1  0.55420579  0.54110105  0.64424919  1
  Al  Al23  1  0.11481033  0.76278331  0.38584853  1
  Al  Al24  1  0.22916912  0.87313211  0.14515037  1
  Al  Al25  1  0.76790243  0.76081444  0.89937588  1
  Al  Al26  1  0.87877922  0.88898488  0.56365447  1
  Al  Al27  1  0.44664990  0.76171965  0.38905047  1
  Al  Al28  1  0.11697641  0.75857074  0.89703360  1
  Al  Al29  1  0.22185238  0.87202368  0.64276954  1
  Al  Al30  1  0.77143011  0.76484719  0.37779399  1
  Al  Al31  1  0.88441501  0.87361841  0.08748901  1
  Al  Al32  1  0.44652212  0.76383472  0.89696644  1
  Al  Al33  1  0.55602006  0.87273532  0.64087940  1
  B  B34  1  0.78194543  0.08852694  0.31038327  1
  B  B35  1  0.55515112  0.86989295  0.14739219  1
  N  N36  1  0.22249528  0.20468591  0.33401382  1
  N  N37  1  0.11204845  0.09422528  0.08413045  1
  N  N38  1  0.89184979  0.20843478  0.83703861  1
  N  N39  1  0.77707421  0.09364767  0.63693198  1
  N  N40  1  0.57551169  0.19507614  0.33760700  1
  N  N41  1  0.45715452  0.06873687  0.09127767  1
  N  N42  1  0.22397907  0.20481175  0.83518837  1
  N  N43  1  0.11106238  0.09534686  0.58386896  1
  N  N44  1  0.88026397  0.19591879  0.33833059  1
  N  N45  1  0.78353142  0.08652218  0.14806303  1
  N  N46  1  0.54752436  0.20753869  0.83851860  1
  N  N47  1  0.44363943  0.09395461  0.57841385  1
  N  N48  1  0.22532803  0.53534254  0.33480381  1
  N  N49  1  0.11099948  0.42769901  0.08351016  1
  N  N50  1  0.88650069  0.54244979  0.83381605  1
  N  N51  1  0.77645795  0.43051000  0.58426668  1
  N  N52  1  0.55612172  0.53842362  0.33339122  1
  N  N53  1  0.44740937  0.42459089  0.08541696  1
  N  N54  1  0.22143097  0.54049896  0.83298038  1
  N  N55  1  0.10989444  0.42898702  0.58485638  1
  N  N56  1  0.88983585  0.53548264  0.33314522  1
  N  N57  1  0.77860813  0.42575536  0.08407083  1
  N  N58  1  0.55410981  0.54089862  0.83587659  1
  N  N59  1  0.44283203  0.43009673  0.58426653  1
  N  N60  1  0.22469775  0.87370013  0.33241219  1
  N  N61  1  0.12175306  0.75638404  0.08973340  1
  N  N62  1  0.88527324  0.87457984  0.89368402  1
  N  N63  1  0.77242550  0.76263601  0.57236649  1
  N  N64  1  0.55281603  0.87274197  0.31053930  1
  N  N65  1  0.45750711  0.77268607  0.08993300  1
  N  N66  1  0.22359049  0.87194579  0.83439683  1
  N  N67  1  0.11149378  0.76273325  0.57890782  1
  N  N68  1  0.87499694  0.90178402  0.36787369  1
  N  N69  1  0.74944632  0.76935348  0.09504517  1
  N  N70  1  0.55455887  0.87316795  0.82903096  1
  N  N71  1  0.44419127  0.76307763  0.58004964  1
