# generated using pymatgen
data_Al17BN18
_symmetry_space_group_name_H-M   'P 1'
_cell_length_a   9.33244174
_cell_length_b   9.31788246
_cell_length_c   10.04319749
_cell_angle_alpha   89.70151454
_cell_angle_beta   89.92706668
_cell_angle_gamma   59.94294077
_symmetry_Int_Tables_number   1
_chemical_formula_structural   Al17BN18
_chemical_formula_sum   'Al34 B2 N36'
_cell_volume   755.89025511
_cell_formula_units_Z   2
loop_
 _symmetry_equiv_pos_site_id
 _symmetry_equiv_pos_as_xyz
  1  'x, y, z'
loop_
 _atom_site_type_symbol
 _atom_site_label
 _atom_site_symmetry_multiplicity
 _atom_site_fract_x
 _atom_site_fract_y
 _atom_site_fract_z
 _atom_site_occupancy
  Al  Al0  1  0.10648623  0.09364363  0.38635671  1
  Al  Al1  1  0.22485192  0.20075327  0.13592372  1
  Al  Al2  1  0.77898401  0.08779278  0.81879596  1
  Al  Al3  1  0.89244571  0.20946903  0.63563557  1
  Al  Al4  1  0.44996500  0.09048140  0.37656842  1
  Al  Al5  1  0.55359747  0.20057144  0.13653525  1
  Al  Al6  1  0.11128516  0.09469738  0.88648121  1
  Al  Al7  1  0.22460804  0.20430235  0.63524233  1
  Al  Al8  1  0.89215965  0.20648719  0.13903111  1
  Al  Al9  1  0.44669589  0.08929667  0.89085342  1
  Al  Al10  1  0.54975017  0.20765907  0.62641003  1
  Al  Al11  1  0.11112223  0.42694695  0.38646741  1
  Al  Al12  1  0.22348067  0.53680158  0.13737753  1
  Al  Al13  1  0.77783649  0.42714929  0.88642775  1
  Al  Al14  1  0.88729325  0.54369214  0.63381052  1
  Al  Al15  1  0.45114293  0.42325078  0.38350569  1
  Al  Al16  1  0.55751578  0.54264256  0.13605124  1
  Al  Al17  1  0.11123660  0.42825424  0.88406178  1
  Al  Al18  1  0.22047853  0.54175751  0.63422886  1
  Al  Al19  1  0.77650303  0.42258379  0.38665914  1
  Al  Al20  1  0.88434170  0.54043540  0.13620265  1
  Al  Al21  1  0.44470707  0.42715295  0.88766314  1
  Al  Al22  1  0.55485983  0.54059315  0.63570425  1
  Al  Al23  1  0.11408789  0.76362167  0.37754085  1
  Al  Al24  1  0.22833107  0.87367893  0.13648253  1
  Al  Al25  1  0.76821257  0.76059692  0.89018193  1
  Al  Al26  1  0.88060559  0.88673581  0.55691825  1
  Al  Al27  1  0.44633928  0.76213839  0.38087444  1
  Al  Al28  1  0.11692164  0.75850281  0.88800165  1
  Al  Al29  1  0.22268526  0.87153476  0.63458150  1
  Al  Al30  1  0.77148090  0.76506036  0.36986632  1
  Al  Al31  1  0.88343200  0.87440745  0.07828126  1
  Al  Al32  1  0.44671528  0.76383322  0.88833551  1
  Al  Al33  1  0.55661223  0.87226753  0.63227571  1
  B  B34  1  0.78081590  0.08888649  0.30283158  1
  B  B35  1  0.55459571  0.86988791  0.13908559  1
  N  N36  1  0.22100160  0.20538909  0.32525359  1
  N  N37  1  0.11081281  0.09458617  0.07581477  1
  N  N38  1  0.89190901  0.20804540  0.82857233  1
  N  N39  1  0.77865840  0.09272026  0.62773445  1
  N  N40  1  0.57485579  0.19567681  0.32983302  1
  N  N41  1  0.45596496  0.06882631  0.08390983  1
  N  N42  1  0.22467695  0.20415450  0.82695823  1
  N  N43  1  0.11214886  0.09469053  0.57585902  1
  N  N44  1  0.87954311  0.19622596  0.33067281  1
  N  N45  1  0.78268082  0.08663491  0.14019847  1
  N  N46  1  0.54868607  0.20711013  0.83294837  1
  N  N47  1  0.44436509  0.09249539  0.56790643  1
  N  N48  1  0.22367410  0.53671458  0.32618749  1
  N  N49  1  0.11056099  0.42801635  0.07500296  1
  N  N50  1  0.88711949  0.54177321  0.82577566  1
  N  N51  1  0.77723369  0.42985122  0.57620976  1
  N  N52  1  0.55627724  0.53953102  0.32479670  1
  N  N53  1  0.44621238  0.42660417  0.07842655  1
  N  N54  1  0.22236431  0.53995810  0.82480085  1
  N  N55  1  0.11097831  0.42812018  0.57673792  1
  N  N56  1  0.88947856  0.53599686  0.32488314  1
  N  N57  1  0.77831227  0.42583551  0.07589675  1
  N  N58  1  0.55435852  0.54080104  0.82765029  1
  N  N59  1  0.44362466  0.43026112  0.57378494  1
  N  N60  1  0.22442388  0.87404032  0.32425155  1
  N  N61  1  0.12035561  0.75750347  0.08119330  1
  N  N62  1  0.88537351  0.87447342  0.88381689  1
  N  N63  1  0.77349047  0.76147859  0.56491743  1
  N  N64  1  0.55304339  0.87214398  0.30210464  1
  N  N65  1  0.45686399  0.77334901  0.08147223  1
  N  N66  1  0.22392113  0.87173730  0.82630173  1
  N  N67  1  0.11283377  0.76159888  0.57119906  1
  N  N68  1  0.87449875  0.90219977  0.36059018  1
  N  N69  1  0.74899050  0.76971823  0.08618674  1
  N  N70  1  0.55467989  0.87315385  0.82058193  1
  N  N71  1  0.44489916  0.76251058  0.57199928  1
