# generated using pymatgen
data_Al17BN18
_symmetry_space_group_name_H-M   'P 1'
_cell_length_a   9.33238188
_cell_length_b   9.31788540
_cell_length_c   10.04289417
_cell_angle_alpha   89.70595512
_cell_angle_beta   89.92625896
_cell_angle_gamma   59.94987194
_symmetry_Int_Tables_number   1
_chemical_formula_structural   Al17BN18
_chemical_formula_sum   'Al34 B2 N36'
_cell_volume   755.91609792
_cell_formula_units_Z   2
loop_
 _symmetry_equiv_pos_site_id
 _symmetry_equiv_pos_as_xyz
  1  'x, y, z'
loop_
 _atom_site_type_symbol
 _atom_site_label
 _atom_site_symmetry_multiplicity
 _atom_site_fract_x
 _atom_site_fract_y
 _atom_site_fract_z
 _atom_site_occupancy
  Al  Al0  1  0.10503888  0.09301282  0.32249954  1
  Al  Al1  1  0.21928283  0.20306798  0.08143360  1
  Al  Al2  1  0.77674277  0.09443010  0.82669841  1
  Al  Al3  1  0.88664729  0.20286355  0.57064456  1
  Al  Al4  1  0.44993913  0.09227536  0.38070703  1
  Al  Al5  1  0.56188287  0.20163317  0.08910636  1
  Al  Al6  1  0.11066730  0.09516236  0.82439113  1
  Al  Al7  1  0.21644689  0.20819360  0.57098681  1
  Al  Al8  1  0.88702704  0.20455711  0.07809662  1
  Al  Al9  1  0.45272019  0.07999951  0.90203236  1
  Al  Al10  1  0.56514998  0.20609740  0.56880406  1
  Al  Al11  1  0.10990760  0.42987254  0.32160429  1
  Al  Al12  1  0.22225294  0.53974372  0.07251108  1
  Al  Al13  1  0.77849714  0.42610245  0.82327028  1
  Al  Al14  1  0.88864755  0.53955179  0.57129366  1
  Al  Al15  1  0.44902669  0.42625202  0.32278102  1
  Al  Al16  1  0.55686118  0.54410913  0.07231780  1
  Al  Al17  1  0.11286251  0.42495716  0.82474226  1
  Al  Al18  1  0.22211969  0.53845121  0.57491638  1
  Al  Al19  1  0.77584567  0.42403656  0.32292714  1
  Al  Al20  1  0.88225219  0.54339817  0.07552369  1
  Al  Al21  1  0.44606048  0.42301071  0.82516028  1
  Al  Al22  1  0.55552638  0.53955605  0.57255335  1
  Al  Al23  1  0.10853219  0.76593410  0.32305809  1
  Al  Al24  1  0.22688169  0.87305396  0.07261751  1
  Al  Al25  1  0.78353900  0.75906710  0.83283450  1
  Al  Al26  1  0.88665800  0.87740322  0.56810793  1
  Al  Al27  1  0.44121308  0.76020661  0.31994262  1
  Al  Al28  1  0.10873571  0.76239789  0.82373106  1
  Al  Al29  1  0.22208310  0.87200204  0.57250223  1
  Al  Al30  1  0.77976159  0.76612033  0.32248297  1
  Al  Al31  1  0.88342296  0.87622783  0.08245839  1
  Al  Al32  1  0.44090049  0.75722630  0.82334021  1
  Al  Al33  1  0.55442121  0.87888280  0.64018477  1
  B  B34  1  0.77877635  0.09681539  0.31988576  1
  B  B35  1  0.55254610  0.87780915  0.15612459  1
  N  N36  1  0.21302991  0.20918602  0.37778675  1
  N  N37  1  0.10893311  0.09265494  0.13472092  1
  N  N38  1  0.88845805  0.20419730  0.88696948  1
  N  N39  1  0.77867707  0.09354054  0.63839102  1
  N  N40  1  0.58437549  0.19697883  0.37279415  1
  N  N41  1  0.45885909  0.06449233  0.09836517  1
  N  N42  1  0.22051263  0.20512091  0.88776482  1
  N  N43  1  0.10943201  0.09496113  0.63267077  1
  N  N44  1  0.87650490  0.19334892  0.37750332  1
  N  N45  1  0.78030913  0.09456839  0.15687041  1
  N  N46  1  0.55986308  0.20523421  0.89404487  1
  N  N47  1  0.44798396  0.09221220  0.57518365  1
  N  N48  1  0.22280912  0.53868615  0.38397255  1
  N  N49  1  0.10971195  0.42996009  0.13279245  1
  N  N50  1  0.88973939  0.53642328  0.88522876  1
  N  N51  1  0.77899917  0.42589489  0.63132118  1
  N  N52  1  0.55505444  0.54087104  0.38307752  1
  N  N53  1  0.44388518  0.43069015  0.13409257  1
  N  N54  1  0.22237696  0.53859120  0.88223384  1
  N  N55  1  0.11097875  0.42674809  0.63416797  1
  N  N56  1  0.88717319  0.54006227  0.38050990  1
  N  N57  1  0.77707221  0.42714997  0.13418174  1
  N  N58  1  0.55612604  0.53685662  0.88276168  1
  N  N59  1  0.44623321  0.42492710  0.63319387  1
  N  N60  1  0.22256679  0.87211741  0.38316157  1
  N  N61  1  0.11238046  0.76129497  0.13372703  1
  N  N62  1  0.88899888  0.87423358  0.89110749  1
  N  N63  1  0.78463291  0.75960177  0.62589293  1
  N  N64  1  0.55069486  0.88006811  0.31874940  1
  N  N65  1  0.45381588  0.77046713  0.12829173  1
  N  N66  1  0.22120273  0.87201867  0.88311136  1
  N  N67  1  0.10866912  0.76255045  0.63201239  1
  N  N68  1  0.87741789  0.89788327  0.37503457  1
  N  N69  1  0.75850267  0.77101526  0.12909808  1
  N  N70  1  0.55468803  0.87398945  0.83125891  1
  N  N71  1  0.44144610  0.75865498  0.63041095  1
