# generated using pymatgen
data_Al17BN18
_symmetry_space_group_name_H-M   'P 1'
_cell_length_a   9.32938150
_cell_length_b   9.33797292
_cell_length_c   10.08306605
_cell_angle_alpha   89.68547849
_cell_angle_beta   89.60353083
_cell_angle_gamma   59.99726673
_symmetry_Int_Tables_number   1
_chemical_formula_structural   Al17BN18
_chemical_formula_sum   'Al34 B2 N36'
_cell_volume   760.68552886
_cell_formula_units_Z   2
loop_
 _symmetry_equiv_pos_site_id
 _symmetry_equiv_pos_as_xyz
  1  'x, y, z'
loop_
 _atom_site_type_symbol
 _atom_site_label
 _atom_site_symmetry_multiplicity
 _atom_site_fract_x
 _atom_site_fract_y
 _atom_site_fract_z
 _atom_site_occupancy
  Al  Al0  1  0.10563717  0.09337417  0.38863688  1
  Al  Al1  1  0.22320427  0.19993771  0.13772089  1
  Al  Al2  1  0.77306467  0.09072148  0.82002877  1
  Al  Al3  1  0.89224399  0.20941663  0.63830640  1
  Al  Al4  1  0.44789531  0.08844821  0.37130405  1
  Al  Al5  1  0.56059571  0.19673897  0.08324819  1
  Al  Al6  1  0.11025099  0.09371964  0.88805713  1
  Al  Al7  1  0.22692025  0.20404764  0.63590102  1
  Al  Al8  1  0.88896225  0.20651379  0.14252480  1
  Al  Al9  1  0.44439852  0.08550058  0.89205077  1
  Al  Al10  1  0.56886377  0.19838460  0.55900529  1
  Al  Al11  1  0.10884638  0.42591339  0.38567419  1
  Al  Al12  1  0.22096903  0.53582508  0.12924685  1
  Al  Al13  1  0.77860926  0.42637133  0.88758698  1
  Al  Al14  1  0.88727423  0.54335641  0.63535916  1
  Al  Al15  1  0.44887426  0.43000015  0.37654756  1
  Al  Al16  1  0.55790378  0.54464960  0.13810663  1
  Al  Al17  1  0.11164717  0.42637963  0.88541362  1
  Al  Al18  1  0.22489299  0.53560455  0.61691660  1
  Al  Al19  1  0.77678191  0.42323471  0.38836785  1
  Al  Al20  1  0.88206999  0.54177607  0.13699681  1
  Al  Al21  1  0.44356797  0.43214950  0.89112158  1
  Al  Al22  1  0.55553255  0.53973840  0.63676357  1
  Al  Al23  1  0.10112520  0.77016047  0.31798631  1
  Al  Al24  1  0.23003748  0.87685457  0.13619258  1
  Al  Al25  1  0.76969481  0.76038845  0.89144239  1
  Al  Al26  1  0.88907043  0.88244280  0.55875584  1
  Al  Al27  1  0.44592536  0.76296688  0.38270506  1
  Al  Al28  1  0.10519065  0.76151495  0.81976026  1
  Al  Al29  1  0.22790755  0.87564190  0.63568765  1
  Al  Al30  1  0.77151385  0.76519759  0.37355339  1
  Al  Al31  1  0.88446048  0.87667587  0.07589860  1
  Al  Al32  1  0.44706013  0.76312625  0.88940320  1
  Al  Al33  1  0.55868828  0.87327431  0.63263200  1
  B  B34  1  0.77432819  0.09251134  0.30858124  1
  B  B35  1  0.55460481  0.87023643  0.13970815  1
  N  N36  1  0.21948180  0.20519957  0.32533077  1
  N  N37  1  0.10751796  0.09556921  0.07658380  1
  N  N38  1  0.89146912  0.20752629  0.82902161  1
  N  N39  1  0.77584411  0.09199328  0.63219566  1
  N  N40  1  0.58527474  0.19131157  0.36278300  1
  N  N41  1  0.45240308  0.06513898  0.08726570  1
  N  N42  1  0.22544919  0.20294513  0.82702453  1
  N  N43  1  0.11181745  0.09580417  0.57695267  1
  N  N44  1  0.87957617  0.19731424  0.33269777  1
  N  N45  1  0.77417777  0.08868473  0.14874750  1
  N  N46  1  0.56095791  0.20049300  0.88816277  1
  N  N47  1  0.44408670  0.09082164  0.56604508  1
  N  N48  1  0.22131273  0.53697118  0.33518613  1
  N  N49  1  0.10863267  0.42544267  0.07622436  1
  N  N50  1  0.88782238  0.54157205  0.82661326  1
  N  N51  1  0.77805340  0.42888151  0.57738705  1
  N  N52  1  0.55816753  0.54197361  0.32504640  1
  N  N53  1  0.44410601  0.43355787  0.08547551  1
  N  N54  1  0.22589320  0.53353636  0.83398396  1
  N  N55  1  0.10964513  0.42573573  0.57546107  1
  N  N56  1  0.88793133  0.53760235  0.32498344  1
  N  N57  1  0.77801011  0.42497642  0.07657693  1
  N  N58  1  0.55572925  0.54033943  0.82786347  1
  N  N59  1  0.44778557  0.42966838  0.57079412  1
  N  N60  1  0.22585682  0.87595595  0.32759718  1
  N  N61  1  0.10649580  0.76512128  0.12480078  1
  N  N62  1  0.88944156  0.87448967  0.88571768  1
  N  N63  1  0.77625004  0.76048514  0.56644838  1
  N  N64  1  0.55503088  0.87058533  0.30228245  1
  N  N65  1  0.45742771  0.77244853  0.08165781  1
  N  N66  1  0.22711806  0.87325080  0.82892676  1
  N  N67  1  0.10495115  0.76591007  0.62183569  1
  N  N68  1  0.87538560  0.90284692  0.36732945  1
  N  N69  1  0.74885401  0.77080039  0.08529579  1
  N  N70  1  0.55681191  0.87223365  0.82052886  1
  N  N71  1  0.44768440  0.76152957  0.57283214  1
