# generated using pymatgen
data_Al17BN18
_symmetry_space_group_name_H-M   'P 1'
_cell_length_a   9.33550823
_cell_length_b   9.32798559
_cell_length_c   10.03327892
_cell_angle_alpha   89.70828051
_cell_angle_beta   89.89838562
_cell_angle_gamma   59.94930200
_symmetry_Int_Tables_number   1
_chemical_formula_structural   Al17BN18
_chemical_formula_sum   'Al34 B2 N36'
_cell_volume   756.26056228
_cell_formula_units_Z   2
loop_
 _symmetry_equiv_pos_site_id
 _symmetry_equiv_pos_as_xyz
  1  'x, y, z'
loop_
 _atom_site_type_symbol
 _atom_site_label
 _atom_site_symmetry_multiplicity
 _atom_site_fract_x
 _atom_site_fract_y
 _atom_site_fract_z
 _atom_site_occupancy
  Al  Al0  1  0.10530611  0.09290756  0.32263218  1
  Al  Al1  1  0.21979701  0.20234512  0.08106920  1
  Al  Al2  1  0.77665615  0.09441013  0.82645754  1
  Al  Al3  1  0.88651996  0.20293188  0.57068914  1
  Al  Al4  1  0.45065502  0.09139844  0.38099071  1
  Al  Al5  1  0.56151499  0.20171563  0.08878134  1
  Al  Al6  1  0.11028381  0.09525266  0.82399778  1
  Al  Al7  1  0.21663906  0.20806804  0.57118541  1
  Al  Al8  1  0.88703063  0.20430491  0.07752224  1
  Al  Al9  1  0.45095245  0.08226247  0.90022824  1
  Al  Al10  1  0.56481705  0.20589728  0.56901152  1
  Al  Al11  1  0.11161518  0.42832675  0.32119770  1
  Al  Al12  1  0.22271871  0.53952485  0.07228580  1
  Al  Al13  1  0.77838531  0.42633837  0.82298700  1
  Al  Al14  1  0.88853791  0.53870628  0.56924869  1
  Al  Al15  1  0.44919386  0.42607255  0.32299830  1
  Al  Al16  1  0.55652317  0.54394253  0.07217131  1
  Al  Al17  1  0.11176275  0.42621062  0.82432168  1
  Al  Al18  1  0.22161789  0.53875898  0.57494333  1
  Al  Al19  1  0.77583787  0.42264112  0.32261122  1
  Al  Al20  1  0.88471371  0.53861229  0.07995021  1
  Al  Al21  1  0.44591268  0.42343473  0.82479822  1
  Al  Al22  1  0.55541628  0.54012871  0.57263689  1
  Al  Al23  1  0.10988973  0.76575007  0.32291653  1
  Al  Al24  1  0.22715895  0.87299747  0.07224330  1
  Al  Al25  1  0.77449915  0.76322998  0.87496586  1
  Al  Al26  1  0.88665884  0.87849960  0.56663839  1
  Al  Al27  1  0.44200492  0.76020174  0.31920664  1
  Al  Al28  1  0.10791827  0.76244737  0.82345562  1
  Al  Al29  1  0.22248124  0.87206253  0.57270422  1
  Al  Al30  1  0.77847811  0.76648033  0.34063276  1
  Al  Al31  1  0.88514658  0.87780958  0.08683522  1
  Al  Al32  1  0.44049815  0.75727783  0.82247807  1
  Al  Al33  1  0.55917384  0.87653531  0.63940092  1
  B  B34  1  0.77978248  0.09680388  0.31947416  1
  B  B35  1  0.55366764  0.87741125  0.15443219  1
  N  N36  1  0.21425653  0.20811715  0.37757497  1
  N  N37  1  0.10885068  0.09258270  0.13445905  1
  N  N38  1  0.88819251  0.20443887  0.88653138  1
  N  N39  1  0.77863412  0.09356934  0.63836499  1
  N  N40  1  0.58446034  0.19679085  0.37286573  1
  N  N41  1  0.45861508  0.06460462  0.09681340  1
  N  N42  1  0.21959410  0.20582656  0.88698011  1
  N  N43  1  0.10920180  0.09506844  0.63238382  1
  N  N44  1  0.87670290  0.19325120  0.37750796  1
  N  N45  1  0.77960707  0.09600405  0.15671278  1
  N  N46  1  0.55959845  0.20566487  0.89346797  1
  N  N47  1  0.44759770  0.09209813  0.57610039  1
  N  N48  1  0.22266327  0.53880021  0.38388661  1
  N  N49  1  0.11157816  0.42864689  0.13258043  1
  N  N50  1  0.89006205  0.53501923  0.88720041  1
  N  N51  1  0.77901176  0.42584950  0.63126366  1
  N  N52  1  0.55509437  0.54111765  0.38290513  1
  N  N53  1  0.44392674  0.43047097  0.13400750  1
  N  N54  1  0.22210004  0.53883813  0.88198983  1
  N  N55  1  0.11011565  0.42728993  0.63389388  1
  N  N56  1  0.88972215  0.53478865  0.37655590  1
  N  N57  1  0.77628897  0.42592467  0.13417022  1
  N  N58  1  0.55602658  0.53727567  0.88252764  1
  N  N59  1  0.44603036  0.42520015  0.63291608  1
  N  N60  1  0.22368547  0.87202132  0.38310239  1
  N  N61  1  0.11379443  0.76061674  0.13380800  1
  N  N62  1  0.88981237  0.87581873  0.89333958  1
  N  N63  1  0.77811348  0.76286764  0.59462417  1
  N  N64  1  0.55254481  0.87983788  0.31518592  1
  N  N65  1  0.45365848  0.77018350  0.12749907  1
  N  N66  1  0.22099825  0.87219579  0.88269090  1
  N  N67  1  0.10807781  0.76292487  0.63190521  1
  N  N68  1  0.87962940  0.90005170  0.37191077  1
  N  N69  1  0.75551950  0.77211290  0.11753134  1
  N  N70  1  0.55586250  0.87404651  0.83052039  1
  N  N71  1  0.44159773  0.75911800  0.63085103  1
