# generated using pymatgen
data_Al17BN18
_symmetry_space_group_name_H-M   'P 1'
_cell_length_a   9.32542214
_cell_length_b   9.31464997
_cell_length_c   10.02125029
_cell_angle_alpha   89.62084508
_cell_angle_beta   89.93832064
_cell_angle_gamma   59.95098861
_symmetry_Int_Tables_number   1
_chemical_formula_structural   Al17BN18
_chemical_formula_sum   'Al34 B2 N36'
_cell_volume   753.46298750
_cell_formula_units_Z   2
loop_
 _symmetry_equiv_pos_site_id
 _symmetry_equiv_pos_as_xyz
  1  'x, y, z'
loop_
 _atom_site_type_symbol
 _atom_site_label
 _atom_site_symmetry_multiplicity
 _atom_site_fract_x
 _atom_site_fract_y
 _atom_site_fract_z
 _atom_site_occupancy
  Al  Al0  1  0.10721340  0.09228444  0.39573441  1
  Al  Al1  1  0.22561796  0.20148806  0.14672503  1
  Al  Al2  1  0.77691551  0.09487904  0.86506196  1
  Al  Al3  1  0.89039908  0.20723442  0.65084927  1
  Al  Al4  1  0.45233948  0.08954242  0.38871702  1
  Al  Al5  1  0.56292664  0.19731952  0.14122612  1
  Al  Al6  1  0.11209531  0.09488268  0.89806663  1
  Al  Al7  1  0.22395375  0.20381372  0.64518298  1
  Al  Al8  1  0.88637451  0.20323835  0.14100418  1
  Al  Al9  1  0.44558724  0.08923393  0.90171803  1
  Al  Al10  1  0.55086900  0.20628206  0.65070047  1
  Al  Al11  1  0.11154872  0.42682324  0.39736046  1
  Al  Al12  1  0.22304402  0.53790878  0.14769952  1
  Al  Al13  1  0.77798910  0.42792306  0.89836651  1
  Al  Al14  1  0.88719386  0.54107542  0.64395866  1
  Al  Al15  1  0.45270628  0.42204399  0.39586501  1
  Al  Al16  1  0.55687839  0.54308524  0.14640198  1
  Al  Al17  1  0.11086080  0.42798532  0.89440583  1
  Al  Al18  1  0.22178450  0.53946503  0.64481621  1
  Al  Al19  1  0.77565176  0.42293775  0.39597790  1
  Al  Al20  1  0.88429901  0.54224776  0.14657115  1
  Al  Al21  1  0.44342180  0.42763704  0.89893778  1
  Al  Al22  1  0.55534616  0.53903098  0.64592524  1
  Al  Al23  1  0.11347516  0.76439674  0.39086892  1
  Al  Al24  1  0.22793484  0.87399853  0.14654635  1
  Al  Al25  1  0.76882138  0.75856978  0.89694514  1
  Al  Al26  1  0.88153307  0.88381889  0.58474266  1
  Al  Al27  1  0.44656028  0.76193560  0.39112036  1
  Al  Al28  1  0.11798486  0.75650103  0.89497051  1
  Al  Al29  1  0.22254971  0.87212790  0.64513160  1
  Al  Al30  1  0.77131308  0.76633070  0.38294989  1
  Al  Al31  1  0.88265196  0.87626694  0.07997446  1
  Al  Al32  1  0.44659385  0.76351449  0.89899782  1
  Al  Al33  1  0.55559222  0.87279412  0.64295567  1
  B  B34  1  0.77901351  0.09361909  0.35404400  1
  B  B35  1  0.55498347  0.87160297  0.14915663  1
  N  N36  1  0.22237620  0.20512983  0.33655122  1
  N  N37  1  0.11079817  0.09560053  0.08848229  1
  N  N38  1  0.89411628  0.21059602  0.84005340  1
  N  N39  1  0.77693584  0.09448053  0.64042942  1
  N  N40  1  0.58703107  0.18979773  0.33738566  1
  N  N41  1  0.45673315  0.06981393  0.09552829  1
  N  N42  1  0.22449144  0.20388446  0.83736678  1
  N  N43  1  0.11003186  0.09518624  0.58501263  1
  N  N44  1  0.87426269  0.19050250  0.33816210  1
  N  N45  1  0.77455641  0.10279468  0.07597102  1
  N  N46  1  0.54360836  0.20934155  0.84176817  1
  N  N47  1  0.44535104  0.09384791  0.57949319  1
  N  N48  1  0.22431901  0.53673717  0.33752569  1
  N  N49  1  0.11041140  0.42880048  0.08579625  1
  N  N50  1  0.88704105  0.53981778  0.83552083  1
  N  N51  1  0.77774156  0.42735068  0.58515538  1
  N  N52  1  0.55575384  0.53922036  0.33560128  1
  N  N53  1  0.44514293  0.42738157  0.09002062  1
  N  N54  1  0.22340512  0.53800676  0.83488167  1
  N  N55  1  0.11064992  0.42777692  0.58718451  1
  N  N56  1  0.88954831  0.53678590  0.33586405  1
  N  N57  1  0.77816453  0.42808703  0.08856696  1
  N  N58  1  0.55441496  0.54024235  0.83853402  1
  N  N59  1  0.44495920  0.42689738  0.58536468  1
  N  N60  1  0.22434174  0.87322597  0.33484187  1
  N  N61  1  0.11870579  0.75930100  0.09025609  1
  N  N62  1  0.89067137  0.86323024  0.88024923  1
  N  N63  1  0.77346562  0.76033318  0.57651263  1
  N  N64  1  0.55381065  0.87239196  0.31336681  1
  N  N65  1  0.45680418  0.77409658  0.09240896  1
  N  N66  1  0.22421387  0.87204214  0.83678202  1
  N  N67  1  0.11354891  0.76033943  0.58298877  1
  N  N68  1  0.87238399  0.90703085  0.37229564  1
  N  N69  1  0.74896919  0.77218868  0.09554509  1
  N  N70  1  0.55351006  0.87327090  0.83111012  1
  N  N71  1  0.44488566  0.76200218  0.58228134  1
