# generated using pymatgen
data_Al17BN18
_symmetry_space_group_name_H-M   'P 1'
_cell_length_a   9.32398924
_cell_length_b   9.31048495
_cell_length_c   10.04688046
_cell_angle_alpha   89.59349061
_cell_angle_beta   89.94705644
_cell_angle_gamma   59.93944036
_symmetry_Int_Tables_number   1
_chemical_formula_structural   Al17BN18
_chemical_formula_sum   'Al34 B2 N36'
_cell_volume   754.84476978
_cell_formula_units_Z   2
loop_
 _symmetry_equiv_pos_site_id
 _symmetry_equiv_pos_as_xyz
  1  'x, y, z'
loop_
 _atom_site_type_symbol
 _atom_site_label
 _atom_site_symmetry_multiplicity
 _atom_site_fract_x
 _atom_site_fract_y
 _atom_site_fract_z
 _atom_site_occupancy
  Al  Al0  1  0.10517701  0.09289415  0.31284615  1
  Al  Al1  1  0.21913509  0.20268972  0.07000663  1
  Al  Al2  1  0.77750481  0.09401434  0.81641311  1
  Al  Al3  1  0.88672764  0.20331440  0.56032500  1
  Al  Al4  1  0.45051931  0.09041083  0.37755164  1
  Al  Al5  1  0.56243323  0.20067336  0.07805672  1
  Al  Al6  1  0.11116538  0.09465957  0.81434338  1
  Al  Al7  1  0.21506271  0.21030123  0.56269895  1
  Al  Al8  1  0.88689913  0.20457124  0.06837060  1
  Al  Al9  1  0.45325773  0.08019421  0.88404528  1
  Al  Al10  1  0.56472392  0.20819019  0.56061246  1
  Al  Al11  1  0.10954957  0.42967736  0.31170152  1
  Al  Al12  1  0.22184746  0.53977685  0.06206371  1
  Al  Al13  1  0.77853795  0.42672841  0.81309811  1
  Al  Al14  1  0.88900334  0.53994496  0.56054879  1
  Al  Al15  1  0.44886459  0.42513206  0.31282078  1
  Al  Al16  1  0.55770901  0.54341934  0.06298928  1
  Al  Al17  1  0.11292937  0.42561526  0.81451308  1
  Al  Al18  1  0.22249169  0.53870013  0.56479341  1
  Al  Al19  1  0.77607655  0.42442963  0.31301977  1
  Al  Al20  1  0.88093815  0.54441559  0.06316778  1
  Al  Al21  1  0.44653618  0.42398416  0.81536118  1
  Al  Al22  1  0.55540891  0.53968883  0.56107883  1
  Al  Al23  1  0.10734708  0.76565418  0.31261311  1
  Al  Al24  1  0.22621753  0.87389010  0.06335126  1
  Al  Al25  1  0.78496876  0.75884949  0.81064571  1
  Al  Al26  1  0.88726382  0.87769826  0.55750055  1
  Al  Al27  1  0.44466523  0.76263056  0.31540386  1
  Al  Al28  1  0.10975479  0.76237958  0.81373261  1
  Al  Al29  1  0.22153118  0.87210013  0.56116682  1
  Al  Al30  1  0.77286399  0.76889415  0.31532641  1
  Al  Al31  1  0.88146112  0.87670112  0.07027918  1
  Al  Al32  1  0.44220641  0.75792016  0.81032047  1
  Al  Al33  1  0.55387838  0.87748174  0.61534564  1
  B  B34  1  0.77841399  0.09550740  0.31046222  1
  B  B35  1  0.55446142  0.87262928  0.11838212  1
  N  N36  1  0.21336545  0.20863493  0.36867236  1
  N  N37  1  0.10903674  0.09289335  0.12492525  1
  N  N38  1  0.88883772  0.20416740  0.87729215  1
  N  N39  1  0.77933016  0.09370223  0.62838807  1
  N  N40  1  0.58425820  0.19562573  0.36335046  1
  N  N41  1  0.46116274  0.05930009  0.08684026  1
  N  N42  1  0.22075307  0.20528915  0.87776358  1
  N  N43  1  0.10937208  0.09487878  0.62287877  1
  N  N44  1  0.87639470  0.19312495  0.36724628  1
  N  N45  1  0.78014462  0.09383432  0.14644023  1
  N  N46  1  0.56034566  0.20533364  0.88426541  1
  N  N47  1  0.44366910  0.10140460  0.57391838  1
  N  N48  1  0.22272658  0.53823287  0.37377049  1
  N  N49  1  0.10880519  0.43028625  0.12222860  1
  N  N50  1  0.88925626  0.53841035  0.87382395  1
  N  N51  1  0.77891608  0.42652148  0.62108247  1
  N  N52  1  0.55488212  0.53917763  0.37153651  1
  N  N53  1  0.44370408  0.43020866  0.12388500  1
  N  N54  1  0.22302540  0.53840819  0.87236051  1
  N  N55  1  0.11006128  0.42845400  0.62461125  1
  N  N56  1  0.88768873  0.54017931  0.37011265  1
  N  N57  1  0.77765521  0.42741318  0.12394517  1
  N  N58  1  0.55625521  0.53795424  0.87395698  1
  N  N59  1  0.44646127  0.42662430  0.62390246  1
  N  N60  1  0.22179859  0.87133895  0.37151701  1
  N  N61  1  0.11103377  0.76142912  0.12296890  1
  N  N62  1  0.88869065  0.87275951  0.87969752  1
  N  N63  1  0.78795599  0.75859217  0.61818207  1
  N  N64  1  0.55542283  0.86960022  0.35674569  1
  N  N65  1  0.45779336  0.77394780  0.11970134  1
  N  N66  1  0.22297124  0.87139664  0.87427356  1
  N  N67  1  0.10889974  0.76281497  0.62206022  1
  N  N68  1  0.87680109  0.89722177  0.36442726  1
  N  N69  1  0.74984374  0.77476258  0.12038719  1
  N  N70  1  0.55596254  0.87341376  0.81631944  1
  N  N71  1  0.43990701  0.75747529  0.61979678  1
