# generated using pymatgen
data_Al17BN18
_symmetry_space_group_name_H-M   'P 1'
_cell_length_a   9.34042712
_cell_length_b   9.33157193
_cell_length_c   10.12047537
_cell_angle_alpha   89.64482170
_cell_angle_beta   89.75061870
_cell_angle_gamma   59.99619602
_symmetry_Int_Tables_number   1
_chemical_formula_structural   Al17BN18
_chemical_formula_sum   'Al34 B2 N36'
_cell_volume   763.88439960
_cell_formula_units_Z   2
loop_
 _symmetry_equiv_pos_site_id
 _symmetry_equiv_pos_as_xyz
  1  'x, y, z'
loop_
 _atom_site_type_symbol
 _atom_site_label
 _atom_site_symmetry_multiplicity
 _atom_site_fract_x
 _atom_site_fract_y
 _atom_site_fract_z
 _atom_site_occupancy
  Al  Al0  1  0.11385064  0.08882000  0.38526523  1
  Al  Al1  1  0.22591326  0.20130415  0.13956291  1
  Al  Al2  1  0.77580417  0.09298991  0.82151206  1
  Al  Al3  1  0.88046011  0.20561980  0.56717201  1
  Al  Al4  1  0.44977876  0.08744014  0.37560522  1
  Al  Al5  1  0.56172411  0.20024239  0.08125227  1
  Al  Al6  1  0.11669485  0.08998662  0.88980483  1
  Al  Al7  1  0.22401095  0.20463790  0.63655190  1
  Al  Al8  1  0.88506382  0.20362220  0.07800671  1
  Al  Al9  1  0.44498914  0.08577777  0.89425185  1
  Al  Al10  1  0.56244735  0.20527107  0.56269982  1
  Al  Al11  1  0.10913176  0.42444374  0.38972495  1
  Al  Al12  1  0.22506810  0.54176277  0.06800868  1
  Al  Al13  1  0.77708697  0.42796923  0.85840152  1
  Al  Al14  1  0.88887838  0.54294328  0.63560450  1
  Al  Al15  1  0.44570856  0.42094350  0.31867631  1
  Al  Al16  1  0.55507231  0.54871710  0.13724553  1
  Al  Al17  1  0.10865975  0.42415706  0.88718600  1
  Al  Al18  1  0.22509647  0.54251471  0.57002831  1
  Al  Al19  1  0.77898731  0.42115813  0.34466516  1
  Al  Al20  1  0.88774857  0.54448744  0.13810946  1
  Al  Al21  1  0.44202231  0.42120427  0.82097534  1
  Al  Al22  1  0.55592431  0.54376800  0.63605788  1
  Al  Al23  1  0.10480509  0.76316116  0.31848564  1
  Al  Al24  1  0.23103104  0.87532333  0.13945082  1
  Al  Al25  1  0.76855648  0.76303826  0.89486921  1
  Al  Al26  1  0.88828110  0.88064850  0.56256800  1
  Al  Al27  1  0.44605879  0.76163151  0.38524390  1
  Al  Al28  1  0.10425364  0.76031159  0.82053684  1
  Al  Al29  1  0.22486344  0.87650967  0.63761271  1
  Al  Al30  1  0.77112647  0.76650494  0.37645927  1
  Al  Al31  1  0.88440590  0.87849574  0.08104533  1
  Al  Al32  1  0.44566328  0.76382833  0.89182701  1
  Al  Al33  1  0.55700800  0.87419056  0.63490185  1
  B  B34  1  0.78002117  0.09464835  0.31535679  1
  B  B35  1  0.55538572  0.87220988  0.14149591  1
  N  N36  1  0.22229248  0.20623259  0.32623121  1
  N  N37  1  0.11718285  0.09138145  0.07972546  1
  N  N38  1  0.88457578  0.20238083  0.88302720  1
  N  N39  1  0.77588163  0.09342446  0.63490941  1
  N  N40  1  0.58406541  0.19373136  0.36997716  1
  N  N41  1  0.45596924  0.06555674  0.08812182  1
  N  N42  1  0.22543292  0.20351816  0.82697102  1
  N  N43  1  0.11306096  0.09409850  0.57562060  1
  N  N44  1  0.87592093  0.19038140  0.37055550  1
  N  N45  1  0.77863158  0.09439316  0.15390822  1
  N  N46  1  0.55864043  0.20529318  0.88909978  1
  N  N47  1  0.44260920  0.09147578  0.56827224  1
  N  N48  1  0.22541962  0.54207084  0.38016723  1
  N  N49  1  0.10909592  0.42357367  0.07731755  1
  N  N50  1  0.88878511  0.54512687  0.82831056  1
  N  N51  1  0.77856483  0.42792479  0.59963967  1
  N  N52  1  0.55325349  0.54403276  0.32940806  1
  N  N53  1  0.44153968  0.42496211  0.12937375  1
  N  N54  1  0.22411371  0.54172651  0.87832491  1
  N  N55  1  0.10892909  0.42514613  0.57969965  1
  N  N56  1  0.89263925  0.54116957  0.32635192  1
  N  N57  1  0.77886423  0.42784660  0.10604399  1
  N  N58  1  0.55185033  0.54512337  0.83178661  1
  N  N59  1  0.44350240  0.42152475  0.62933257  1
  N  N60  1  0.22717466  0.87289555  0.32780785  1
  N  N61  1  0.10915800  0.75866172  0.12951219  1
  N  N62  1  0.88898374  0.87604607  0.88921542  1
  N  N63  1  0.77391812  0.76140383  0.56838994  1
  N  N64  1  0.55500482  0.87070473  0.30406048  1
  N  N65  1  0.45634563  0.77380127  0.08232679  1
  N  N66  1  0.22633842  0.87328138  0.82887949  1
  N  N67  1  0.10456558  0.76154065  0.62892098  1
  N  N68  1  0.87799417  0.90065254  0.36999139  1
  N  N69  1  0.74887495  0.77344814  0.08757935  1
  N  N70  1  0.55606246  0.87290543  0.82252922  1
  N  N71  1  0.44427945  0.76352474  0.57393504  1
