# generated using pymatgen
data_Al17BN18
_symmetry_space_group_name_H-M   'P 1'
_cell_length_a   9.34224452
_cell_length_b   9.33120439
_cell_length_c   10.12461653
_cell_angle_alpha   89.64336949
_cell_angle_beta   89.75361795
_cell_angle_gamma   59.98749158
_symmetry_Int_Tables_number   1
_chemical_formula_structural   Al17BN18
_chemical_formula_sum   'Al34 B2 N36'
_cell_volume   764.24846116
_cell_formula_units_Z   2
loop_
 _symmetry_equiv_pos_site_id
 _symmetry_equiv_pos_as_xyz
  1  'x, y, z'
loop_
 _atom_site_type_symbol
 _atom_site_label
 _atom_site_symmetry_multiplicity
 _atom_site_fract_x
 _atom_site_fract_y
 _atom_site_fract_z
 _atom_site_occupancy
  Al  Al0  1  0.10244718  0.09126335  0.31913071  1
  Al  Al1  1  0.22856336  0.20353887  0.14015604  1
  Al  Al2  1  0.77639983  0.09243077  0.82364727  1
  Al  Al3  1  0.88764590  0.20296253  0.56670671  1
  Al  Al4  1  0.44893819  0.08808975  0.37759063  1
  Al  Al5  1  0.56223934  0.20027938  0.08211727  1
  Al  Al6  1  0.10868008  0.09000074  0.82097284  1
  Al  Al7  1  0.22912291  0.20639380  0.63808100  1
  Al  Al8  1  0.88723669  0.20519430  0.07340123  1
  Al  Al9  1  0.44509069  0.08589050  0.89611154  1
  Al  Al10  1  0.56484008  0.20373242  0.56362148  1
  Al  Al11  1  0.10828556  0.42492145  0.39066512  1
  Al  Al12  1  0.22427840  0.54221704  0.06887894  1
  Al  Al13  1  0.77879557  0.42228578  0.82279181  1
  Al  Al14  1  0.89146559  0.54541969  0.63745995  1
  Al  Al15  1  0.44507013  0.42181015  0.32052182  1
  Al  Al16  1  0.55334931  0.54735119  0.12550546  1
  Al  Al17  1  0.10828643  0.42416618  0.88871333  1
  Al  Al18  1  0.22473627  0.54250867  0.57127896  1
  Al  Al19  1  0.77904503  0.41770404  0.32166077  1
  Al  Al20  1  0.88769183  0.54564374  0.13976240  1
  Al  Al21  1  0.44377122  0.42300817  0.82302614  1
  Al  Al22  1  0.55501761  0.54084480  0.61427580  1
  Al  Al23  1  0.10746355  0.76546732  0.31904912  1
  Al  Al24  1  0.21952959  0.87781501  0.07322224  1
  Al  Al25  1  0.77086634  0.76150948  0.89595303  1
  Al  Al26  1  0.88840625  0.88093825  0.56437738  1
  Al  Al27  1  0.44871050  0.76234777  0.38129420  1
  Al  Al28  1  0.10934355  0.76211311  0.82207013  1
  Al  Al29  1  0.21670313  0.87664436  0.56870071  1
  Al  Al30  1  0.77157689  0.76650586  0.37737977  1
  Al  Al31  1  0.88360888  0.87927309  0.08304157  1
  Al  Al32  1  0.45334179  0.76032869  0.89193721  1
  Al  Al33  1  0.55760413  0.87371870  0.63703918  1
  B  B34  1  0.77800409  0.09444556  0.31706950  1
  B  B35  1  0.55349919  0.87203827  0.14312701  1
  N  N36  1  0.22420610  0.20805676  0.32908798  1
  N  N37  1  0.10626216  0.09370543  0.13084609  1
  N  N38  1  0.88917306  0.20295896  0.88472075  1
  N  N39  1  0.77730304  0.09382892  0.63609727  1
  N  N40  1  0.58451052  0.19327805  0.37108647  1
  N  N41  1  0.45540389  0.06592691  0.08860441  1
  N  N42  1  0.22881931  0.20517217  0.82968720  1
  N  N43  1  0.10714193  0.09328562  0.62978042  1
  N  N44  1  0.87697542  0.19286408  0.37627264  1
  N  N45  1  0.77835177  0.09600281  0.15458984  1
  N  N46  1  0.55957923  0.20514606  0.89028233  1
  N  N47  1  0.44439602  0.09054911  0.56934269  1
  N  N48  1  0.22414044  0.54320156  0.38131362  1
  N  N49  1  0.10797071  0.42462682  0.07843291  1
  N  N50  1  0.88998291  0.54523323  0.82928829  1
  N  N51  1  0.78231541  0.42131438  0.62603288  1
  N  N52  1  0.55341636  0.54076610  0.34314850  1
  N  N53  1  0.44044642  0.42519922  0.13168356  1
  N  N54  1  0.22429347  0.54163848  0.87900598  1
  N  N55  1  0.10930388  0.42496919  0.58024806  1
  N  N56  1  0.89187811  0.54175952  0.32919978  1
  N  N57  1  0.78041378  0.42270869  0.12822150  1
  N  N58  1  0.55388985  0.54045023  0.84863377  1
  N  N59  1  0.44408639  0.42102994  0.62989438  1
  N  N60  1  0.21627384  0.87527443  0.37900320  1
  N  N61  1  0.11109896  0.76047110  0.13243366  1
  N  N62  1  0.89077536  0.87520692  0.89038426  1
  N  N63  1  0.77476060  0.76146297  0.56951971  1
  N  N64  1  0.55462615  0.87223041  0.30468749  1
  N  N65  1  0.45773601  0.77570942  0.08724641  1
  N  N66  1  0.22043322  0.87245036  0.88303506  1
  N  N67  1  0.10801891  0.76313928  0.63168610  1
  N  N68  1  0.87739222  0.90115609  0.37052817  1
  N  N69  1  0.74931532  0.77304879  0.08864315  1
  N  N70  1  0.55742344  0.87316523  0.82367837  1
  N  N71  1  0.44933338  0.76345331  0.57491795  1
