# generated using pymatgen
data_Al17BN18
_symmetry_space_group_name_H-M   'P 1'
_cell_length_a   9.29943266
_cell_length_b   9.29943392
_cell_length_c   9.93897692
_cell_angle_alpha   90.02508681
_cell_angle_beta   90.02508164
_cell_angle_gamma   60.01363881
_symmetry_Int_Tables_number   1
_chemical_formula_structural   Al17BN18
_chemical_formula_sum   'Al34 B2 N36'
_cell_volume   744.46604681
_cell_formula_units_Z   2
loop_
 _symmetry_equiv_pos_site_id
 _symmetry_equiv_pos_as_xyz
  1  'x, y, z'
loop_
 _atom_site_type_symbol
 _atom_site_label
 _atom_site_symmetry_multiplicity
 _atom_site_fract_x
 _atom_site_fract_y
 _atom_site_fract_z
 _atom_site_occupancy
  Al  Al0  1  0.10782884  0.09268176  0.29789219  1
  Al  Al1  1  0.22590049  0.20005226  0.04772781  1
  Al  Al2  1  0.77769683  0.09436427  0.79915467  1
  Al  Al3  1  0.88598168  0.20264693  0.54330738  1
  Al  Al4  1  0.45218547  0.08743522  0.29323159  1
  Al  Al5  1  0.55942261  0.19933992  0.05402359  1
  Al  Al6  1  0.10929884  0.09519868  0.79738352  1
  Al  Al7  1  0.22398325  0.20474886  0.54793609  1
  Al  Al8  1  0.88755091  0.20421728  0.05384362  1
  Al  Al9  1  0.44671149  0.09250396  0.80475501  1
  Al  Al10  1  0.56026208  0.20175134  0.54379321  1
  Al  Al11  1  0.11131133  0.42797679  0.29684719  1
  Al  Al12  1  0.22242019  0.53908740  0.04700751  1
  Al  Al13  1  0.77853253  0.42596507  0.79738360  1
  Al  Al14  1  0.88808321  0.54064869  0.54793620  1
  Al  Al15  1  0.44937256  0.42450603  0.29746448  1
  Al  Al16  1  0.55720774  0.54236839  0.04715150  1
  Al  Al17  1  0.11091033  0.42757628  0.79778079  1
  Al  Al18  1  0.22215401  0.53882083  0.54753712  1
  Al  Al19  1  0.77601445  0.42449622  0.29789210  1
  Al  Al20  1  0.88338634  0.54256651  0.04772765  1
  Al  Al21  1  0.44578743  0.42579891  0.79795055  1
  Al  Al22  1  0.55494286  0.54044342  0.54804563  1
  Al  Al23  1  0.10783900  0.76603915  0.29746427  1
  Al  Al24  1  0.22570197  0.87387412  0.04715183  1
  Al  Al25  1  0.77583696  0.76337830  0.80475505  1
  Al  Al26  1  0.88508520  0.87692876  0.54379322  1
  Al  Al27  1  0.44726600  0.76393296  0.29328632  1
  Al  Al28  1  0.10913144  0.76245501  0.79795076  1
  Al  Al29  1  0.22377836  0.87160801  0.54804535  1
  Al  Al30  1  0.77076958  0.76885118  0.29323156  1
  Al  Al31  1  0.88267217  0.87609027  0.05402353  1
  Al  Al32  1  0.44572890  0.76239617  0.80423768  1
  Al  Al33  1  0.55576722  0.87243226  0.54977204  1
  B  B34  1  0.77746852  0.09413571  0.29322343  1
  B  B35  1  0.55557393  0.87224045  0.04397802  1
  N  N36  1  0.22510406  0.20399781  0.35490665  1
  N  N37  1  0.11095058  0.09429216  0.10800251  1
  N  N38  1  0.88802416  0.20469059  0.86111865  1
  N  N39  1  0.77753941  0.09420607  0.61010168  1
  N  N40  1  0.57938693  0.19214615  0.34804997  1
  N  N41  1  0.45702353  0.06883218  0.09994906  1
  N  N42  1  0.22189679  0.20514434  0.85682190  1
  N  N43  1  0.10899831  0.09562945  0.60450148  1
  N  N44  1  0.87615412  0.19282126  0.34975057  1
  N  N45  1  0.77789057  0.09455800  0.12877988  1
  N  N46  1  0.55772846  0.20477409  0.86233578  1
  N  N47  1  0.44640220  0.09399754  0.61058789  1
  N  N48  1  0.22263193  0.53929861  0.35619720  1
  N  N49  1  0.11081788  0.42748393  0.10565046  1
  N  N50  1  0.88847801  0.53856332  0.85682172  1
  N  N51  1  0.77896408  0.42566364  0.60450158  1
  N  N52  1  0.55400534  0.54199560  0.35603039  1
  N  N53  1  0.44506318  0.42799511  0.10671286  1
  N  N54  1  0.22243870  0.53910611  0.85562606  1
  N  N55  1  0.11092635  0.42759206  0.60627978  1
  N  N56  1  0.88733199  0.54176993  0.35490664  1
  N  N57  1  0.77762561  0.42761714  0.10800235  1
  N  N58  1  0.55624457  0.53798860  0.85655339  1
  N  N59  1  0.44597636  0.42520460  0.60482699  1
  N  N60  1  0.22532858  0.87067220  0.35603012  1
  N  N61  1  0.11132761  0.76173038  0.10671273  1
  N  N62  1  0.88810651  0.87439596  0.86233573  1
  N  N63  1  0.77733211  0.76306791  0.61058786  1
  N  N64  1  0.55538355  0.87204940  0.36126310  1
  N  N65  1  0.45691198  0.77357846  0.09910740  1
  N  N66  1  0.22132172  0.87291129  0.85655374  1
  N  N67  1  0.10853828  0.76264301  0.60482716  1
  N  N68  1  0.87547928  0.89605380  0.34805002  1
  N  N69  1  0.75216578  0.77368984  0.09994898  1
  N  N70  1  0.55564524  0.87231222  0.87815464  1
  N  N71  1  0.44538497  0.76205046  0.61192775  1
