# generated using pymatgen
data_Al17BN18
_symmetry_space_group_name_H-M   'P 1'
_cell_length_a   9.31904106
_cell_length_b   9.31810839
_cell_length_c   10.12270942
_cell_angle_alpha   89.60743857
_cell_angle_beta   89.60514716
_cell_angle_gamma   60.02182044
_symmetry_Int_Tables_number   1
_chemical_formula_structural   Al17BN18
_chemical_formula_sum   'Al34 B2 N36'
_cell_volume   761.39173836
_cell_formula_units_Z   2
loop_
 _symmetry_equiv_pos_site_id
 _symmetry_equiv_pos_as_xyz
  1  'x, y, z'
loop_
 _atom_site_type_symbol
 _atom_site_label
 _atom_site_symmetry_multiplicity
 _atom_site_fract_x
 _atom_site_fract_y
 _atom_site_fract_z
 _atom_site_occupancy
  Al  Al0  1  0.10582730  0.09237150  0.38925898  1
  Al  Al1  1  0.22322861  0.20068271  0.13846913  1
  Al  Al2  1  0.77409926  0.09012514  0.82016326  1
  Al  Al3  1  0.89249287  0.20914438  0.63857345  1
  Al  Al4  1  0.44811278  0.08749063  0.37351276  1
  Al  Al5  1  0.55950017  0.19918116  0.08315159  1
  Al  Al6  1  0.11062576  0.09325865  0.88846232  1
  Al  Al7  1  0.22763559  0.20489747  0.63563103  1
  Al  Al8  1  0.88925263  0.20617188  0.14316209  1
  Al  Al9  1  0.44467796  0.08565813  0.89365390  1
  Al  Al10  1  0.56613922  0.20523113  0.55833331  1
  Al  Al11  1  0.10639752  0.42437321  0.38649323  1
  Al  Al12  1  0.22142021  0.54284724  0.07161038  1
  Al  Al13  1  0.77910806  0.42650376  0.88878370  1
  Al  Al14  1  0.88854960  0.54320260  0.63559629  1
  Al  Al15  1  0.44686860  0.42299747  0.32194423  1
  Al  Al16  1  0.55952731  0.54622527  0.13789857  1
  Al  Al17  1  0.10838946  0.42405231  0.88623817  1
  Al  Al18  1  0.22581817  0.54246166  0.56611832  1
  Al  Al19  1  0.77557454  0.42293129  0.38969077  1
  Al  Al20  1  0.88273833  0.54145438  0.13825752  1
  Al  Al21  1  0.44617751  0.42430218  0.83835120  1
  Al  Al22  1  0.55747236  0.54176897  0.63694715  1
  Al  Al23  1  0.10298401  0.76541176  0.31634893  1
  Al  Al24  1  0.22962333  0.87667237  0.13760859  1
  Al  Al25  1  0.76953835  0.76084269  0.89220055  1
  Al  Al26  1  0.88931329  0.88222380  0.55982169  1
  Al  Al27  1  0.44540294  0.76222851  0.38345280  1
  Al  Al28  1  0.10581764  0.75943107  0.81867876  1
  Al  Al29  1  0.22783195  0.87494486  0.63695518  1
  Al  Al30  1  0.77115937  0.76533703  0.37448730  1
  Al  Al31  1  0.88414177  0.87654232  0.07717843  1
  Al  Al32  1  0.44662986  0.76425158  0.89038853  1
  Al  Al33  1  0.55860895  0.87448161  0.63285723  1
  B  B34  1  0.77603479  0.09150060  0.30961593  1
  B  B35  1  0.55436856  0.87099780  0.14008708  1
  N  N36  1  0.22014754  0.20508762  0.32534286  1
  N  N37  1  0.10766559  0.09497573  0.07654499  1
  N  N38  1  0.89187100  0.20795985  0.82886510  1
  N  N39  1  0.77525291  0.09184806  0.63273611  1
  N  N40  1  0.58475789  0.19261486  0.36528226  1
  N  N41  1  0.45272220  0.06501109  0.08704128  1
  N  N42  1  0.22671009  0.20325599  0.82659750  1
  N  N43  1  0.11215490  0.09496619  0.57701559  1
  N  N44  1  0.87979464  0.19697908  0.33276890  1
  N  N45  1  0.77388750  0.08820810  0.14999570  1
  N  N46  1  0.56090451  0.20385353  0.89165960  1
  N  N47  1  0.44454535  0.09138198  0.56560915  1
  N  N48  1  0.22165259  0.54333716  0.37477181  1
  N  N49  1  0.10590639  0.42374078  0.07757004  1
  N  N50  1  0.88782060  0.54253752  0.82621128  1
  N  N51  1  0.77851808  0.42869832  0.57749147  1
  N  N52  1  0.55901984  0.54254251  0.32698051  1
  N  N53  1  0.44211500  0.42674809  0.12567337  1
  N  N54  1  0.22367535  0.54241435  0.88040066  1
  N  N55  1  0.10872031  0.42505584  0.57745137  1
  N  N56  1  0.88736099  0.53782239  0.32526217  1
  N  N57  1  0.77808651  0.42461763  0.07666313  1
  N  N58  1  0.55833514  0.54348311  0.83004862  1
  N  N59  1  0.44644832  0.42374016  0.61649447  1
  N  N60  1  0.22535066  0.87537974  0.32744032  1
  N  N61  1  0.10729683  0.76107727  0.12824971  1
  N  N62  1  0.89004369  0.87472253  0.88721030  1
  N  N63  1  0.77594099  0.76046836  0.56650413  1
  N  N64  1  0.55480991  0.87071948  0.30229398  1
  N  N65  1  0.45622981  0.77291663  0.08164719  1
  N  N66  1  0.22712783  0.87329961  0.82884451  1
  N  N67  1  0.10599133  0.76131645  0.62703333  1
  N  N68  1  0.87680674  0.90203375  0.36829525  1
  N  N69  1  0.74837834  0.77064501  0.08541474  1
  N  N70  1  0.55691470  0.87357840  0.82062987  1
  N  N71  1  0.44701420  0.76227441  0.57282814  1
