# generated using pymatgen
data_Al17BN18
_symmetry_space_group_name_H-M   'P 1'
_cell_length_a   9.30326301
_cell_length_b   9.29976539
_cell_length_c   9.98179974
_cell_angle_alpha   89.83794620
_cell_angle_beta   89.95883025
_cell_angle_gamma   59.98750626
_symmetry_Int_Tables_number   1
_chemical_formula_structural   Al17BN18
_chemical_formula_sum   'Al34 B2 N36'
_cell_volume   747.80817583
_cell_formula_units_Z   2
loop_
 _symmetry_equiv_pos_site_id
 _symmetry_equiv_pos_as_xyz
  1  'x, y, z'
loop_
 _atom_site_type_symbol
 _atom_site_label
 _atom_site_symmetry_multiplicity
 _atom_site_fract_x
 _atom_site_fract_y
 _atom_site_fract_z
 _atom_site_occupancy
  Al  Al0  1  0.10697693  0.09227106  0.39628967  1
  Al  Al1  1  0.22551890  0.20117019  0.14691631  1
  Al  Al2  1  0.77718929  0.09481810  0.88484188  1
  Al  Al3  1  0.88797383  0.20480105  0.64642444  1
  Al  Al4  1  0.45213968  0.08978691  0.38928287  1
  Al  Al5  1  0.56192150  0.19798442  0.14256662  1
  Al  Al6  1  0.11147824  0.09477317  0.89686431  1
  Al  Al7  1  0.22404557  0.20406143  0.64513645  1
  Al  Al8  1  0.88656345  0.20312798  0.14258041  1
  Al  Al9  1  0.44640838  0.08926614  0.90069560  1
  Al  Al10  1  0.55618197  0.20381437  0.64598182  1
  Al  Al11  1  0.11112500  0.42744672  0.39746662  1
  Al  Al12  1  0.22218356  0.53858401  0.14766567  1
  Al  Al13  1  0.77799966  0.42817401  0.89695595  1
  Al  Al14  1  0.88717930  0.54091343  0.64446943  1
  Al  Al15  1  0.45161298  0.42274709  0.39600102  1
  Al  Al16  1  0.55701048  0.54307451  0.14659931  1
  Al  Al17  1  0.11097560  0.42801251  0.89508516  1
  Al  Al18  1  0.22238700  0.53921585  0.64501574  1
  Al  Al19  1  0.77591521  0.42309697  0.39631358  1
  Al  Al20  1  0.88434529  0.54222641  0.14680824  1
  Al  Al21  1  0.44352863  0.42786085  0.89731530  1
  Al  Al22  1  0.55533694  0.53934005  0.64592998  1
  Al  Al23  1  0.10653667  0.76783357  0.39521449  1
  Al  Al24  1  0.22674758  0.87370054  0.14653368  1
  Al  Al25  1  0.77221333  0.76286591  0.89973856  1
  Al  Al26  1  0.88671184  0.87351931  0.64531093  1
  Al  Al27  1  0.44613725  0.76206372  0.39090250  1
  Al  Al28  1  0.11182056  0.76011140  0.89624304  1
  Al  Al29  1  0.22275161  0.87212481  0.64538704  1
  Al  Al30  1  0.77374807  0.76866002  0.38829717  1
  Al  Al31  1  0.88186421  0.87821927  0.13908641  1
  Al  Al32  1  0.44701953  0.76387615  0.89932382  1
  Al  Al33  1  0.55600465  0.87288931  0.64346484  1
  B  B34  1  0.77848207  0.09359145  0.36484234  1
  B  B35  1  0.55516062  0.87224274  0.14991394  1
  N  N36  1  0.22220402  0.20500926  0.33692728  1
  N  N37  1  0.11023305  0.09530083  0.08796551  1
  N  N38  1  0.89101115  0.20791186  0.83754594  1
  N  N39  1  0.77719789  0.09475047  0.60106753  1
  N  N40  1  0.58553447  0.19051517  0.33720679  1
  N  N41  1  0.45702009  0.06985968  0.09540547  1
  N  N42  1  0.22457561  0.20409912  0.83792652  1
  N  N43  1  0.11062392  0.09504270  0.58597823  1
  N  N44  1  0.87474424  0.19076218  0.33806557  1
  N  N45  1  0.77763728  0.09574160  0.07587220  1
  N  N46  1  0.54963040  0.20667094  0.83911707  1
  N  N47  1  0.44512065  0.09361650  0.58026382  1
  N  N48  1  0.22280743  0.53892900  0.33811682  1
  N  N49  1  0.11075889  0.42788890  0.08669540  1
  N  N50  1  0.88711503  0.54125485  0.83726865  1
  N  N51  1  0.77784940  0.42762905  0.58597513  1
  N  N52  1  0.55583688  0.53893924  0.33577917  1
  N  N53  1  0.44523950  0.42707714  0.08936478  1
  N  N54  1  0.22255195  0.53903142  0.83617247  1
  N  N55  1  0.11078977  0.42770069  0.58775969  1
  N  N56  1  0.88856925  0.53847716  0.33682501  1
  N  N57  1  0.77840765  0.42704839  0.08804645  1
  N  N58  1  0.55437376  0.54069038  0.83875663  1
  N  N59  1  0.44487883  0.42713253  0.58596671  1
  N  N60  1  0.22286320  0.87224703  0.33572366  1
  N  N61  1  0.11151816  0.76165485  0.08829264  1
  N  N62  1  0.88961666  0.86688367  0.83959547  1
  N  N63  1  0.77640299  0.76243776  0.57967332  1
  N  N64  1  0.55535956  0.87178172  0.31437321  1
  N  N65  1  0.45714454  0.77400775  0.09330359  1
  N  N66  1  0.22406589  0.87146279  0.83808509  1
  N  N67  1  0.11003482  0.76198386  0.58554056  1
  N  N68  1  0.87483087  0.90136227  0.33565092  1
  N  N69  1  0.75287924  0.77357683  0.09449923  1
  N  N70  1  0.55530029  0.87271255  0.83245400  1
  N  N71  1  0.44528229  0.76194012  0.58260919  1
