# generated using pymatgen
data_Al17BN18
_symmetry_space_group_name_H-M   'P 1'
_cell_length_a   9.29942668
_cell_length_b   9.29942703
_cell_length_c   9.93898232
_cell_angle_alpha   90.02508174
_cell_angle_beta   90.02507542
_cell_angle_gamma   60.01364406
_symmetry_Int_Tables_number   1
_chemical_formula_structural   Al17BN18
_chemical_formula_sum   'Al34 B2 N36'
_cell_volume   744.46546037
_cell_formula_units_Z   2
loop_
 _symmetry_equiv_pos_site_id
 _symmetry_equiv_pos_as_xyz
  1  'x, y, z'
loop_
 _atom_site_type_symbol
 _atom_site_label
 _atom_site_symmetry_multiplicity
 _atom_site_fract_x
 _atom_site_fract_y
 _atom_site_fract_z
 _atom_site_occupancy
  Al  Al0  1  0.10765740  0.09282068  0.41354079  1
  Al  Al1  1  0.22552212  0.20065413  0.16322889  1
  Al  Al2  1  0.77759350  0.09426108  0.91091088  1
  Al  Al3  1  0.88763171  0.20429804  0.65645219  1
  Al  Al4  1  0.45068854  0.09060403  0.40666402  1
  Al  Al5  1  0.56259107  0.19784218  0.16745235  1
  Al  Al6  1  0.10958333  0.09508501  0.91264764  1
  Al  Al7  1  0.22422901  0.20423922  0.66274242  1
  Al  Al8  1  0.88609384  0.20276022  0.16739983  1
  Al  Al9  1  0.44827587  0.08976475  0.91689102  1
  Al  Al10  1  0.55752344  0.20331599  0.65593242  1
  Al  Al11  1  0.11094103  0.42760695  0.41368765  1
  Al  Al12  1  0.22204946  0.53871735  0.16384788  1
  Al  Al13  1  0.77841867  0.42624956  0.91264780  1
  Al  Al14  1  0.88757339  0.54089469  0.66274247  1
  Al  Al15  1  0.44997482  0.42412715  0.41296479  1
  Al  Al16  1  0.55734563  0.54219853  0.16280024  1
  Al  Al17  1  0.11120724  0.42787312  0.91315831  1
  Al  Al18  1  0.22245089  0.53911806  0.66291416  1
  Al  Al19  1  0.77615246  0.42432559  0.41354068  1
  Al  Al20  1  0.88398822  0.54218790  0.16322890  1
  Al  Al21  1  0.44527727  0.42604506  0.91275702  1
  Al  Al22  1  0.55482899  0.54072812  0.66330887  1
  Al  Al23  1  0.10745909  0.76664215  0.41296471  1
  Al  Al24  1  0.22553158  0.87401248  0.16280040  1
  Al  Al25  1  0.77309844  0.76494197  0.91689101  1
  Al  Al26  1  0.88664932  0.87419054  0.65593253  1
  Al  Al27  1  0.44580899  0.76247751  0.40684495  1
  Al  Al28  1  0.10937751  0.76194518  0.91275707  1
  Al  Al29  1  0.22406226  0.87149493  0.66330864  1
  Al  Al30  1  0.77393749  0.76735456  0.40666404  1
  Al  Al31  1  0.88117392  0.87925857  0.16745226  1
  Al  Al32  1  0.44737939  0.76404625  0.91737883  1
  Al  Al33  1  0.55566388  0.87232933  0.66153020  1
  B  B34  1  0.77778638  0.09445406  0.41670721  1
  B  B35  1  0.55589156  0.87255829  0.16746194  1
  N  N36  1  0.22203239  0.20496431  0.35397932  1
  N  N37  1  0.10803235  0.09602170  0.10466125  1
  N  N38  1  0.88797702  0.20464353  0.84876158  1
  N  N39  1  0.77771523  0.09438237  0.58253235  1
  N  N40  1  0.58119449  0.19300471  0.36073667  1
  N  N41  1  0.45788059  0.07064009  0.11263543  1
  N  N42  1  0.22482149  0.20405169  0.85586450  1
  N  N43  1  0.11203897  0.09378275  0.60413783  1
  N  N44  1  0.87644801  0.19311591  0.36157976  1
  N  N45  1  0.77797678  0.09464433  0.09941991  1
  N  N46  1  0.55602766  0.20362718  0.85009877  1
  N  N47  1  0.44525333  0.09229891  0.59835192  1
  N  N48  1  0.22254299  0.53921036  0.35504310  1
  N  N49  1  0.11072916  0.42739536  0.10449678  1
  N  N50  1  0.88738554  0.54148756  0.85586461  1
  N  N51  1  0.77711630  0.42870540  0.60413772  1
  N  N52  1  0.55573461  0.53907733  0.35268892  1
  N  N53  1  0.44602803  0.42492491  0.10578481  1
  N  N54  1  0.22243439  0.53910212  0.85441391  1
  N  N55  1  0.11092240  0.42758842  0.60506782  1
  N  N56  1  0.88829797  0.53869866  0.35397933  1
  N  N57  1  0.77935498  0.42469890  0.10466140  1
  N  N58  1  0.55439768  0.54102873  0.85618953  1
  N  N59  1  0.44488245  0.42813135  0.60386971  1
  N  N60  1  0.22240898  0.87240259  0.35268906  1
  N  N61  1  0.10825693  0.76269585  0.10578488  1
  N  N62  1  0.88695976  0.87269511  0.85009885  1
  N  N63  1  0.77563320  0.76191923  0.59835200  1
  N  N64  1  0.55546947  0.87213633  0.33190689  1
  N  N65  1  0.45720577  0.77387284  0.11093684  1
  N  N66  1  0.22436208  0.87106434  0.85618930  1
  N  N67  1  0.11146441  0.76154947  0.60386958  1
  N  N68  1  0.87633671  0.89786203  0.36073657  1
  N  N69  1  0.75397329  0.77454688  0.11263544  1
  N  N70  1  0.55582102  0.87248738  0.85058305  1
  N  N71  1  0.44533631  0.76200248  0.59956995  1
