# generated using pymatgen
data_Al17BN18
_symmetry_space_group_name_H-M   'P 1'
_cell_length_a   9.32820221
_cell_length_b   9.32595297
_cell_length_c   10.11749643
_cell_angle_alpha   89.62163067
_cell_angle_beta   89.60007257
_cell_angle_gamma   60.03791785
_symmetry_Int_Tables_number   1
_chemical_formula_structural   Al17BN18
_chemical_formula_sum   'Al34 B2 N36'
_cell_volume   762.51305392
_cell_formula_units_Z   2
loop_
 _symmetry_equiv_pos_site_id
 _symmetry_equiv_pos_as_xyz
  1  'x, y, z'
loop_
 _atom_site_type_symbol
 _atom_site_label
 _atom_site_symmetry_multiplicity
 _atom_site_fract_x
 _atom_site_fract_y
 _atom_site_fract_z
 _atom_site_occupancy
  Al  Al0  1  0.10570933  0.09227755  0.38914634  1
  Al  Al1  1  0.22293223  0.20064041  0.13844398  1
  Al  Al2  1  0.77413720  0.09002284  0.81996278  1
  Al  Al3  1  0.89260110  0.20941728  0.63847240  1
  Al  Al4  1  0.44795449  0.08748524  0.37245716  1
  Al  Al5  1  0.56042092  0.19664067  0.08546954  1
  Al  Al6  1  0.11060462  0.09311239  0.88841981  1
  Al  Al7  1  0.22755093  0.20470042  0.63573900  1
  Al  Al8  1  0.88918240  0.20652882  0.14294573  1
  Al  Al9  1  0.44475596  0.08548219  0.89309853  1
  Al  Al10  1  0.56849987  0.20028368  0.55871864  1
  Al  Al11  1  0.10590063  0.42434155  0.38542399  1
  Al  Al12  1  0.21667603  0.54529359  0.07366716  1
  Al  Al13  1  0.77941603  0.42642808  0.88817970  1
  Al  Al14  1  0.88804927  0.54319811  0.63550801  1
  Al  Al15  1  0.45072092  0.42658308  0.36337601  1
  Al  Al16  1  0.55833785  0.54496973  0.13860601  1
  Al  Al17  1  0.10865099  0.42396987  0.88544105  1
  Al  Al18  1  0.22218523  0.54423850  0.56587564  1
  Al  Al19  1  0.77634349  0.42301736  0.38951469  1
  Al  Al20  1  0.88194440  0.54162309  0.13793870  1
  Al  Al21  1  0.45004979  0.42877689  0.88677558  1
  Al  Al22  1  0.55564399  0.53930935  0.63664869  1
  Al  Al23  1  0.10219668  0.76629375  0.31552805  1
  Al  Al24  1  0.22996973  0.87672727  0.13727037  1
  Al  Al25  1  0.76963724  0.76091674  0.89196369  1
  Al  Al26  1  0.88964163  0.88200209  0.55954520  1
  Al  Al27  1  0.44539022  0.76283261  0.38330777  1
  Al  Al28  1  0.10612734  0.75897031  0.81840253  1
  Al  Al29  1  0.22820901  0.87490716  0.63687465  1
  Al  Al30  1  0.77125156  0.76541216  0.37428818  1
  Al  Al31  1  0.88387293  0.87698054  0.07642953  1
  Al  Al32  1  0.44674874  0.76407606  0.88985869  1
  Al  Al33  1  0.55870611  0.87356263  0.63279665  1
  B  B34  1  0.77581213  0.09106907  0.30892331  1
  B  B35  1  0.55423487  0.87049202  0.13987620  1
  N  N36  1  0.21991882  0.20483491  0.32541951  1
  N  N37  1  0.10765298  0.09502437  0.07657917  1
  N  N38  1  0.89195566  0.20783082  0.82882714  1
  N  N39  1  0.77613295  0.09146144  0.63260397  1
  N  N40  1  0.58576081  0.18998416  0.36253093  1
  N  N41  1  0.45221595  0.06500369  0.08737482  1
  N  N42  1  0.22651238  0.20285024  0.82663954  1
  N  N43  1  0.11221842  0.09487903  0.57701073  1
  N  N44  1  0.87969966  0.19722974  0.33275015  1
  N  N45  1  0.77480028  0.08794542  0.14964840  1
  N  N46  1  0.56245452  0.20000055  0.89005190  1
  N  N47  1  0.44453047  0.09074074  0.56567728  1
  N  N48  1  0.21729492  0.54512535  0.37072284  1
  N  N49  1  0.10537240  0.42362694  0.07771204  1
  N  N50  1  0.88748020  0.54250436  0.82613290  1
  N  N51  1  0.77829880  0.42894440  0.57766844  1
  N  N52  1  0.55904054  0.54257306  0.32511288  1
  N  N53  1  0.44519261  0.43069281  0.09632162  1
  N  N54  1  0.22173828  0.54266930  0.87797193  1
  N  N55  1  0.10859521  0.42485814  0.57732027  1
  N  N56  1  0.88677906  0.53797192  0.32509728  1
  N  N57  1  0.77770856  0.42495130  0.07642567  1
  N  N58  1  0.55696519  0.54138614  0.82827987  1
  N  N59  1  0.45013233  0.42742965  0.57755523  1
  N  N60  1  0.22548383  0.87524014  0.32736031  1
  N  N61  1  0.10630253  0.76288668  0.12775082  1
  N  N62  1  0.89027211  0.87445578  0.88662396  1
  N  N63  1  0.77612823  0.76051559  0.56646514  1
  N  N64  1  0.55492260  0.87036941  0.30226706  1
  N  N65  1  0.45674648  0.77251581  0.08155160  1
  N  N66  1  0.22723006  0.87309836  0.82885410  1
  N  N67  1  0.10600650  0.76181950  0.62669211  1
  N  N68  1  0.87671663  0.90212237  0.36809840  1
  N  N69  1  0.74837564  0.77086633  0.08529316  1
  N  N70  1  0.55699554  0.87286729  0.82057700  1
  N  N71  1  0.44736987  0.76165186  0.57298961  1
