# generated using pymatgen
data_Al17BN18
_symmetry_space_group_name_H-M   'P 1'
_cell_length_a   9.31759332
_cell_length_b   9.31759952
_cell_length_c   10.12410791
_cell_angle_alpha   89.64554724
_cell_angle_beta   89.64279756
_cell_angle_gamma   60.07427588
_symmetry_Int_Tables_number   1
_chemical_formula_structural   Al17BN18
_chemical_formula_sum   'Al34 B2 N36'
_cell_volume   761.74318148
_cell_formula_units_Z   2
loop_
 _symmetry_equiv_pos_site_id
 _symmetry_equiv_pos_as_xyz
  1  'x, y, z'
loop_
 _atom_site_type_symbol
 _atom_site_label
 _atom_site_symmetry_multiplicity
 _atom_site_fract_x
 _atom_site_fract_y
 _atom_site_fract_z
 _atom_site_occupancy
  Al  Al0  1  0.10213082  0.09171299  0.32042378  1
  Al  Al1  1  0.22867429  0.20343128  0.14127559  1
  Al  Al2  1  0.77569330  0.09235655  0.82494330  1
  Al  Al3  1  0.88699246  0.20365439  0.56830940  1
  Al  Al4  1  0.44896786  0.08951533  0.37961818  1
  Al  Al5  1  0.56207643  0.20073657  0.08423654  1
  Al  Al6  1  0.10637452  0.09215257  0.82114569  1
  Al  Al7  1  0.22868270  0.20677349  0.63874861  1
  Al  Al8  1  0.88777974  0.20444079  0.07524810  1
  Al  Al9  1  0.44445253  0.08686914  0.89803142  1
  Al  Al10  1  0.56431299  0.20511822  0.56559344  1
  Al  Al11  1  0.10844535  0.42510982  0.39150108  1
  Al  Al12  1  0.22546530  0.54212492  0.07076928  1
  Al  Al13  1  0.77549085  0.42303600  0.82114573  1
  Al  Al14  1  0.89010756  0.54534858  0.63874925  1
  Al  Al15  1  0.44853716  0.42396322  0.31994273  1
  Al  Al16  1  0.55907732  0.54093678  0.07370630  1
  Al  Al17  1  0.10797496  0.42463981  0.88967206  1
  Al  Al18  1  0.22591560  0.54257744  0.57288246  1
  Al  Al19  1  0.77505220  0.41879105  0.32042336  1
  Al  Al20  1  0.88676697  0.54533815  0.14127511  1
  Al  Al21  1  0.44543545  0.42407112  0.82221643  1
  Al  Al22  1  0.55798166  0.53739880  0.57032955  1
  Al  Al23  1  0.10730138  0.76519866  0.31994245  1
  Al  Al24  1  0.22427489  0.87573965  0.07370591  1
  Al  Al25  1  0.77020415  0.76111837  0.89803167  1
  Al  Al26  1  0.88845665  0.88097403  0.56559382  1
  Al  Al27  1  0.44512572  0.76178634  0.34585128  1
  Al  Al28  1  0.10740905  0.76209885  0.82221703  1
  Al  Al29  1  0.22073568  0.87464446  0.57032926  1
  Al  Al30  1  0.77285198  0.76563076  0.37961870  1
  Al  Al31  1  0.88407607  0.87873716  0.08423713  1
  Al  Al32  1  0.44573887  0.76239867  0.85755503  1
  Al  Al33  1  0.55755597  0.87422168  0.63702711  1
  B  B34  1  0.77801631  0.09468060  0.31845143  1
  B  B35  1  0.55450608  0.87116707  0.14511066  1
  N  N36  1  0.22443838  0.20797217  0.33009490  1
  N  N37  1  0.10680161  0.09285891  0.13170460  1
  N  N38  1  0.88763656  0.20430174  0.88615976  1
  N  N39  1  0.77693474  0.09360043  0.63752331  1
  N  N40  1  0.58451680  0.19475783  0.37198450  1
  N  N41  1  0.45537659  0.06576341  0.08958165  1
  N  N42  1  0.22840224  0.20550224  0.83049157  1
  N  N43  1  0.10629658  0.09380113  0.63005022  1
  N  N44  1  0.87680311  0.19346717  0.37723859  1
  N  N45  1  0.77857196  0.09523535  0.15595207  1
  N  N46  1  0.55872143  0.20677683  0.89180450  1
  N  N47  1  0.44419802  0.09143983  0.57035480  1
  N  N48  1  0.22604948  0.54271484  0.38187516  1
  N  N49  1  0.10801401  0.42467401  0.07948729  1
  N  N50  1  0.88884087  0.54506357  0.83049231  1
  N  N51  1  0.77713504  0.42296262  0.63005008  1
  N  N52  1  0.55754687  0.53542104  0.38050258  1
  N  N53  1  0.44402581  0.42821894  0.13328449  1
  N  N54  1  0.22530910  0.54197571  0.88005170  1
  N  N55  1  0.10885750  0.42551933  0.58109317  1
  N  N56  1  0.89131165  0.54109857  0.33009437  1
  N  N57  1  0.77619321  0.42346674  0.13170427  1
  N  N58  1  0.55711746  0.53544109  0.88355744  1
  N  N59  1  0.44683199  0.42367352  0.63233392  1
  N  N60  1  0.21875783  0.87421075  0.38050205  1
  N  N61  1  0.11155586  0.76068931  0.13328399  1
  N  N62  1  0.89011050  0.87538915  0.89180489  1
  N  N63  1  0.77477916  0.76085885  0.57035512  1
  N  N64  1  0.55835899  0.87501912  0.30692349  1
  N  N65  1  0.45597542  0.77263945  0.10914090  1
  N  N66  1  0.21877869  0.87378218  0.88355677  1
  N  N67  1  0.10700827  0.76349736  0.63233442  1
  N  N68  1  0.87809278  0.90118083  0.37198435  1
  N  N69  1  0.74910244  0.77203681  0.08958143  1
  N  N70  1  0.55893010  0.87559001  0.82512520  1
  N  N71  1  0.44495267  0.76161850  0.60395529  1
