# generated using pymatgen
data_Al17BN18
_symmetry_space_group_name_H-M   'P 1'
_cell_length_a   9.32725326
_cell_length_b   9.32390756
_cell_length_c   10.13453238
_cell_angle_alpha   89.66504161
_cell_angle_beta   89.60824574
_cell_angle_gamma   60.01536290
_symmetry_Int_Tables_number   1
_chemical_formula_structural   Al17BN18
_chemical_formula_sum   'Al34 B2 N36'
_cell_volume   763.38114036
_cell_formula_units_Z   2
loop_
 _symmetry_equiv_pos_site_id
 _symmetry_equiv_pos_as_xyz
  1  'x, y, z'
loop_
 _atom_site_type_symbol
 _atom_site_label
 _atom_site_symmetry_multiplicity
 _atom_site_fract_x
 _atom_site_fract_y
 _atom_site_fract_z
 _atom_site_occupancy
  Al  Al0  1  0.10582843  0.09242467  0.38897367  1
  Al  Al1  1  0.22286855  0.20079839  0.13832152  1
  Al  Al2  1  0.77433634  0.08969972  0.82003076  1
  Al  Al3  1  0.89267661  0.20931663  0.63859300  1
  Al  Al4  1  0.44814175  0.08829256  0.37218990  1
  Al  Al5  1  0.56020571  0.19706431  0.08428771  1
  Al  Al6  1  0.11050646  0.09295071  0.88857193  1
  Al  Al7  1  0.22715890  0.20423704  0.63590262  1
  Al  Al8  1  0.88895823  0.20671386  0.14302998  1
  Al  Al9  1  0.44464237  0.08518513  0.89260483  1
  Al  Al10  1  0.56926883  0.19793330  0.56019589  1
  Al  Al11  1  0.10644814  0.42465353  0.38526988  1
  Al  Al12  1  0.21632485  0.54572760  0.07269427  1
  Al  Al13  1  0.77899785  0.42643200  0.88824413  1
  Al  Al14  1  0.88760216  0.54309529  0.63555285  1
  Al  Al15  1  0.45213735  0.42818482  0.37536128  1
  Al  Al16  1  0.55767175  0.54433232  0.13909694  1
  Al  Al17  1  0.10855135  0.42382764  0.88493073  1
  Al  Al18  1  0.22042203  0.54469328  0.56754951  1
  Al  Al19  1  0.77689620  0.42326790  0.38907019  1
  Al  Al20  1  0.88183849  0.54174867  0.13767512  1
  Al  Al21  1  0.45036856  0.42909837  0.89012072  1
  Al  Al22  1  0.55581332  0.53915580  0.63702825  1
  Al  Al23  1  0.10275812  0.76602060  0.31549223  1
  Al  Al24  1  0.23011401  0.87677554  0.13723762  1
  Al  Al25  1  0.76964001  0.76084007  0.89202494  1
  Al  Al26  1  0.88990691  0.88178212  0.55917459  1
  Al  Al27  1  0.44555111  0.76332945  0.38289185  1
  Al  Al28  1  0.10602524  0.75895476  0.81842398  1
  Al  Al29  1  0.22824436  0.87485188  0.63704349  1
  Al  Al30  1  0.77142374  0.76571602  0.37403440  1
  Al  Al31  1  0.88355707  0.87737463  0.07656080  1
  Al  Al32  1  0.44694688  0.76339194  0.88987322  1
  Al  Al33  1  0.55872003  0.87287560  0.63278681  1
  B  B34  1  0.77527363  0.09193041  0.30935927  1
  B  B35  1  0.55431209  0.87049727  0.13953227  1
  N  N36  1  0.22000028  0.20505857  0.32518691  1
  N  N37  1  0.10749280  0.09508745  0.07647070  1
  N  N38  1  0.89195056  0.20776407  0.82869640  1
  N  N39  1  0.77677923  0.09082344  0.63304025  1
  N  N40  1  0.58604939  0.19062074  0.36405218  1
  N  N41  1  0.45204600  0.06529299  0.08693694  1
  N  N42  1  0.22623188  0.20245073  0.82639845  1
  N  N43  1  0.11210948  0.09459208  0.57670962  1
  N  N44  1  0.87991683  0.19750360  0.33248357  1
  N  N45  1  0.77392453  0.08860633  0.15001311  1
  N  N46  1  0.56228529  0.19934714  0.88861308  1
  N  N47  1  0.44418369  0.09024329  0.56583595  1
  N  N48  1  0.21775365  0.54547414  0.37191432  1
  N  N49  1  0.10545802  0.42376198  0.07722353  1
  N  N50  1  0.88709376  0.54234886  0.82593758  1
  N  N51  1  0.77815779  0.42871269  0.57720700  1
  N  N52  1  0.55877684  0.54229995  0.32523267  1
  N  N53  1  0.44593156  0.43208302  0.08885231  1
  N  N54  1  0.22145887  0.54220441  0.87608786  1
  N  N55  1  0.10828989  0.42440161  0.57738926  1
  N  N56  1  0.88717410  0.53819555  0.32469584  1
  N  N57  1  0.77740615  0.42515330  0.07644033  1
  N  N58  1  0.55678000  0.54079465  0.82736507  1
  N  N59  1  0.45049204  0.42743721  0.57477095  1
  N  N60  1  0.22570387  0.87544940  0.32696835  1
  N  N61  1  0.10623510  0.76294137  0.12785076  1
  N  N62  1  0.89035443  0.87437792  0.88701371  1
  N  N63  1  0.77616921  0.76037399  0.56610876  1
  N  N64  1  0.55506033  0.87083542  0.30197562  1
  N  N65  1  0.45702393  0.77221889  0.08157643  1
  N  N66  1  0.22735870  0.87289322  0.82879300  1
  N  N67  1  0.10566524  0.76227292  0.62710726  1
  N  N68  1  0.87697740  0.90230885  0.36812290  1
  N  N69  1  0.74830323  0.77102204  0.08508604  1
  N  N70  1  0.55704680  0.87218649  0.82036392  1
  N  N71  1  0.44728854  0.76119858  0.57260001  1
