# generated using pymatgen
data_Al17BN18
_symmetry_space_group_name_H-M   'P 1'
_cell_length_a   9.33437444
_cell_length_b   9.33958110
_cell_length_c   10.08324924
_cell_angle_alpha   89.68677986
_cell_angle_beta   89.60255320
_cell_angle_gamma   59.99114684
_symmetry_Int_Tables_number   1
_chemical_formula_structural   Al17BN18
_chemical_formula_sum   'Al34 B2 N36'
_cell_volume   761.19056315
_cell_formula_units_Z   2
loop_
 _symmetry_equiv_pos_site_id
 _symmetry_equiv_pos_as_xyz
  1  'x, y, z'
loop_
 _atom_site_type_symbol
 _atom_site_label
 _atom_site_symmetry_multiplicity
 _atom_site_fract_x
 _atom_site_fract_y
 _atom_site_fract_z
 _atom_site_occupancy
  Al  Al0  1  0.10564123  0.09314379  0.38873761  1
  Al  Al1  1  0.22324112  0.19966679  0.13796873  1
  Al  Al2  1  0.77335024  0.09052506  0.82015463  1
  Al  Al3  1  0.89229721  0.20945776  0.63836607  1
  Al  Al4  1  0.44793440  0.08839458  0.37142928  1
  Al  Al5  1  0.56084505  0.19635629  0.08360570  1
  Al  Al6  1  0.11029012  0.09350356  0.88804317  1
  Al  Al7  1  0.22704263  0.20409707  0.63615549  1
  Al  Al8  1  0.88898739  0.20652080  0.14255828  1
  Al  Al9  1  0.44443040  0.08555019  0.89209127  1
  Al  Al10  1  0.56904233  0.19817301  0.55924872  1
  Al  Al11  1  0.10789223  0.42529637  0.38500173  1
  Al  Al12  1  0.21978449  0.53827600  0.11349510  1
  Al  Al13  1  0.77868944  0.42638706  0.88766956  1
  Al  Al14  1  0.88717336  0.54335021  0.63564631  1
  Al  Al15  1  0.45026139  0.42920644  0.37541741  1
  Al  Al16  1  0.55822458  0.54467143  0.13840957  1
  Al  Al17  1  0.11103947  0.42601239  0.88534181  1
  Al  Al18  1  0.22300709  0.53919720  0.59640287  1
  Al  Al19  1  0.77677453  0.42324959  0.38859699  1
  Al  Al20  1  0.88168923  0.54177600  0.13725812  1
  Al  Al21  1  0.44494652  0.43152236  0.89091480  1
  Al  Al22  1  0.55566671  0.53968665  0.63708290  1
  Al  Al23  1  0.10159890  0.76911820  0.31762352  1
  Al  Al24  1  0.23018386  0.87695776  0.13649629  1
  Al  Al25  1  0.76976986  0.76049020  0.89141239  1
  Al  Al26  1  0.88885224  0.88263005  0.55883481  1
  Al  Al27  1  0.44582869  0.76305523  0.38276014  1
  Al  Al28  1  0.10595408  0.75986039  0.81942624  1
  Al  Al29  1  0.22803384  0.87571095  0.63612066  1
  Al  Al30  1  0.77152541  0.76528872  0.37359661  1
  Al  Al31  1  0.88413384  0.87688452  0.07582792  1
  Al  Al32  1  0.44690316  0.76320904  0.88938313  1
  Al  Al33  1  0.55867111  0.87324032  0.63267248  1
  B  B34  1  0.77460492  0.09221588  0.30867935  1
  B  B35  1  0.55458179  0.87028291  0.13977053  1
  N  N36  1  0.21966565  0.20488369  0.32540873  1
  N  N37  1  0.10753433  0.09535084  0.07662612  1
  N  N38  1  0.89151267  0.20756259  0.82907145  1
  N  N39  1  0.77603641  0.09188863  0.63229076  1
  N  N40  1  0.58547557  0.19099322  0.36283689  1
  N  N41  1  0.45239558  0.06509748  0.08732597  1
  N  N42  1  0.22554445  0.20281586  0.82711298  1
  N  N43  1  0.11187438  0.09565924  0.57702863  1
  N  N44  1  0.87960694  0.19734991  0.33275537  1
  N  N45  1  0.77440302  0.08851555  0.14887835  1
  N  N46  1  0.56128104  0.20024350  0.88837328  1
  N  N47  1  0.44411521  0.09080725  0.56607101  1
  N  N48  1  0.22017210  0.53956812  0.34726876  1
  N  N49  1  0.10740971  0.42438299  0.07728378  1
  N  N50  1  0.88757991  0.54165897  0.82666740  1
  N  N51  1  0.77804958  0.42892169  0.57751478  1
  N  N52  1  0.55848849  0.54216949  0.32518249  1
  N  N53  1  0.44578106  0.43237488  0.08739348  1
  N  N54  1  0.22435427  0.53634920  0.84876665  1
  N  N55  1  0.10880421  0.42504679  0.57589324  1
  N  N56  1  0.88746399  0.53777143  0.32502881  1
  N  N57  1  0.77795567  0.42494532  0.07661178  1
  N  N58  1  0.55604569  0.54040138  0.82800457  1
  N  N59  1  0.44945325  0.42875330  0.57163624  1
  N  N60  1  0.22581876  0.87587714  0.32757570  1
  N  N61  1  0.10614901  0.76517152  0.12591324  1
  N  N62  1  0.88961912  0.87450098  0.88573722  1
  N  N63  1  0.77630504  0.76048633  0.56650807  1
  N  N64  1  0.55504340  0.87059562  0.30232938  1
  N  N65  1  0.45735604  0.77237836  0.08169428  1
  N  N66  1  0.22704176  0.87322670  0.82883446  1
  N  N67  1  0.10494845  0.76551294  0.62280198  1
  N  N68  1  0.87565353  0.90276146  0.36741983  1
  N  N69  1  0.74881989  0.77080623  0.08534056  1
  N  N70  1  0.55682220  0.87224161  0.82056783  1
  N  N71  1  0.44759364  0.76147573  0.57289746  1
