# generated using pymatgen
data_Al17BN18
_symmetry_space_group_name_H-M   'P 1'
_cell_length_a   9.32455189
_cell_length_b   9.31515808
_cell_length_c   9.99653219
_cell_angle_alpha   89.69590940
_cell_angle_beta   89.93689241
_cell_angle_gamma   59.95910729
_symmetry_Int_Tables_number   1
_chemical_formula_structural   Al17BN18
_chemical_formula_sum   'Al34 B2 N36'
_cell_volume   751.64414441
_cell_formula_units_Z   2
loop_
 _symmetry_equiv_pos_site_id
 _symmetry_equiv_pos_as_xyz
  1  'x, y, z'
loop_
 _atom_site_type_symbol
 _atom_site_label
 _atom_site_symmetry_multiplicity
 _atom_site_fract_x
 _atom_site_fract_y
 _atom_site_fract_z
 _atom_site_occupancy
  Al  Al0  1  0.10697553  0.09218101  0.39624328  1
  Al  Al1  1  0.22554805  0.20139461  0.14730562  1
  Al  Al2  1  0.77583688  0.09725351  0.87305603  1
  Al  Al3  1  0.88986834  0.20690512  0.65024234  1
  Al  Al4  1  0.45251224  0.08951490  0.38917616  1
  Al  Al5  1  0.56249596  0.19757484  0.14228310  1
  Al  Al6  1  0.11196036  0.09499153  0.89820957  1
  Al  Al7  1  0.22402542  0.20385642  0.64555994  1
  Al  Al8  1  0.88645894  0.20327428  0.14212974  1
  Al  Al9  1  0.44565667  0.08940377  0.90193373  1
  Al  Al10  1  0.55192730  0.20592456  0.64999008  1
  Al  Al11  1  0.11132905  0.42713835  0.39767801  1
  Al  Al12  1  0.22286841  0.53804303  0.14850878  1
  Al  Al13  1  0.77801185  0.42821448  0.89859033  1
  Al  Al14  1  0.88735995  0.54022857  0.64456929  1
  Al  Al15  1  0.45250877  0.42205364  0.39618845  1
  Al  Al16  1  0.55689892  0.54305623  0.14702684  1
  Al  Al17  1  0.11087049  0.42805318  0.89512229  1
  Al  Al18  1  0.22262314  0.53858369  0.64529554  1
  Al  Al19  1  0.77577142  0.42276711  0.39636850  1
  Al  Al20  1  0.88427957  0.54215893  0.14743819  1
  Al  Al21  1  0.44320105  0.42791740  0.89909778  1
  Al  Al22  1  0.55543056  0.53898228  0.64635167  1
  Al  Al23  1  0.10901068  0.76690532  0.39230156  1
  Al  Al24  1  0.22764855  0.87398272  0.14736733  1
  Al  Al25  1  0.76918084  0.75947588  0.89784891  1
  Al  Al26  1  0.88488385  0.87702491  0.61333312  1
  Al  Al27  1  0.44653514  0.76179888  0.39134058  1
  Al  Al28  1  0.11709243  0.75725603  0.89540706  1
  Al  Al29  1  0.22312812  0.87237706  0.64561963  1
  Al  Al30  1  0.77293542  0.76845031  0.38461863  1
  Al  Al31  1  0.88275351  0.87605378  0.09251774  1
  Al  Al32  1  0.44664010  0.76369483  0.89969228  1
  Al  Al33  1  0.55506486  0.87305385  0.64355835  1
  B  B34  1  0.78013873  0.09103131  0.35524621  1
  B  B35  1  0.55475951  0.87182533  0.15011338  1
  N  N36  1  0.22232441  0.20506746  0.33727309  1
  N  N37  1  0.11062759  0.09541336  0.08897330  1
  N  N38  1  0.89350643  0.21035901  0.84005321  1
  N  N39  1  0.77585826  0.09694029  0.63076299  1
  N  N40  1  0.58685822  0.18966845  0.33762118  1
  N  N41  1  0.45686834  0.06973181  0.09608683  1
  N  N42  1  0.22447629  0.20406290  0.83812720  1
  N  N43  1  0.11030375  0.09517539  0.58588511  1
  N  N44  1  0.87445532  0.19022944  0.33843910  1
  N  N45  1  0.77464822  0.10227155  0.07438374  1
  N  N46  1  0.54458429  0.20908023  0.84171732  1
  N  N47  1  0.44523337  0.09376761  0.58026814  1
  N  N48  1  0.22364637  0.53777150  0.33856199  1
  N  N49  1  0.11042861  0.42868310  0.08673546  1
  N  N50  1  0.88713376  0.54009858  0.83649935  1
  N  N51  1  0.77772888  0.42753589  0.58588484  1
  N  N52  1  0.55584410  0.53898786  0.33625036  1
  N  N53  1  0.44508613  0.42735825  0.09057130  1
  N  N54  1  0.22322717  0.53815890  0.83570138  1
  N  N55  1  0.11071497  0.42773254  0.58792348  1
  N  N56  1  0.88902892  0.53769219  0.33699626  1
  N  N57  1  0.77822185  0.42784788  0.08916342  1
  N  N58  1  0.55438394  0.54041294  0.83928757  1
  N  N59  1  0.44491964  0.42706788  0.58602418  1
  N  N60  1  0.22393970  0.87266435  0.33600052  1
  N  N61  1  0.11777557  0.75949480  0.08935063  1
  N  N62  1  0.89029532  0.86445941  0.86931512  1
  N  N63  1  0.77432142  0.76075453  0.57863155  1
  N  N64  1  0.55445865  0.87197251  0.31430626  1
  N  N65  1  0.45681104  0.77410265  0.09337834  1
  N  N66  1  0.22440024  0.87205362  0.83755944  1
  N  N67  1  0.11292847  0.76058915  0.58494220  1
  N  N68  1  0.87355371  0.90457664  0.35764268  1
  N  N69  1  0.74964398  0.77212294  0.09484385  1
  N  N70  1  0.55359513  0.87330185  0.83195233  1
  N  N71  1  0.44518229  0.76178665  0.58284476  1
