# generated using pymatgen
data_Al17BN18
_symmetry_space_group_name_H-M   'P 1'
_cell_length_a   9.35566738
_cell_length_b   9.34826104
_cell_length_c   10.11476434
_cell_angle_alpha   89.66766394
_cell_angle_beta   89.67095906
_cell_angle_gamma   59.94060199
_symmetry_Int_Tables_number   1
_chemical_formula_structural   Al17BN18
_chemical_formula_sum   'Al34 B2 N36'
_cell_volume   765.63559168
_cell_formula_units_Z   2
loop_
 _symmetry_equiv_pos_site_id
 _symmetry_equiv_pos_as_xyz
  1  'x, y, z'
loop_
 _atom_site_type_symbol
 _atom_site_label
 _atom_site_symmetry_multiplicity
 _atom_site_fract_x
 _atom_site_fract_y
 _atom_site_fract_z
 _atom_site_occupancy
  Al  Al0  1  0.10223783  0.09406359  0.32119050  1
  Al  Al1  1  0.22905617  0.20453861  0.13981969  1
  Al  Al2  1  0.77636737  0.09228239  0.82271298  1
  Al  Al3  1  0.88605485  0.20496725  0.56584323  1
  Al  Al4  1  0.44949816  0.08735466  0.37721619  1
  Al  Al5  1  0.56273051  0.20019668  0.08171325  1
  Al  Al6  1  0.10811760  0.09208206  0.82196241  1
  Al  Al7  1  0.22917102  0.20779594  0.63725634  1
  Al  Al8  1  0.88769756  0.20511606  0.07276645  1
  Al  Al9  1  0.44510139  0.08502578  0.89592943  1
  Al  Al10  1  0.56470837  0.20475984  0.56302480  1
  Al  Al11  1  0.10826367  0.42505022  0.39032227  1
  Al  Al12  1  0.22487524  0.54149082  0.06822136  1
  Al  Al13  1  0.78095447  0.42170200  0.82376577  1
  Al  Al14  1  0.89098871  0.54554610  0.63675898  1
  Al  Al15  1  0.44494207  0.42129319  0.31989109  1
  Al  Al16  1  0.55369931  0.54828414  0.13700602  1
  Al  Al17  1  0.10807351  0.42435226  0.88873062  1
  Al  Al18  1  0.22541864  0.54155979  0.57012267  1
  Al  Al19  1  0.77987551  0.41784060  0.32185469  1
  Al  Al20  1  0.88791251  0.54540210  0.13879472  1
  Al  Al21  1  0.44190873  0.42107168  0.82282392  1
  Al  Al22  1  0.55283350  0.54448484  0.63666438  1
  Al  Al23  1  0.10597363  0.76372307  0.32023595  1
  Al  Al24  1  0.22672729  0.87302546  0.10653667  1
  Al  Al25  1  0.76934342  0.76194980  0.89575623  1
  Al  Al26  1  0.88723956  0.88184106  0.56316059  1
  Al  Al27  1  0.44806272  0.76074244  0.38375099  1
  Al  Al28  1  0.10756745  0.76126610  0.82240851  1
  Al  Al29  1  0.22138638  0.87346619  0.59520675  1
  Al  Al30  1  0.77109382  0.76635849  0.37702627  1
  Al  Al31  1  0.88348676  0.87955312  0.08177448  1
  Al  Al32  1  0.44827812  0.76175158  0.89262686  1
  Al  Al33  1  0.55767431  0.87406847  0.63699965  1
  B  B34  1  0.77787477  0.09451964  0.31605133  1
  B  B35  1  0.55565481  0.87171419  0.14340754  1
  N  N36  1  0.22498678  0.20870198  0.32904567  1
  N  N37  1  0.10588768  0.09712069  0.12921920  1
  N  N38  1  0.88819566  0.20311487  0.88422382  1
  N  N39  1  0.77729662  0.09439812  0.63521618  1
  N  N40  1  0.58455220  0.19342386  0.37022430  1
  N  N41  1  0.45633804  0.06527241  0.08878118  1
  N  N42  1  0.22894371  0.20598011  0.82931923  1
  N  N43  1  0.10561534  0.09762409  0.62667629  1
  N  N44  1  0.87631383  0.19339878  0.37554274  1
  N  N45  1  0.77898799  0.09586073  0.15382272  1
  N  N46  1  0.55962803  0.20453436  0.88989809  1
  N  N47  1  0.44496846  0.09046580  0.56912866  1
  N  N48  1  0.22466112  0.54195806  0.38061653  1
  N  N49  1  0.10837705  0.42478738  0.07836222  1
  N  N50  1  0.88995453  0.54555678  0.82966153  1
  N  N51  1  0.78190058  0.42251746  0.62524293  1
  N  N52  1  0.55264182  0.54288560  0.33239077  1
  N  N53  1  0.44082477  0.42498911  0.12995315  1
  N  N54  1  0.22367569  0.54129919  0.87881906  1
  N  N55  1  0.10892056  0.42574536  0.57982675  1
  N  N56  1  0.89211360  0.54164949  0.32866631  1
  N  N57  1  0.78092396  0.42315358  0.12552050  1
  N  N58  1  0.55177360  0.54364154  0.83427912  1
  N  N59  1  0.44328748  0.42097286  0.62958725  1
  N  N60  1  0.22187740  0.87190186  0.35799607  1
  N  N61  1  0.10919215  0.75838364  0.13195074  1
  N  N62  1  0.88916924  0.87549273  0.88963127  1
  N  N63  1  0.77427451  0.76177312  0.56922278  1
  N  N64  1  0.55481964  0.87119494  0.30496848  1
  N  N65  1  0.45919096  0.77317093  0.08551215  1
  N  N66  1  0.22345669  0.87013039  0.86172595  1
  N  N67  1  0.10547253  0.76135237  0.62987727  1
  N  N68  1  0.87653974  0.90147280  0.37010794  1
  N  N69  1  0.74920314  0.77331127  0.08874808  1
  N  N70  1  0.55651579  0.87230815  0.82390672  1
  N  N71  1  0.44977201  0.76145867  0.57459793  1
