# generated using pymatgen
data_Al17BN18
_symmetry_space_group_name_H-M   'P 1'
_cell_length_a   9.32689994
_cell_length_b   9.30718383
_cell_length_c   10.06628807
_cell_angle_alpha   89.68561092
_cell_angle_beta   89.96059007
_cell_angle_gamma   59.92622317
_symmetry_Int_Tables_number   1
_chemical_formula_structural   Al17BN18
_chemical_formula_sum   'Al34 B2 N36'
_cell_volume   756.17876958
_cell_formula_units_Z   2
loop_
 _symmetry_equiv_pos_site_id
 _symmetry_equiv_pos_as_xyz
  1  'x, y, z'
loop_
 _atom_site_type_symbol
 _atom_site_label
 _atom_site_symmetry_multiplicity
 _atom_site_fract_x
 _atom_site_fract_y
 _atom_site_fract_z
 _atom_site_occupancy
  Al  Al0  1  0.10418775  0.09356607  0.31558903  1
  Al  Al1  1  0.21854636  0.20391606  0.07489273  1
  Al  Al2  1  0.77734149  0.09395549  0.81985992  1
  Al  Al3  1  0.88683917  0.20285595  0.56377367  1
  Al  Al4  1  0.44894376  0.09307759  0.37324250  1
  Al  Al5  1  0.56193055  0.20185041  0.08294801  1
  Al  Al6  1  0.11151096  0.09466795  0.81797003  1
  Al  Al7  1  0.21638860  0.20811770  0.56370173  1
  Al  Al8  1  0.88670871  0.20497770  0.07168811  1
  Al  Al9  1  0.45458268  0.07770890  0.89709248  1
  Al  Al10  1  0.56545937  0.20587443  0.56135957  1
  Al  Al11  1  0.10813606  0.43138189  0.31463015  1
  Al  Al12  1  0.22173338  0.54010964  0.06578319  1
  Al  Al13  1  0.77915748  0.42558838  0.81649022  1
  Al  Al14  1  0.88926012  0.53924676  0.56530405  1
  Al  Al15  1  0.44850362  0.42677939  0.31578943  1
  Al  Al16  1  0.55672369  0.54449456  0.06572221  1
  Al  Al17  1  0.11458231  0.42354822  0.81802947  1
  Al  Al18  1  0.22286801  0.53789178  0.56795557  1
  Al  Al19  1  0.77556254  0.42539277  0.31608761  1
  Al  Al20  1  0.88088723  0.54557197  0.06603989  1
  Al  Al21  1  0.44707430  0.42187703  0.81886525  1
  Al  Al22  1  0.55581708  0.53903753  0.56577845  1
  Al  Al23  1  0.10691604  0.76660853  0.31593909  1
  Al  Al24  1  0.22625942  0.87329764  0.06611776  1
  Al  Al25  1  0.78659551  0.75753517  0.81737172  1
  Al  Al26  1  0.88723814  0.87713025  0.56176991  1
  Al  Al27  1  0.44014486  0.76047050  0.31366925  1
  Al  Al28  1  0.11025736  0.76154212  0.81694053  1
  Al  Al29  1  0.22198813  0.87180915  0.56560809  1
  Al  Al30  1  0.77919038  0.76688361  0.31394271  1
  Al  Al31  1  0.88222043  0.87604386  0.07304414  1
  Al  Al32  1  0.44203666  0.75666213  0.81672710  1
  Al  Al33  1  0.55307492  0.87964704  0.63333760  1
  B  B34  1  0.77820694  0.09680614  0.31334715  1
  B  B35  1  0.55141219  0.87817155  0.15035277  1
  N  N36  1  0.21160486  0.21031525  0.37100343  1
  N  N37  1  0.10865934  0.09299831  0.12832838  1
  N  N38  1  0.88917104  0.20361405  0.88068994  1
  N  N39  1  0.77880110  0.09352364  0.63170849  1
  N  N40  1  0.58391124  0.19734529  0.36569130  1
  N  N41  1  0.45836014  0.06491666  0.09286757  1
  N  N42  1  0.22186828  0.20395929  0.88183453  1
  N  N43  1  0.10977177  0.09474650  0.62634312  1
  N  N44  1  0.87584961  0.19401246  0.37080752  1
  N  N45  1  0.78054462  0.09395468  0.15020053  1
  N  N46  1  0.56093768  0.20405627  0.88837622  1
  N  N47  1  0.44809273  0.09210303  0.56704557  1
  N  N48  1  0.22235886  0.53899950  0.37723091  1
  N  N49  1  0.10802900  0.43135764  0.12593732  1
  N  N50  1  0.89053141  0.53659283  0.87647405  1
  N  N51  1  0.77925147  0.42579276  0.62486402  1
  N  N52  1  0.55474866  0.54094609  0.37667071  1
  N  N53  1  0.44352237  0.43121635  0.12759605  1
  N  N54  1  0.22346831  0.53770477  0.87588403  1
  N  N55  1  0.11193263  0.42619005  0.62775910  1
  N  N56  1  0.88594694  0.54210943  0.37532414  1
  N  N57  1  0.77723564  0.42827474  0.12735000  1
  N  N58  1  0.55690521  0.53618046  0.87647379  1
  N  N59  1  0.44686168  0.42423896  0.62692367  1
  N  N60  1  0.22131099  0.87247328  0.37661056  1
  N  N61  1  0.11086348  0.76201132  0.12672765  1
  N  N62  1  0.88972413  0.87273760  0.88232621  1
  N  N63  1  0.78583808  0.75915128  0.62222755  1
  N  N64  1  0.54982784  0.88017502  0.31266431  1
  N  N65  1  0.45309213  0.77077867  0.12240458  1
  N  N66  1  0.22229799  0.87134598  0.87687161  1
  N  N67  1  0.10938249  0.76187979  0.62555193  1
  N  N68  1  0.87620272  0.89796020  0.36946327  1
  N  N69  1  0.75784850  0.77162061  0.12312756  1
  N  N70  1  0.55628904  0.87304319  0.82381164  1
  N  N71  1  0.44151099  0.75825605  0.62370781  1
