# generated using pymatgen
data_Al17BN18
_symmetry_space_group_name_H-M   'P 1'
_cell_length_a   9.34154661
_cell_length_b   9.33161035
_cell_length_c   10.12210062
_cell_angle_alpha   89.64250778
_cell_angle_beta   89.75224149
_cell_angle_gamma   59.98949642
_symmetry_Int_Tables_number   1
_chemical_formula_structural   Al17BN18
_chemical_formula_sum   'Al34 B2 N36'
_cell_volume   764.05005928
_cell_formula_units_Z   2
loop_
 _symmetry_equiv_pos_site_id
 _symmetry_equiv_pos_as_xyz
  1  'x, y, z'
loop_
 _atom_site_type_symbol
 _atom_site_label
 _atom_site_symmetry_multiplicity
 _atom_site_fract_x
 _atom_site_fract_y
 _atom_site_fract_z
 _atom_site_occupancy
  Al  Al0  1  0.11385281  0.08884059  0.38535337  1
  Al  Al1  1  0.22590699  0.20126948  0.13958384  1
  Al  Al2  1  0.77577300  0.09298002  0.82154593  1
  Al  Al3  1  0.88021874  0.20604577  0.56692481  1
  Al  Al4  1  0.44976922  0.08743483  0.37561208  1
  Al  Al5  1  0.56175374  0.20021923  0.08126888  1
  Al  Al6  1  0.11670293  0.09000792  0.88988295  1
  Al  Al7  1  0.22400622  0.20461497  0.63655895  1
  Al  Al8  1  0.88488057  0.20395473  0.07773646  1
  Al  Al9  1  0.44497763  0.08577270  0.89426367  1
  Al  Al10  1  0.56247598  0.20523912  0.56270221  1
  Al  Al11  1  0.10911162  0.42446178  0.38976746  1
  Al  Al12  1  0.22507164  0.54177072  0.06800172  1
  Al  Al13  1  0.77769036  0.42696269  0.85156321  1
  Al  Al14  1  0.88919273  0.54326901  0.63559008  1
  Al  Al15  1  0.44567667  0.42099928  0.31878277  1
  Al  Al16  1  0.55465645  0.54887677  0.13712915  1
  Al  Al17  1  0.10867305  0.42416561  0.88727971  1
  Al  Al18  1  0.22508746  0.54252452  0.56999109  1
  Al  Al19  1  0.77952910  0.42021913  0.33856386  1
  Al  Al20  1  0.88803539  0.54470287  0.13811808  1
  Al  Al21  1  0.44194522  0.42123435  0.82106801  1
  Al  Al22  1  0.55531606  0.54405431  0.63594418  1
  Al  Al23  1  0.10480529  0.76316057  0.31849581  1
  Al  Al24  1  0.23097821  0.87537455  0.13948871  1
  Al  Al25  1  0.76853118  0.76303618  0.89495594  1
  Al  Al26  1  0.88827722  0.88072879  0.56255954  1
  Al  Al27  1  0.44609078  0.76157365  0.38526827  1
  Al  Al28  1  0.10424781  0.76031185  0.82054666  1
  Al  Al29  1  0.22477693  0.87660161  0.63763600  1
  Al  Al30  1  0.77112572  0.76646595  0.37651692  1
  Al  Al31  1  0.88441677  0.87854691  0.08105966  1
  Al  Al32  1  0.44566747  0.76381990  0.89189653  1
  Al  Al33  1  0.55699041  0.87422351  0.63494706  1
  B  B34  1  0.77995364  0.09463338  0.31543159  1
  B  B35  1  0.55537361  0.87223445  0.14154439  1
  N  N36  1  0.22227394  0.20623223  0.32622912  1
  N  N37  1  0.11715065  0.09139656  0.07968950  1
  N  N38  1  0.88431892  0.20276764  0.88342337  1
  N  N39  1  0.77592019  0.09347905  0.63493567  1
  N  N40  1  0.58405678  0.19369139  0.36998760  1
  N  N41  1  0.45597084  0.06555354  0.08812464  1
  N  N42  1  0.22538798  0.20353776  0.82697359  1
  N  N43  1  0.11299811  0.09416982  0.57561894  1
  N  N44  1  0.87579812  0.19063483  0.37094632  1
  N  N45  1  0.77868202  0.09441457  0.15393035  1
  N  N46  1  0.55862511  0.20526615  0.88911406  1
  N  N47  1  0.44260129  0.09149121  0.56827602  1
  N  N48  1  0.22540193  0.54206773  0.38019068  1
  N  N49  1  0.10916724  0.42353683  0.07732496  1
  N  N50  1  0.88903521  0.54541156  0.82856924  1
  N  N51  1  0.77899678  0.42714098  0.60469149  1
  N  N52  1  0.55303350  0.54404779  0.32991600  1
  N  N53  1  0.44150925  0.42495038  0.12940595  1
  N  N54  1  0.22408377  0.54173126  0.87835916  1
  N  N55  1  0.10900332  0.42511577  0.57969455  1
  N  N56  1  0.89280106  0.54136171  0.32665914  1
  N  N57  1  0.77942003  0.42686781  0.11099069  1
  N  N58  1  0.55139956  0.54528196  0.83223726  1
  N  N59  1  0.44344421  0.42150650  0.62935701  1
  N  N60  1  0.22714026  0.87293883  0.32780989  1
  N  N61  1  0.10916191  0.75865363  0.12953362  1
  N  N62  1  0.88897815  0.87609849  0.88925742  1
  N  N63  1  0.77386223  0.76148558  0.56839876  1
  N  N64  1  0.55500950  0.87069767  0.30406676  1
  N  N65  1  0.45636444  0.77382659  0.08235192  1
  N  N66  1  0.22627399  0.87334763  0.82887952  1
  N  N67  1  0.10456125  0.76153762  0.62893951  1
  N  N68  1  0.87797778  0.90070503  0.37001428  1
  N  N69  1  0.74886307  0.77344308  0.08757042  1
  N  N70  1  0.55605978  0.87288799  0.82254705  1
  N  N71  1  0.44423232  0.76363569  0.57395194  1
