# generated using pymatgen
data_Al17BN18
_symmetry_space_group_name_H-M   'P 1'
_cell_length_a   9.31846697
_cell_length_b   9.31846764
_cell_length_c   10.12426176
_cell_angle_alpha   89.65165729
_cell_angle_beta   89.65137058
_cell_angle_gamma   60.07361107
_symmetry_Int_Tables_number   1
_chemical_formula_structural   Al17BN18
_chemical_formula_sum   'Al34 B2 N36'
_cell_volume   761.89287442
_cell_formula_units_Z   2
loop_
 _symmetry_equiv_pos_site_id
 _symmetry_equiv_pos_as_xyz
  1  'x, y, z'
loop_
 _atom_site_type_symbol
 _atom_site_label
 _atom_site_symmetry_multiplicity
 _atom_site_fract_x
 _atom_site_fract_y
 _atom_site_fract_z
 _atom_site_occupancy
  Al  Al0  1  0.10203873  0.09179084  0.32031768  1
  Al  Al1  1  0.22871419  0.20343321  0.14124348  1
  Al  Al2  1  0.77572487  0.09238957  0.82491741  1
  Al  Al3  1  0.88698957  0.20365196  0.56826900  1
  Al  Al4  1  0.44900317  0.08940308  0.37943636  1
  Al  Al5  1  0.56208771  0.20068693  0.08419911  1
  Al  Al6  1  0.10641876  0.09210103  0.82113944  1
  Al  Al7  1  0.22872227  0.20677626  0.63872828  1
  Al  Al8  1  0.88777863  0.20444123  0.07518186  1
  Al  Al9  1  0.44446318  0.08701077  0.89787590  1
  Al  Al10  1  0.56430545  0.20505796  0.56555418  1
  Al  Al11  1  0.10844468  0.42510717  0.39149021  1
  Al  Al12  1  0.22544040  0.54210253  0.07072246  1
  Al  Al13  1  0.77543712  0.42308257  0.82113950  1
  Al  Al14  1  0.89011160  0.54538667  0.63872832  1
  Al  Al15  1  0.44849163  0.42390700  0.31983290  1
  Al  Al16  1  0.55932230  0.54035904  0.07397944  1
  Al  Al17  1  0.10797165  0.42463597  0.88966800  1
  Al  Al18  1  0.22590324  0.54256615  0.57283802  1
  Al  Al19  1  0.77512856  0.41870030  0.32031737  1
  Al  Al20  1  0.88676982  0.54537771  0.14124339  1
  Al  Al21  1  0.44541296  0.42417759  0.82220079  1
  Al  Al22  1  0.55835589  0.53669671  0.57030509  1
  Al  Al23  1  0.10724455  0.76515418  0.31983287  1
  Al  Al24  1  0.22369643  0.87598553  0.07397910  1
  Al  Al25  1  0.77034715  0.76112778  0.89787585  1
  Al  Al26  1  0.88839496  0.88096828  0.56555425  1
  Al  Al27  1  0.44568660  0.76234789  0.35468860  1
  Al  Al28  1  0.10751383  0.76207770  0.82220078  1
  Al  Al29  1  0.22003445  0.87501875  0.57030494  1
  Al  Al30  1  0.77274120  0.76566484  0.37943641  1
  Al  Al31  1  0.88402493  0.87875017  0.08419917  1
  Al  Al32  1  0.44663846  0.76329985  0.86612221  1
  Al  Al33  1  0.55733213  0.87399609  0.63694558  1
  B  B34  1  0.77800861  0.09467116  0.31843145  1
  B  B35  1  0.55421273  0.87087536  0.14454789  1
  N  N36  1  0.22443246  0.20796969  0.33008072  1
  N  N37  1  0.10674060  0.09299639  0.13168671  1
  N  N38  1  0.88765639  0.20432043  0.88612403  1
  N  N39  1  0.77695403  0.09361746  0.63748223  1
  N  N40  1  0.58450762  0.19460357  0.37192239  1
  N  N41  1  0.45538811  0.06589251  0.08951759  1
  N  N42  1  0.22840077  0.20551175  0.83046634  1
  N  N43  1  0.10627208  0.09387806  0.63008032  1
  N  N44  1  0.87679595  0.19345815  0.37723170  1
  N  N45  1  0.77859222  0.09525491  0.15591245  1
  N  N46  1  0.55875162  0.20675886  0.89172777  1
  N  N47  1  0.44422980  0.09144591  0.57033433  1
  N  N48  1  0.22604125  0.54270404  0.38185933  1
  N  N49  1  0.10800842  0.42467132  0.07948653  1
  N  N50  1  0.88884768  0.54506482  0.83046642  1
  N  N51  1  0.77721472  0.42293515  0.63008039  1
  N  N52  1  0.55789706  0.53453161  0.38010336  1
  N  N53  1  0.44397729  0.42812675  0.13323201  1
  N  N54  1  0.22528707  0.54195180  0.88002903  1
  N  N55  1  0.10885851  0.42552247  0.58109297  1
  N  N56  1  0.89130754  0.54109418  0.33008058  1
  N  N57  1  0.77633307  0.42340379  0.13168655  1
  N  N58  1  0.55718744  0.53513177  0.88330176  1
  N  N59  1  0.44680301  0.42371801  0.63232963  1
  N  N60  1  0.21786982  0.87455941  0.38010316  1
  N  N61  1  0.11146440  0.76064003  0.13323187  1
  N  N62  1  0.89009483  0.87541656  0.89172779  1
  N  N63  1  0.77478247  0.76089324  0.57033424  1
  N  N64  1  0.55769931  0.87436104  0.30639609  1
  N  N65  1  0.45662490  0.77328765  0.10338563  1
  N  N66  1  0.21846951  0.87385109  0.88330136  1
  N  N67  1  0.10705477  0.76346659  0.63232948  1
  N  N68  1  0.87794088  0.90117014  0.37192236  1
  N  N69  1  0.74922978  0.77205118  0.08951745  1
  N  N70  1  0.55869390  0.87535703  0.82474118  1
  N  N71  1  0.44565291  0.76231546  0.59712095  1
