# generated using pymatgen
data_Al17BN18
_symmetry_space_group_name_H-M   'P 1'
_cell_length_a   9.31435716
_cell_length_b   9.30796503
_cell_length_c   9.98341272
_cell_angle_alpha   89.76431785
_cell_angle_beta   89.94550701
_cell_angle_gamma   59.97321415
_symmetry_Int_Tables_number   1
_chemical_formula_structural   Al17BN18
_chemical_formula_sum   'Al34 B2 N36'
_cell_volume   749.36943096
_cell_formula_units_Z   2
loop_
 _symmetry_equiv_pos_site_id
 _symmetry_equiv_pos_as_xyz
  1  'x, y, z'
loop_
 _atom_site_type_symbol
 _atom_site_label
 _atom_site_symmetry_multiplicity
 _atom_site_fract_x
 _atom_site_fract_y
 _atom_site_fract_z
 _atom_site_occupancy
  Al  Al0  1  0.10607116  0.09283694  0.31235995  1
  Al  Al1  1  0.22670575  0.19865361  0.06524891  1
  Al  Al2  1  0.77771965  0.09369394  0.81602281  1
  Al  Al3  1  0.88654778  0.20289420  0.55996705  1
  Al  Al4  1  0.45122915  0.08899818  0.33442967  1
  Al  Al5  1  0.55961623  0.19757889  0.07256067  1
  Al  Al6  1  0.11055161  0.09440871  0.81403859  1
  Al  Al7  1  0.21938280  0.20782745  0.56362608  1
  Al  Al8  1  0.88697825  0.20483756  0.06816853  1
  Al  Al9  1  0.44648620  0.09378965  0.81673072  1
  Al  Al10  1  0.56230039  0.20530450  0.56053804  1
  Al  Al11  1  0.11083654  0.42843361  0.31122039  1
  Al  Al12  1  0.22216528  0.53931181  0.06172292  1
  Al  Al13  1  0.77793051  0.42764948  0.81319030  1
  Al  Al14  1  0.89021146  0.53862703  0.56105642  1
  Al  Al15  1  0.44894677  0.42461987  0.31220642  1
  Al  Al16  1  0.55758218  0.54373180  0.06302664  1
  Al  Al17  1  0.11082712  0.42772143  0.81441008  1
  Al  Al18  1  0.22245614  0.53864672  0.56438889  1
  Al  Al19  1  0.77643235  0.42354065  0.31243663  1
  Al  Al20  1  0.88125520  0.54425634  0.06325189  1
  Al  Al21  1  0.44620543  0.42605496  0.81507120  1
  Al  Al22  1  0.55535011  0.53829748  0.56150282  1
  Al  Al23  1  0.10785971  0.76533698  0.31216706  1
  Al  Al24  1  0.22632385  0.87458337  0.06308725  1
  Al  Al25  1  0.77941535  0.76176265  0.81096766  1
  Al  Al26  1  0.88749042  0.87740692  0.55800016  1
  Al  Al27  1  0.44679110  0.76343386  0.31777243  1
  Al  Al28  1  0.10933343  0.76273988  0.81400918  1
  Al  Al29  1  0.22147566  0.87182611  0.56175174  1
  Al  Al30  1  0.77131777  0.76881852  0.31773303  1
  Al  Al31  1  0.88094407  0.87716826  0.07013088  1
  Al  Al32  1  0.44442205  0.76077429  0.81062036  1
  Al  Al33  1  0.55692631  0.87048738  0.58138738  1
  B  B34  1  0.77875596  0.09446703  0.30931184  1
  B  B35  1  0.55386596  0.87473075  0.10318837  1
  N  N36  1  0.21908469  0.20598086  0.37132253  1
  N  N37  1  0.11000911  0.09438698  0.12340037  1
  N  N38  1  0.88808179  0.20488192  0.87659378  1
  N  N39  1  0.77892580  0.09368172  0.62713765  1
  N  N40  1  0.58171284  0.19388814  0.36545695  1
  N  N41  1  0.45884081  0.06435839  0.12147205  1
  N  N42  1  0.22282573  0.20489269  0.87413691  1
  N  N43  1  0.10912155  0.09490467  0.62150792  1
  N  N44  1  0.87637101  0.19261312  0.36594447  1
  N  N45  1  0.77827217  0.09495808  0.14503877  1
  N  N46  1  0.55748111  0.20448624  0.88020890  1
  N  N47  1  0.44285102  0.10199672  0.61309160  1
  N  N48  1  0.22273544  0.53841523  0.37259576  1
  N  N49  1  0.11024593  0.42812283  0.12096126  1
  N  N50  1  0.88848636  0.53959288  0.87341110  1
  N  N51  1  0.77898013  0.42619011  0.62018329  1
  N  N52  1  0.55515181  0.53911337  0.37054373  1
  N  N53  1  0.44463814  0.42841856  0.12238970  1
  N  N54  1  0.22259559  0.53900935  0.87145533  1
  N  N55  1  0.11043225  0.42811251  0.62342848  1
  N  N56  1  0.88822698  0.53932084  0.36916435  1
  N  N57  1  0.77749592  0.42776560  0.12328843  1
  N  N58  1  0.55556819  0.53910312  0.87349511  1
  N  N59  1  0.44628052  0.42601478  0.62248636  1
  N  N60  1  0.22279129  0.87140573  0.37070543  1
  N  N61  1  0.11108367  0.76162692  0.12219982  1
  N  N62  1  0.88830437  0.87287605  0.87914616  1
  N  N63  1  0.78703153  0.75844352  0.61837560  1
  N  N64  1  0.55698926  0.86819147  0.38597212  1
  N  N65  1  0.45891010  0.77654700  0.12153745  1
  N  N66  1  0.22291926  0.87145405  0.87346996  1
  N  N67  1  0.10884032  0.76262062  0.62123479  1
  N  N68  1  0.87645020  0.89701737  0.36347513  1
  N  N69  1  0.74665511  0.77694071  0.12238674  1
  N  N70  1  0.55685967  0.87083416  0.84056859  1
  N  N71  1  0.44072994  0.75712953  0.62003154  1
