# generated using pymatgen
data_Al17BN18
_symmetry_space_group_name_H-M   'P 1'
_cell_length_a   9.32689873
_cell_length_b   9.30717962
_cell_length_c   10.06628927
_cell_angle_alpha   89.68571125
_cell_angle_beta   89.96060708
_cell_angle_gamma   59.92622157
_symmetry_Int_Tables_number   1
_chemical_formula_structural   Al17BN18
_chemical_formula_sum   'Al34 B2 N36'
_cell_volume   756.17841497
_cell_formula_units_Z   2
loop_
 _symmetry_equiv_pos_site_id
 _symmetry_equiv_pos_as_xyz
  1  'x, y, z'
loop_
 _atom_site_type_symbol
 _atom_site_label
 _atom_site_symmetry_multiplicity
 _atom_site_fract_x
 _atom_site_fract_y
 _atom_site_fract_z
 _atom_site_occupancy
  Al  Al0  1  0.10709672  0.09339671  0.39038106  1
  Al  Al1  1  0.22644235  0.20008432  0.14055966  1
  Al  Al2  1  0.78028267  0.08704604  0.82316516  1
  Al  Al3  1  0.89132221  0.21003034  0.63977518  1
  Al  Al4  1  0.45113762  0.09064846  0.38345593  1
  Al  Al5  1  0.55416696  0.19980810  0.14255538  1
  Al  Al6  1  0.11137046  0.09488313  0.89089278  1
  Al  Al7  1  0.22310046  0.20515040  0.63955799  1
  Al  Al8  1  0.89321327  0.20622348  0.14282897  1
  Al  Al9  1  0.44611906  0.08956197  0.89472502  1
  Al  Al10  1  0.54676422  0.20915664  0.63912857  1
  Al  Al11  1  0.11162493  0.42658286  0.39071662  1
  Al  Al12  1  0.22522095  0.53531111  0.14187109  1
  Al  Al13  1  0.77754135  0.42765594  0.89072230  1
  Al  Al14  1  0.88628379  0.54481585  0.63762921  1
  Al  Al15  1  0.45247076  0.42112039  0.39045967  1
  Al  Al16  1  0.55779457  0.54129986  0.14041194  1
  Al  Al17  1  0.11048997  0.42880200  0.88853904  1
  Al  Al18  1  0.21877671  0.54314494  0.63846558  1
  Al  Al19  1  0.77663340  0.42219859  0.39077769  1
  Al  Al20  1  0.88485520  0.53991317  0.14070904  1
  Al  Al21  1  0.44409633  0.42744568  0.89119774  1
  Al  Al22  1  0.55420157  0.54110260  0.64001082  1
  Al  Al23  1  0.11481056  0.76277873  0.38160487  1
  Al  Al24  1  0.22917016  0.87312697  0.14091057  1
  Al  Al25  1  0.76789915  0.76081793  0.89513372  1
  Al  Al26  1  0.87877554  0.88898558  0.55940669  1
  Al  Al27  1  0.44664958  0.76171517  0.38481064  1
  Al  Al28  1  0.11697209  0.75857373  0.89279582  1
  Al  Al29  1  0.22184775  0.87202509  0.63852636  1
  Al  Al30  1  0.77142778  0.76484290  0.37354860  1
  Al  Al31  1  0.88441450  0.87361365  0.08325341  1
  Al  Al32  1  0.44651870  0.76383631  0.89272442  1
  Al  Al33  1  0.55601645  0.87273646  0.63663601  1
  B  B34  1  0.78194543  0.08852172  0.30614288  1
  B  B35  1  0.55515050  0.86988668  0.14314827  1
  N  N36  1  0.22249472  0.20468158  0.32977117  1
  N  N37  1  0.11204740  0.09421926  0.07988937  1
  N  N38  1  0.89184740  0.20843666  0.83279385  1
  N  N39  1  0.77707099  0.09364755  0.63268870  1
  N  N40  1  0.57550949  0.19507137  0.33336946  1
  N  N41  1  0.45715472  0.06873200  0.08703223  1
  N  N42  1  0.22397457  0.20481288  0.83094567  1
  N  N43  1  0.11105948  0.09534708  0.57962672  1
  N  N44  1  0.88026474  0.19591453  0.33409217  1
  N  N45  1  0.78353028  0.08651770  0.14382936  1
  N  N46  1  0.54751924  0.20754157  0.83427169  1
  N  N47  1  0.44363434  0.09395500  0.57417283  1
  N  N48  1  0.22532795  0.53533643  0.33056295  1
  N  N49  1  0.11099927  0.42769355  0.07926555  1
  N  N50  1  0.88649618  0.54245336  0.82957122  1
  N  N51  1  0.77645327  0.43051126  0.58002549  1
  N  N52  1  0.55612156  0.53841837  0.32914917  1
  N  N53  1  0.44740974  0.42458318  0.08117661  1
  N  N54  1  0.22142618  0.54050278  0.82873653  1
  N  N55  1  0.10989034  0.42898787  0.58061429  1
  N  N56  1  0.88983573  0.53547660  0.32890267  1
  N  N57  1  0.77860888  0.42574764  0.07982911  1
  N  N58  1  0.55410655  0.54089869  0.83163666  1
  N  N59  1  0.44282786  0.43009862  0.58002471  1
  N  N60  1  0.22469839  0.87369541  0.32817073  1
  N  N61  1  0.12175394  0.75637715  0.08549407  1
  N  N62  1  0.88526759  0.87458741  0.88945029  1
  N  N63  1  0.77242060  0.76263732  0.56811984  1
  N  N64  1  0.55281375  0.87273804  0.30629586  1
  N  N65  1  0.45750750  0.77268012  0.08569000  1
  N  N66  1  0.22358661  0.87194652  0.83015392  1
  N  N67  1  0.11148978  0.76273427  0.57466212  1
  N  N68  1  0.87499750  0.90177729  0.36362849  1
  N  N69  1  0.74944665  0.76934647  0.09080331  1
  N  N70  1  0.55455671  0.87316818  0.82478668  1
  N  N71  1  0.44418781  0.76307705  0.57580794  1
