# generated using pymatgen
data_Al17BN18
_symmetry_space_group_name_H-M   'P 1'
_cell_length_a   9.32273548
_cell_length_b   9.33391604
_cell_length_c   10.09307364
_cell_angle_alpha   89.67970592
_cell_angle_beta   89.60598661
_cell_angle_gamma   59.99795045
_symmetry_Int_Tables_number   1
_chemical_formula_structural   Al17BN18
_chemical_formula_sum   'Al34 B2 N36'
_cell_volume   760.57272426
_cell_formula_units_Z   2
loop_
 _symmetry_equiv_pos_site_id
 _symmetry_equiv_pos_as_xyz
  1  'x, y, z'
loop_
 _atom_site_type_symbol
 _atom_site_label
 _atom_site_symmetry_multiplicity
 _atom_site_fract_x
 _atom_site_fract_y
 _atom_site_fract_z
 _atom_site_occupancy
  Al  Al0  1  0.10562389  0.09359934  0.38854939  1
  Al  Al1  1  0.22315010  0.20028786  0.13758472  1
  Al  Al2  1  0.77273839  0.09090036  0.81982797  1
  Al  Al3  1  0.89217218  0.20941121  0.63829225  1
  Al  Al4  1  0.44788958  0.08850409  0.37124806  1
  Al  Al5  1  0.56032674  0.19716053  0.08290808  1
  Al  Al6  1  0.11021784  0.09384416  0.88811327  1
  Al  Al7  1  0.22680453  0.20399516  0.63567868  1
  Al  Al8  1  0.88891405  0.20654324  0.14254330  1
  Al  Al9  1  0.44435269  0.08538746  0.89209933  1
  Al  Al10  1  0.56869103  0.19861367  0.55881925  1
  Al  Al11  1  0.10955763  0.42632173  0.38662746  1
  Al  Al12  1  0.22170445  0.53451778  0.13551866  1
  Al  Al13  1  0.77850515  0.42638191  0.88755141  1
  Al  Al14  1  0.88755303  0.54326316  0.63512083  1
  Al  Al15  1  0.44777563  0.43074535  0.37783790  1
  Al  Al16  1  0.55755103  0.54459246  0.13790588  1
  Al  Al17  1  0.11194856  0.42641310  0.88543498  1
  Al  Al18  1  0.22630537  0.53297365  0.62796855  1
  Al  Al19  1  0.77678263  0.42325460  0.38815995  1
  Al  Al20  1  0.88252562  0.54177098  0.13684682  1
  Al  Al21  1  0.44282615  0.43251127  0.89116147  1
  Al  Al22  1  0.55535163  0.53972169  0.63645597  1
  Al  Al23  1  0.10078306  0.77074247  0.31803636  1
  Al  Al24  1  0.22995416  0.87674749  0.13605075  1
  Al  Al25  1  0.76963379  0.76027189  0.89151396  1
  Al  Al26  1  0.88952477  0.88208264  0.55881479  1
  Al  Al27  1  0.44604237  0.76291158  0.38264236  1
  Al  Al28  1  0.10444098  0.76284717  0.81935560  1
  Al  Al29  1  0.22786441  0.87541134  0.63528445  1
  Al  Al30  1  0.77154409  0.76514106  0.37365742  1
  Al  Al31  1  0.88477464  0.87651001  0.07587338  1
  Al  Al32  1  0.44715555  0.76306117  0.88944451  1
  Al  Al33  1  0.55874214  0.87329974  0.63260705  1
  B  B34  1  0.77406408  0.09285686  0.30856448  1
  B  B35  1  0.55468023  0.87020182  0.13959442  1
  N  N36  1  0.21932041  0.20561115  0.32521618  1
  N  N37  1  0.10750408  0.09572917  0.07649683  1
  N  N38  1  0.89140558  0.20752611  0.82889683  1
  N  N39  1  0.77570989  0.09196571  0.63218164  1
  N  N40  1  0.58501316  0.19174984  0.36283747  1
  N  N41  1  0.45239239  0.06520098  0.08715021  1
  N  N42  1  0.22541485  0.20301123  0.82687646  1
  N  N43  1  0.11173420  0.09582103  0.57676520  1
  N  N44  1  0.87952975  0.19733319  0.33252458  1
  N  N45  1  0.77394297  0.08878320  0.14873150  1
  N  N46  1  0.56063138  0.20072106  0.88803198  1
  N  N47  1  0.44405893  0.09078420  0.56591820  1
  N  N48  1  0.22194934  0.53561040  0.33048025  1
  N  N49  1  0.10953349  0.42613859  0.07544685  1
  N  N50  1  0.88804226  0.54151070  0.82649556  1
  N  N51  1  0.77805757  0.42885817  0.57715128  1
  N  N52  1  0.55780366  0.54180404  0.32487526  1
  N  N53  1  0.44282613  0.43451624  0.08403787  1
  N  N54  1  0.22676437  0.53184442  0.82694849  1
  N  N55  1  0.11045839  0.42614106  0.57571715  1
  N  N56  1  0.88846876  0.53746991  0.32491394  1
  N  N57  1  0.77803048  0.42506014  0.07649110  1
  N  N58  1  0.55540830  0.54032864  0.82762923  1
  N  N59  1  0.44647065  0.43024860  0.57080793  1
  N  N60  1  0.22587077  0.87603294  0.32756079  1
  N  N61  1  0.10683254  0.76473987  0.12450004  1
  N  N62  1  0.88934286  0.87449212  0.88577365  1
  N  N63  1  0.77625640  0.76042697  0.56635952  1
  N  N64  1  0.55509429  0.87057815  0.30213229  1
  N  N65  1  0.45747992  0.77248709  0.08156990  1
  N  N66  1  0.22720128  0.87326826  0.82892040  1
  N  N67  1  0.10526511  0.76540211  0.62192904  1
  N  N68  1  0.87523482  0.90296650  0.36745988  1
  N  N69  1  0.74892441  0.77078525  0.08514773  1
  N  N70  1  0.55681625  0.87221250  0.82043425  1
  N  N71  1  0.44780667  0.76155346  0.57264204  1
