# generated using pymatgen
data_Al17BN18
_symmetry_space_group_name_H-M   'P 1'
_cell_length_a   9.34788104
_cell_length_b   9.33470017
_cell_length_c   10.13076849
_cell_angle_alpha   89.67583272
_cell_angle_beta   89.70265245
_cell_angle_gamma   59.95028227
_symmetry_Int_Tables_number   1
_chemical_formula_structural   Al17BN18
_chemical_formula_sum   'Al34 B2 N36'
_cell_volume   765.17402232
_cell_formula_units_Z   2
loop_
 _symmetry_equiv_pos_site_id
 _symmetry_equiv_pos_as_xyz
  1  'x, y, z'
loop_
 _atom_site_type_symbol
 _atom_site_label
 _atom_site_symmetry_multiplicity
 _atom_site_fract_x
 _atom_site_fract_y
 _atom_site_fract_z
 _atom_site_occupancy
  Al  Al0  1  0.11223755  0.09020349  0.38159586  1
  Al  Al1  1  0.22608667  0.20139836  0.13914949  1
  Al  Al2  1  0.77595418  0.09286950  0.82192474  1
  Al  Al3  1  0.88098861  0.20671880  0.56607135  1
  Al  Al4  1  0.44959029  0.08739971  0.37610872  1
  Al  Al5  1  0.56192701  0.20022449  0.08146566  1
  Al  Al6  1  0.11599466  0.09064895  0.88787586  1
  Al  Al7  1  0.22473590  0.20448044  0.63662970  1
  Al  Al8  1  0.88348350  0.20650956  0.07483959  1
  Al  Al9  1  0.44544077  0.08523993  0.89478657  1
  Al  Al10  1  0.56330676  0.20477573  0.56271594  1
  Al  Al11  1  0.10871613  0.42483760  0.38982323  1
  Al  Al12  1  0.22507488  0.54168764  0.06815560  1
  Al  Al13  1  0.78106447  0.42164402  0.82178409  1
  Al  Al14  1  0.89169406  0.54587166  0.63596057  1
  Al  Al15  1  0.44547733  0.42131500  0.31969195  1
  Al  Al16  1  0.55337449  0.54908425  0.13689924  1
  Al  Al17  1  0.10816381  0.42449818  0.88796173  1
  Al  Al18  1  0.22521721  0.54249277  0.56973764  1
  Al  Al19  1  0.78066944  0.41725502  0.32120809  1
  Al  Al20  1  0.88875719  0.54546778  0.13883430  1
  Al  Al21  1  0.44232760  0.42123454  0.82178945  1
  Al  Al22  1  0.55189781  0.54558614  0.63508438  1
  Al  Al23  1  0.10427964  0.76308379  0.31836060  1
  Al  Al24  1  0.23018903  0.87531982  0.13875801  1
  Al  Al25  1  0.76872109  0.76191830  0.89558314  1
  Al  Al26  1  0.88833520  0.88144715  0.56247405  1
  Al  Al27  1  0.44564168  0.76157209  0.38526140  1
  Al  Al28  1  0.10423481  0.75977363  0.82104681  1
  Al  Al29  1  0.22429323  0.87687849  0.63772818  1
  Al  Al30  1  0.77070495  0.76649529  0.37684784  1
  Al  Al31  1  0.88399186  0.87918626  0.08123004  1
  Al  Al32  1  0.44677075  0.76210369  0.89221070  1
  Al  Al33  1  0.55693359  0.87444326  0.63579543  1
  B  B34  1  0.77868336  0.09533393  0.31564616  1
  B  B35  1  0.55534279  0.87222846  0.14221679  1
  N  N36  1  0.22256344  0.20676068  0.32588195  1
  N  N37  1  0.11579667  0.09230001  0.08075974  1
  N  N38  1  0.88307835  0.20538730  0.88330499  1
  N  N39  1  0.77653173  0.09413427  0.63503924  1
  N  N40  1  0.58384983  0.19349273  0.37002407  1
  N  N41  1  0.45634237  0.06532870  0.08841703  1
  N  N42  1  0.22595920  0.20376420  0.82727298  1
  N  N43  1  0.11297262  0.09472132  0.57638732  1
  N  N44  1  0.87419203  0.19293174  0.37293664  1
  N  N45  1  0.77877983  0.09536307  0.15383111  1
  N  N46  1  0.55872623  0.20493995  0.88937417  1
  N  N47  1  0.44336228  0.09133331  0.56867331  1
  N  N48  1  0.22493761  0.54230290  0.38029127  1
  N  N49  1  0.10903608  0.42384173  0.07773753  1
  N  N50  1  0.89016931  0.54588116  0.82874027  1
  N  N51  1  0.78166671  0.42323055  0.62477706  1
  N  N52  1  0.55278873  0.54343729  0.33288216  1
  N  N53  1  0.44129110  0.42502012  0.13000551  1
  N  N54  1  0.22432004  0.54129105  0.87879476  1
  N  N55  1  0.10978420  0.42477411  0.57945249  1
  N  N56  1  0.89266567  0.54177181  0.32848376  1
  N  N57  1  0.78117980  0.42355239  0.12664220  1
  N  N58  1  0.55138780  0.54447153  0.83299741  1
  N  N59  1  0.44335303  0.42116256  0.62904684  1
  N  N60  1  0.22659710  0.87271092  0.32753219  1
  N  N61  1  0.10858320  0.75850873  0.12956370  1
  N  N62  1  0.88861067  0.87621003  0.88963828  1
  N  N63  1  0.77357539  0.76218939  0.56852233  1
  N  N64  1  0.55460440  0.87075218  0.30448168  1
  N  N65  1  0.45656701  0.77346543  0.08279762  1
  N  N66  1  0.22648535  0.87256519  0.82947748  1
  N  N67  1  0.10442122  0.76133449  0.62923465  1
  N  N68  1  0.87729256  0.90137614  0.37003933  1
  N  N69  1  0.74880843  0.77322461  0.08815836  1
  N  N70  1  0.55623408  0.87229623  0.82312049  1
  N  N71  1  0.44428680  0.76418909  0.57397315  1
