# generated using pymatgen
data_Al17BN18
_symmetry_space_group_name_H-M   'P 1'
_cell_length_a   9.31885190
_cell_length_b   9.31885321
_cell_length_c   10.12570083
_cell_angle_alpha   89.66198819
_cell_angle_beta   89.66272538
_cell_angle_gamma   60.07417258
_symmetry_Int_Tables_number   1
_chemical_formula_structural   Al17BN18
_chemical_formula_sum   'Al34 B2 N36'
_cell_volume   762.06962814
_cell_formula_units_Z   2
loop_
 _symmetry_equiv_pos_site_id
 _symmetry_equiv_pos_as_xyz
  1  'x, y, z'
loop_
 _atom_site_type_symbol
 _atom_site_label
 _atom_site_symmetry_multiplicity
 _atom_site_fract_x
 _atom_site_fract_y
 _atom_site_fract_z
 _atom_site_occupancy
  Al  Al0  1  0.11031613  0.09047958  0.38473772  1
  Al  Al1  1  0.22610821  0.20157506  0.13916832  1
  Al  Al2  1  0.77616547  0.09284109  0.82202169  1
  Al  Al3  1  0.88581204  0.20248374  0.58493782  1
  Al  Al4  1  0.44940543  0.08793313  0.37477254  1
  Al  Al5  1  0.56078610  0.20098394  0.07975442  1
  Al  Al6  1  0.11419189  0.09123549  0.88865340  1
  Al  Al7  1  0.22569313  0.20462843  0.63668388  1
  Al  Al8  1  0.88704680  0.20371788  0.09520414  1
  Al  Al9  1  0.44503551  0.08574168  0.89344677  1
  Al  Al10  1  0.56292312  0.20554203  0.56124295  1
  Al  Al11  1  0.10794851  0.42461997  0.38825497  1
  Al  Al12  1  0.22492118  0.54159406  0.06745937  1
  Al  Al13  1  0.77456045  0.43086689  0.88865406  1
  Al  Al14  1  0.88795602  0.54236470  0.63668376  1
  Al  Al15  1  0.44658652  0.42128760  0.31770456  1
  Al  Al16  1  0.55823405  0.54801977  0.13869335  1
  Al  Al17  1  0.10748090  0.42415486  0.88615332  1
  Al  Al18  1  0.22539402  0.54206675  0.56925231  1
  Al  Al19  1  0.77380675  0.42698772  0.38473777  1
  Al  Al20  1  0.88490373  0.54277941  0.13916839  1
  Al  Al21  1  0.44322223  0.42128260  0.82019292  1
  Al  Al22  1  0.55803326  0.54351732  0.63773454  1
  Al  Al23  1  0.10461380  0.76326051  0.31770478  1
  Al  Al24  1  0.23134739  0.87490615  0.13869320  1
  Al  Al25  1  0.76906787  0.76170947  0.89344666  1
  Al  Al26  1  0.88886823  0.87959590  0.56124309  1
  Al  Al27  1  0.44558464  0.76225761  0.38380983  1
  Al  Al28  1  0.10460731  0.75989747  0.82019266  1
  Al  Al29  1  0.22684476  0.87470574  0.63773455  1
  Al  Al30  1  0.77126199  0.76607566  0.37477242  1
  Al  Al31  1  0.88431080  0.87745907  0.07975418  1
  Al  Al32  1  0.44637253  0.76304735  0.89070852  1
  Al  Al33  1  0.55760161  0.87427440  0.63403286  1
  B  B34  1  0.77942922  0.09610132  0.31488367  1
  B  B35  1  0.55535963  0.87203240  0.14050498  1
  N  N36  1  0.22200511  0.20611411  0.32571674  1
  N  N37  1  0.11618537  0.09187278  0.07913785  1
  N  N38  1  0.88699587  0.20367146  0.86848378  1
  N  N39  1  0.77494160  0.09161327  0.63462412  1
  N  N40  1  0.58404838  0.19463341  0.36948569  1
  N  N41  1  0.45557343  0.06554273  0.08706485  1
  N  N42  1  0.22624272  0.20327933  0.82656848  1
  N  N43  1  0.11499733  0.09286652  0.57586494  1
  N  N44  1  0.87614117  0.19281341  0.36117821  1
  N  N45  1  0.77641880  0.09309070  0.15302035  1
  N  N46  1  0.55860129  0.20579612  0.88865700  1
  N  N47  1  0.44327768  0.09125461  0.56726683  1
  N  N48  1  0.22536576  0.54203825  0.37945158  1
  N  N49  1  0.10733497  0.42400765  0.07706453  1
  N  N50  1  0.88660441  0.54291747  0.82656847  1
  N  N51  1  0.77619333  0.43166930  0.57586528  1
  N  N52  1  0.55692129  0.54334273  0.32724244  1
  N  N53  1  0.44204353  0.42560972  0.12887993  1
  N  N54  1  0.22450687  0.54118092  0.87784887  1
  N  N55  1  0.10810183  0.42477510  0.57890231  1
  N  N56  1  0.88944168  0.53867652  0.32571686  1
  N  N57  1  0.77520009  0.43285731  0.07913859  1
  N  N58  1  0.55607588  0.54377786  0.82877159  1
  N  N59  1  0.44449045  0.42162824  0.62849927  1
  N  N60  1  0.22666892  0.87359531  0.32724223  1
  N  N61  1  0.10893745  0.75871555  0.12888002  1
  N  N62  1  0.88912215  0.87527525  0.88865681  1
  N  N63  1  0.77458075  0.75995046  0.56726680  1
  N  N64  1  0.55475279  0.87142501  0.30304648  1
  N  N65  1  0.45656531  0.77323864  0.08169713  1
  N  N66  1  0.22710209  0.87275159  0.82877154  1
  N  N67  1  0.10495599  0.76116247  0.62849890  1
  N  N68  1  0.87796098  0.90072038  0.36948590  1
  N  N69  1  0.74886993  0.77224613  0.08706497  1
  N  N70  1  0.55639362  0.87306867  0.82148701  1
  N  N71  1  0.44567700  0.76235056  0.57282878  1
