# generated using pymatgen
data_Al17BN18
_symmetry_space_group_name_H-M   'P 1'
_cell_length_a   9.32691071
_cell_length_b   9.30717899
_cell_length_c   10.06628399
_cell_angle_alpha   89.68574204
_cell_angle_beta   89.96061569
_cell_angle_gamma   59.92617559
_symmetry_Int_Tables_number   1
_chemical_formula_structural   Al17BN18
_chemical_formula_sum   'Al34 B2 N36'
_cell_volume   756.17858987
_cell_formula_units_Z   2
loop_
 _symmetry_equiv_pos_site_id
 _symmetry_equiv_pos_as_xyz
  1  'x, y, z'
loop_
 _atom_site_type_symbol
 _atom_site_label
 _atom_site_symmetry_multiplicity
 _atom_site_fract_x
 _atom_site_fract_y
 _atom_site_fract_z
 _atom_site_occupancy
  Al  Al0  1  0.10418888  0.09356716  0.31701473  1
  Al  Al1  1  0.21854669  0.20391689  0.07631798  1
  Al  Al2  1  0.77734255  0.09395570  0.82128936  1
  Al  Al3  1  0.88683988  0.20285638  0.56520156  1
  Al  Al4  1  0.44894402  0.09307886  0.37467334  1
  Al  Al5  1  0.56193162  0.20185064  0.08437457  1
  Al  Al6  1  0.11151174  0.09466792  0.81939629  1
  Al  Al7  1  0.21638904  0.20811848  0.56513106  1
  Al  Al8  1  0.88670929  0.20497812  0.07311634  1
  Al  Al9  1  0.45458474  0.07770663  0.89852019  1
  Al  Al10  1  0.56546042  0.20587550  0.56278823  1
  Al  Al11  1  0.10813720  0.43138177  0.31605630  1
  Al  Al12  1  0.22173393  0.54011013  0.06720815  1
  Al  Al13  1  0.77915817  0.42558885  0.81791517  1
  Al  Al14  1  0.88926101  0.53924710  0.56672908  1
  Al  Al15  1  0.44850445  0.42677947  0.31721438  1
  Al  Al16  1  0.55672419  0.54449615  0.06714746  1
  Al  Al17  1  0.11458302  0.42354880  0.81945533  1
  Al  Al18  1  0.22286902  0.53789210  0.56938085  1
  Al  Al19  1  0.77556322  0.42539342  0.31751280  1
  Al  Al20  1  0.88088737  0.54557337  0.06746536  1
  Al  Al21  1  0.44707511  0.42187737  0.82029188  1
  Al  Al22  1  0.55581787  0.53903767  0.56720280  1
  Al  Al23  1  0.10691635  0.76660932  0.31736414  1
  Al  Al24  1  0.22626118  0.87329770  0.06754303  1
  Al  Al25  1  0.78659673  0.75753506  0.81879620  1
  Al  Al26  1  0.88723886  0.87713137  0.56319811  1
  Al  Al27  1  0.44014558  0.76047137  0.31509811  1
  Al  Al28  1  0.11025819  0.76154259  0.81836520  1
  Al  Al29  1  0.22198845  0.87181013  0.56703244  1
  Al  Al30  1  0.77919088  0.76688471  0.31537233  1
  Al  Al31  1  0.88222070  0.87604393  0.07447114  1
  Al  Al32  1  0.44203724  0.75666193  0.81815052  1
  Al  Al33  1  0.55307560  0.87964796  0.63476410  1
  B  B34  1  0.77820765  0.09680638  0.31477630  1
  B  B35  1  0.55141254  0.87817252  0.15178278  1
  N  N36  1  0.21160577  0.21031555  0.37243261  1
  N  N37  1  0.10866048  0.09299920  0.12975432  1
  N  N38  1  0.88917209  0.20361453  0.88211780  1
  N  N39  1  0.77880174  0.09352476  0.63313799  1
  N  N40  1  0.58391169  0.19734601  0.36712077  1
  N  N41  1  0.45836066  0.06491723  0.09429647  1
  N  N42  1  0.22187017  0.20395899  0.88326056  1
  N  N43  1  0.10977237  0.09474695  0.62777007  1
  N  N44  1  0.87585076  0.19401302  0.37223516  1
  N  N45  1  0.78054469  0.09395534  0.15162933  1
  N  N46  1  0.56093802  0.20405609  0.88980393  1
  N  N47  1  0.44809284  0.09210515  0.56847625  1
  N  N48  1  0.22235979  0.53899995  0.37865649  1
  N  N49  1  0.10802975  0.43135778  0.12736348  1
  N  N50  1  0.89053242  0.53659313  0.87789977  1
  N  N51  1  0.77925193  0.42579377  0.62628960  1
  N  N52  1  0.55474942  0.54094601  0.37809616  1
  N  N53  1  0.44352336  0.43121658  0.12902149  1
  N  N54  1  0.22346909  0.53770499  0.87730957  1
  N  N55  1  0.11193283  0.42619150  0.62918549  1
  N  N56  1  0.88594808  0.54210944  0.37675028  1
  N  N57  1  0.77723613  0.42827569  0.12877586  1
  N  N58  1  0.55690587  0.53618092  0.87789928  1
  N  N59  1  0.44686213  0.42424035  0.62835042  1
  N  N60  1  0.22131092  0.87247441  0.37803606  1
  N  N61  1  0.11086401  0.76201230  0.12815333  1
  N  N62  1  0.88972492  0.87273723  0.88375312  1
  N  N63  1  0.78583864  0.75915212  0.62365343  1
  N  N64  1  0.54982804  0.88017662  0.31409600  1
  N  N65  1  0.45309284  0.77078016  0.12383377  1
  N  N66  1  0.22229940  0.87134597  0.87829712  1
  N  N67  1  0.10938356  0.76188055  0.62697738  1
  N  N68  1  0.87620371  0.89796106  0.37089191  1
  N  N69  1  0.75784847  0.77162198  0.12455731  1
  N  N70  1  0.55628949  0.87304390  0.82523918  1
  N  N71  1  0.44151147  0.75825729  0.62513188  1
