# generated using pymatgen
data_Al17BN18
_symmetry_space_group_name_H-M   'P 1'
_cell_length_a   9.31809681
_cell_length_b   9.31073789
_cell_length_c   9.98558268
_cell_angle_alpha   89.74404798
_cell_angle_beta   89.94256111
_cell_angle_gamma   59.96869013
_symmetry_Int_Tables_number   1
_chemical_formula_structural   Al17BN18
_chemical_formula_sum   'Al34 B2 N36'
_cell_volume   750.02110187
_cell_formula_units_Z   2
loop_
 _symmetry_equiv_pos_site_id
 _symmetry_equiv_pos_as_xyz
  1  'x, y, z'
loop_
 _atom_site_type_symbol
 _atom_site_label
 _atom_site_symmetry_multiplicity
 _atom_site_fract_x
 _atom_site_fract_y
 _atom_site_fract_z
 _atom_site_occupancy
  Al  Al0  1  0.10699056  0.09212542  0.39623846  1
  Al  Al1  1  0.22550861  0.20137636  0.14723429  1
  Al  Al2  1  0.77611838  0.09679462  0.87620590  1
  Al  Al3  1  0.88925613  0.20628643  0.64922598  1
  Al  Al4  1  0.45248450  0.08951362  0.38918344  1
  Al  Al5  1  0.56213514  0.19781502  0.14183811  1
  Al  Al6  1  0.11192156  0.09491697  0.89778443  1
  Al  Al7  1  0.22402686  0.20391686  0.64539708  1
  Al  Al8  1  0.88655461  0.20329641  0.14176154  1
  Al  Al9  1  0.44577499  0.08933241  0.90152484  1
  Al  Al10  1  0.55322298  0.20529910  0.64890910  1
  Al  Al11  1  0.11122249  0.42733671  0.39762613  1
  Al  Al12  1  0.22267724  0.53811756  0.14830088  1
  Al  Al13  1  0.77801796  0.42834973  0.89808987  1
  Al  Al14  1  0.88720836  0.54045343  0.64432063  1
  Al  Al15  1  0.45224545  0.42230774  0.39610810  1
  Al  Al16  1  0.55692036  0.54312040  0.14696962  1
  Al  Al17  1  0.11089231  0.42804756  0.89498224  1
  Al  Al18  1  0.22262271  0.53879605  0.64500646  1
  Al  Al19  1  0.77577252  0.42289535  0.39631560  1
  Al  Al20  1  0.88440791  0.54201578  0.14728057  1
  Al  Al21  1  0.44314126  0.42802849  0.89855584  1
  Al  Al22  1  0.55543684  0.53900760  0.64620919  1
  Al  Al23  1  0.10695392  0.76796348  0.39354246  1
  Al  Al24  1  0.22744274  0.87394412  0.14716227  1
  Al  Al25  1  0.77043117  0.76073832  0.89840131  1
  Al  Al26  1  0.88661037  0.87339350  0.63719232  1
  Al  Al27  1  0.44644514  0.76182135  0.39121352  1
  Al  Al28  1  0.11504347  0.75831764  0.89551247  1
  Al  Al29  1  0.22294333  0.87233019  0.64536300  1
  Al  Al30  1  0.77365736  0.76917144  0.38609143  1
  Al  Al31  1  0.88231560  0.87717808  0.11546540  1
  Al  Al32  1  0.44674735  0.76376645  0.89945921  1
  Al  Al33  1  0.55541073  0.87302923  0.64335411  1
  B  B34  1  0.77988692  0.09129977  0.35540129  1
  B  B35  1  0.55450070  0.87217638  0.15009877  1
  N  N36  1  0.22229392  0.20507189  0.33719346  1
  N  N37  1  0.11058910  0.09531504  0.08876866  1
  N  N38  1  0.89298671  0.20991344  0.83958891  1
  N  N39  1  0.77619602  0.09640075  0.62292037  1
  N  N40  1  0.58677965  0.18971729  0.33712736  1
  N  N41  1  0.45691441  0.06966425  0.09595330  1
  N  N42  1  0.22450305  0.20407185  0.83813821  1
  N  N43  1  0.11040956  0.09523071  0.58587904  1
  N  N44  1  0.87443904  0.19016540  0.33796845  1
  N  N45  1  0.77572667  0.09988483  0.07320421  1
  N  N46  1  0.54560368  0.20860121  0.84125144  1
  N  N47  1  0.44508778  0.09380907  0.58021742  1
  N  N48  1  0.22325480  0.53838033  0.33845939  1
  N  N49  1  0.11055520  0.42842981  0.08675393  1
  N  N50  1  0.88710253  0.54044628  0.83673274  1
  N  N51  1  0.77775574  0.42759171  0.58585019  1
  N  N52  1  0.55586023  0.53894384  0.33612477  1
  N  N53  1  0.44511476  0.42738485  0.09033748  1
  N  N54  1  0.22305958  0.53840017  0.83583920  1
  N  N55  1  0.11075253  0.42769129  0.58791148  1
  N  N56  1  0.88878697  0.53815614  0.33698549  1
  N  N57  1  0.77819975  0.42767914  0.08894866  1
  N  N58  1  0.55438199  0.54046582  0.83923272  1
  N  N59  1  0.44488419  0.42710745  0.58595547  1
  N  N60  1  0.22354880  0.87238557  0.33598660  1
  N  N61  1  0.11550776  0.76026431  0.08816047  1
  N  N62  1  0.89050653  0.86453075  0.85163663  1
  N  N63  1  0.77544872  0.76183394  0.57899887  1
  N  N64  1  0.55491494  0.87177880  0.31427539  1
  N  N65  1  0.45692744  0.77409096  0.09340503  1
  N  N66  1  0.22432980  0.87188990  0.83773875  1
  N  N67  1  0.11118434  0.76148496  0.58514474  1
  N  N68  1  0.87427740  0.90294143  0.34249946  1
  N  N69  1  0.75100790  0.77249022  0.09389934  1
  N  N70  1  0.55410167  0.87312083  0.83211545  1
  N  N71  1  0.44526327  0.76178193  0.58277370  1
