# generated using pymatgen
data_Al17BN18
_symmetry_space_group_name_H-M   'P 1'
_cell_length_a   9.33676810
_cell_length_b   9.33871169
_cell_length_c   10.08859777
_cell_angle_alpha   89.68280707
_cell_angle_beta   89.60398147
_cell_angle_gamma   59.98175761
_symmetry_Int_Tables_number   1
_chemical_formula_structural   Al17BN18
_chemical_formula_sum   'Al34 B2 N36'
_cell_volume   761.64657142
_cell_formula_units_Z   2
loop_
 _symmetry_equiv_pos_site_id
 _symmetry_equiv_pos_as_xyz
  1  'x, y, z'
loop_
 _atom_site_type_symbol
 _atom_site_label
 _atom_site_symmetry_multiplicity
 _atom_site_fract_x
 _atom_site_fract_y
 _atom_site_fract_z
 _atom_site_occupancy
  Al  Al0  1  0.10310743  0.08979483  0.32216558  1
  Al  Al1  1  0.23119302  0.19888935  0.14189962  1
  Al  Al2  1  0.77469428  0.09350065  0.82630063  1
  Al  Al3  1  0.88652229  0.20335793  0.56949867  1
  Al  Al4  1  0.44940496  0.08972425  0.38294727  1
  Al  Al5  1  0.56183670  0.20130118  0.08525848  1
  Al  Al6  1  0.10527314  0.09120603  0.82257216  1
  Al  Al7  1  0.22712064  0.20760387  0.63998671  1
  Al  Al8  1  0.88761584  0.20354685  0.07613375  1
  Al  Al9  1  0.44430756  0.08424159  0.89992161  1
  Al  Al10  1  0.56362318  0.20607836  0.56745926  1
  Al  Al11  1  0.11493114  0.42528646  0.36619719  1
  Al  Al12  1  0.22624674  0.54187852  0.07415575  1
  Al  Al13  1  0.77769906  0.42716682  0.82186012  1
  Al  Al14  1  0.88624910  0.53618170  0.56840218  1
  Al  Al15  1  0.45172284  0.42498617  0.32148851  1
  Al  Al16  1  0.55659119  0.54343670  0.07015753  1
  Al  Al17  1  0.11181329  0.42451089  0.88050018  1
  Al  Al18  1  0.22332452  0.54151055  0.57372106  1
  Al  Al19  1  0.77507813  0.42209310  0.32029580  1
  Al  Al20  1  0.88205833  0.53807953  0.08426896  1
  Al  Al21  1  0.44600437  0.42345740  0.82328368  1
  Al  Al22  1  0.55459375  0.54029285  0.57116150  1
  Al  Al23  1  0.11015023  0.76695594  0.32080241  1
  Al  Al24  1  0.22771487  0.87376372  0.07013096  1
  Al  Al25  1  0.76431077  0.76847776  0.89941799  1
  Al  Al26  1  0.88886546  0.88123704  0.56674649  1
  Al  Al27  1  0.44435220  0.76014759  0.31635419  1
  Al  Al28  1  0.10629476  0.76242482  0.82283733  1
  Al  Al29  1  0.22303834  0.87337989  0.57084183  1
  Al  Al30  1  0.77254297  0.77038109  0.37491942  1
  Al  Al31  1  0.88536541  0.87836124  0.08734995  1
  Al  Al32  1  0.44102441  0.75721810  0.82059085  1
  Al  Al33  1  0.55973580  0.87638963  0.63881496  1
  B  B34  1  0.77880254  0.09637824  0.31916299  1
  B  B35  1  0.55850865  0.87469296  0.15017600  1
  N  N36  1  0.22714498  0.20231807  0.33190429  1
  N  N37  1  0.10760633  0.09095382  0.13142569  1
  N  N38  1  0.88584377  0.20524890  0.88604462  1
  N  N39  1  0.77651397  0.09446209  0.63839230  1
  N  N40  1  0.58459395  0.19587818  0.37361462  1
  N  N41  1  0.45735223  0.06408463  0.09141911  1
  N  N42  1  0.22797913  0.20254090  0.83456227  1
  N  N43  1  0.10629349  0.09357166  0.63009632  1
  N  N44  1  0.87607180  0.19438109  0.37725739  1
  N  N45  1  0.77830772  0.09608450  0.15664717  1
  N  N46  1  0.55704782  0.20620451  0.89244313  1
  N  N47  1  0.44354966  0.09225489  0.57302754  1
  N  N48  1  0.22689111  0.54308181  0.38092025  1
  N  N49  1  0.11441441  0.42431497  0.09800257  1
  N  N50  1  0.88304020  0.53862045  0.88593110  1
  N  N51  1  0.77713251  0.42614562  0.63096324  1
  N  N52  1  0.55550363  0.54171525  0.38235257  1
  N  N53  1  0.44616178  0.42879328  0.13391314  1
  N  N54  1  0.22492668  0.54204215  0.88216170  1
  N  N55  1  0.11058974  0.42741795  0.59487385  1
  N  N56  1  0.88667351  0.53505569  0.36998989  1
  N  N57  1  0.77469761  0.42438043  0.13367056  1
  N  N58  1  0.55530788  0.53774009  0.88138099  1
  N  N59  1  0.44596423  0.42486503  0.63234007  1
  N  N60  1  0.22578102  0.87154658  0.38231822  1
  N  N61  1  0.11354615  0.76193288  0.13351030  1
  N  N62  1  0.88918770  0.87597868  0.89290515  1
  N  N63  1  0.77187087  0.76668948  0.57053536  1
  N  N64  1  0.55883677  0.87828460  0.30995581  1
  N  N65  1  0.45373178  0.76931017  0.12621048  1
  N  N66  1  0.22142669  0.87129906  0.88189721  1
  N  N67  1  0.10763167  0.76396578  0.63189082  1
  N  N68  1  0.88097060  0.90161705  0.37165021  1
  N  N69  1  0.74777732  0.77589244  0.09605400  1
  N  N70  1  0.55709255  0.87503192  0.82656675  1
  N  N71  1  0.44180730  0.75908891  0.62987809  1
