# generated using pymatgen
data_Al17BN18
_symmetry_space_group_name_H-M   'P 1'
_cell_length_a   9.32077800
_cell_length_b   9.31265782
_cell_length_c   9.98870366
_cell_angle_alpha   89.72546559
_cell_angle_beta   89.93984337
_cell_angle_gamma   59.96497767
_symmetry_Int_Tables_number   1
_chemical_formula_structural   Al17BN18
_chemical_formula_sum   'Al34 B2 N36'
_cell_volume   750.59675739
_cell_formula_units_Z   2
loop_
 _symmetry_equiv_pos_site_id
 _symmetry_equiv_pos_as_xyz
  1  'x, y, z'
loop_
 _atom_site_type_symbol
 _atom_site_label
 _atom_site_symmetry_multiplicity
 _atom_site_fract_x
 _atom_site_fract_y
 _atom_site_fract_z
 _atom_site_occupancy
  Al  Al0  1  0.10582403  0.09271358  0.31206221  1
  Al  Al1  1  0.22593169  0.19894030  0.06627037  1
  Al  Al2  1  0.77812607  0.09363974  0.81591781  1
  Al  Al3  1  0.88665691  0.20295356  0.55979320  1
  Al  Al4  1  0.45086224  0.08999905  0.35255939  1
  Al  Al5  1  0.55986099  0.19761712  0.07382009  1
  Al  Al6  1  0.11031222  0.09432776  0.81389612  1
  Al  Al7  1  0.21746240  0.20881187  0.56390649  1
  Al  Al8  1  0.88687536  0.20488810  0.06809230  1
  Al  Al9  1  0.44717296  0.09243064  0.82908782  1
  Al  Al10  1  0.56344208  0.20646946  0.56117579  1
  Al  Al11  1  0.11058888  0.42864014  0.31092258  1
  Al  Al12  1  0.22210792  0.53941308  0.06171052  1
  Al  Al13  1  0.77792232  0.42770265  0.81308360  1
  Al  Al14  1  0.89020321  0.53870556  0.56057658  1
  Al  Al15  1  0.44898464  0.42466535  0.31196561  1
  Al  Al16  1  0.55758258  0.54385902  0.06302208  1
  Al  Al17  1  0.11068567  0.42803316  0.81423951  1
  Al  Al18  1  0.22247619  0.53864503  0.56431409  1
  Al  Al19  1  0.77644473  0.42360249  0.31233710  1
  Al  Al20  1  0.88101014  0.54449225  0.06321933  1
  Al  Al21  1  0.44609214  0.42637860  0.81493886  1
  Al  Al22  1  0.55534098  0.53839293  0.56105939  1
  Al  Al23  1  0.10783783  0.76531058  0.31207179  1
  Al  Al24  1  0.22640085  0.87454820  0.06311590  1
  Al  Al25  1  0.78065997  0.76113270  0.81003244  1
  Al  Al26  1  0.88763697  0.87732742  0.55766608  1
  Al  Al27  1  0.44682926  0.76339248  0.31739795  1
  Al  Al28  1  0.10933157  0.76280271  0.81389160  1
  Al  Al29  1  0.22142152  0.87174313  0.56140128  1
  Al  Al30  1  0.77111138  0.76895552  0.31729072  1
  Al  Al31  1  0.88083732  0.87717842  0.07017365  1
  Al  Al32  1  0.44386097  0.76014658  0.80974007  1
  Al  Al33  1  0.55743208  0.86954918  0.58429540  1
  B  B34  1  0.77882998  0.09461334  0.30920323  1
  B  B35  1  0.55324536  0.87575781  0.10417219  1
  N  N36  1  0.21690140  0.20676695  0.37086512  1
  N  N37  1  0.10965919  0.09422580  0.12332601  1
  N  N38  1  0.88811623  0.20492091  0.87654066  1
  N  N39  1  0.77947964  0.09349636  0.62728737  1
  N  N40  1  0.58289040  0.19439912  0.36521665  1
  N  N41  1  0.45933311  0.06316174  0.11185477  1
  N  N42  1  0.22154408  0.20552740  0.87424282  1
  N  N43  1  0.10898088  0.09473424  0.62167645  1
  N  N44  1  0.87647962  0.19259702  0.36593666  1
  N  N45  1  0.77860218  0.09485956  0.14505758  1
  N  N46  1  0.55831307  0.20523716  0.88044998  1
  N  N47  1  0.44292430  0.10218392  0.60173135  1
  N  N48  1  0.22285893  0.53815319  0.37258901  1
  N  N49  1  0.10998192  0.42849732  0.12082233  1
  N  N50  1  0.88846414  0.53958853  0.87335960  1
  N  N51  1  0.77897828  0.42624774  0.62007448  1
  N  N52  1  0.55515448  0.53894622  0.37030262  1
  N  N53  1  0.44450549  0.42866712  0.12233216  1
  N  N54  1  0.22262276  0.53898532  0.87141831  1
  N  N55  1  0.11022134  0.42840586  0.62355810  1
  N  N56  1  0.88826012  0.53931199  0.36890557  1
  N  N57  1  0.77750578  0.42773263  0.12316413  1
  N  N58  1  0.55562507  0.53910875  0.87347779  1
  N  N59  1  0.44624261  0.42639785  0.62269865  1
  N  N60  1  0.22275764  0.87135064  0.37049136  1
  N  N61  1  0.11105343  0.76162141  0.12211243  1
  N  N62  1  0.88822491  0.87290061  0.87909828  1
  N  N63  1  0.78819422  0.75787989  0.61791074  1
  N  N64  1  0.55810988  0.86577125  0.38591354  1
  N  N65  1  0.45891223  0.77648440  0.12121399  1
  N  N66  1  0.22298135  0.87148100  0.87345474  1
  N  N67  1  0.10886773  0.76262193  0.62119856  1
  N  N68  1  0.87644965  0.89701898  0.36333544  1
  N  N69  1  0.74657246  0.77697425  0.12204699  1
  N  N70  1  0.55736563  0.86993343  0.83346516  1
  N  N71  1  0.44015373  0.75657662  0.61957542  1
