# generated using pymatgen
data_Al17BN18
_symmetry_space_group_name_H-M   'P 1'
_cell_length_a   9.34260048
_cell_length_b   9.33036459
_cell_length_c   10.12874081
_cell_angle_alpha   89.64487610
_cell_angle_beta   89.75615757
_cell_angle_gamma   59.98350348
_symmetry_Int_Tables_number   1
_chemical_formula_structural   Al17BN18
_chemical_formula_sum   'Al34 B2 N36'
_cell_volume   764.48951939
_cell_formula_units_Z   2
loop_
 _symmetry_equiv_pos_site_id
 _symmetry_equiv_pos_as_xyz
  1  'x, y, z'
loop_
 _atom_site_type_symbol
 _atom_site_label
 _atom_site_symmetry_multiplicity
 _atom_site_fract_x
 _atom_site_fract_y
 _atom_site_fract_z
 _atom_site_occupancy
  Al  Al0  1  0.10252652  0.09118343  0.31909434  1
  Al  Al1  1  0.22857489  0.20353037  0.14016801  1
  Al  Al2  1  0.77643518  0.09236515  0.82355413  1
  Al  Al3  1  0.88754319  0.20312597  0.56666503  1
  Al  Al4  1  0.44893013  0.08800699  0.37759469  1
  Al  Al5  1  0.56224066  0.20033109  0.08211194  1
  Al  Al6  1  0.10878909  0.08988326  0.82089678  1
  Al  Al7  1  0.22913461  0.20640227  0.63804683  1
  Al  Al8  1  0.88718936  0.20527437  0.07344205  1
  Al  Al9  1  0.44509570  0.08578836  0.89614237  1
  Al  Al10  1  0.56482464  0.20386742  0.56354411  1
  Al  Al11  1  0.10827712  0.42491333  0.39069078  1
  Al  Al12  1  0.22430808  0.54219753  0.06889878  1
  Al  Al13  1  0.77969860  0.42184116  0.82284476  1
  Al  Al14  1  0.89148646  0.54535187  0.63729965  1
  Al  Al15  1  0.44481118  0.42162561  0.32049309  1
  Al  Al16  1  0.55286722  0.54823484  0.13051178  1
  Al  Al17  1  0.10829927  0.42415310  0.88879280  1
  Al  Al18  1  0.22483683  0.54246537  0.57117077  1
  Al  Al19  1  0.77935186  0.41761007  0.32181577  1
  Al  Al20  1  0.88768100  0.54558101  0.13964897  1
  Al  Al21  1  0.44327010  0.42246947  0.82292528  1
  Al  Al22  1  0.55427936  0.54208881  0.62188339  1
  Al  Al23  1  0.10747351  0.76551765  0.31902625  1
  Al  Al24  1  0.21956687  0.87774747  0.07312693  1
  Al  Al25  1  0.77085043  0.76157140  0.89596281  1
  Al  Al26  1  0.88843212  0.88095177  0.56435172  1
  Al  Al27  1  0.44898845  0.76188359  0.38182100  1
  Al  Al28  1  0.10931159  0.76214385  0.82201922  1
  Al  Al29  1  0.21679160  0.87656583  0.56864228  1
  Al  Al30  1  0.77153724  0.76653676  0.37737831  1
  Al  Al31  1  0.88362893  0.87928496  0.08303669  1
  Al  Al32  1  0.45353488  0.76002913  0.89212562  1
  Al  Al33  1  0.55760287  0.87369642  0.63693207  1
  B  B34  1  0.77801768  0.09442398  0.31702968  1
  B  B35  1  0.55361261  0.87197495  0.14300241  1
  N  N36  1  0.22421265  0.20807054  0.32903639  1
  N  N37  1  0.10631202  0.09363052  0.13085590  1
  N  N38  1  0.88921268  0.20283535  0.88477143  1
  N  N39  1  0.77730253  0.09384521  0.63608571  1
  N  N40  1  0.58451792  0.19330900  0.37108533  1
  N  N41  1  0.45542626  0.06583900  0.08855104  1
  N  N42  1  0.22884304  0.20518495  0.82964905  1
  N  N43  1  0.10718837  0.09321665  0.62979616  1
  N  N44  1  0.87694564  0.19286599  0.37623645  1
  N  N45  1  0.77835015  0.09600074  0.15459847  1
  N  N46  1  0.55968097  0.20506892  0.89034136  1
  N  N47  1  0.44441014  0.09049387  0.56926276  1
  N  N48  1  0.22408915  0.54324361  0.38129369  1
  N  N49  1  0.10797843  0.42461427  0.07839508  1
  N  N50  1  0.89005346  0.54528997  0.82929151  1
  N  N51  1  0.78256666  0.42127866  0.62570870  1
  N  N52  1  0.55287621  0.54171077  0.33890206  1
  N  N53  1  0.44035862  0.42509278  0.13137594  1
  N  N54  1  0.22422467  0.54171178  0.87910295  1
  N  N55  1  0.10932539  0.42497565  0.58017824  1
  N  N56  1  0.89189622  0.54176894  0.32912688  1
  N  N57  1  0.78039256  0.42283605  0.12768122  1
  N  N58  1  0.55333927  0.54147251  0.84291378  1
  N  N59  1  0.44384482  0.42079451  0.62977462  1
  N  N60  1  0.21636328  0.87522677  0.37906377  1
  N  N61  1  0.11110842  0.76048258  0.13245400  1
  N  N62  1  0.89079327  0.87520732  0.89040005  1
  N  N63  1  0.77479097  0.76149623  0.56947879  1
  N  N64  1  0.55455536  0.87213550  0.30463261  1
  N  N65  1  0.45796143  0.77526112  0.08669751  1
  N  N66  1  0.22051617  0.87234107  0.88303016  1
  N  N67  1  0.10806260  0.76311066  0.63170104  1
  N  N68  1  0.87739088  0.90116971  0.37052436  1
  N  N69  1  0.74932676  0.77309582  0.08860522  1
  N  N70  1  0.55741472  0.87309060  0.82361905  1
  N  N71  1  0.44967118  0.76285705  0.57469074  1
