# generated using pymatgen
data_Al17BN18
_symmetry_space_group_name_H-M   'P 1'
_cell_length_a   9.29945418
_cell_length_b   9.29945476
_cell_length_c   9.93900312
_cell_angle_alpha   90.02499970
_cell_angle_beta   90.02501569
_cell_angle_gamma   60.01359953
_symmetry_Int_Tables_number   1
_chemical_formula_structural   Al17BN18
_chemical_formula_sum   'Al34 B2 N36'
_cell_volume   744.47110565
_cell_formula_units_Z   2
loop_
 _symmetry_equiv_pos_site_id
 _symmetry_equiv_pos_as_xyz
  1  'x, y, z'
loop_
 _atom_site_type_symbol
 _atom_site_label
 _atom_site_symmetry_multiplicity
 _atom_site_fract_x
 _atom_site_fract_y
 _atom_site_fract_z
 _atom_site_occupancy
  Al  Al0  1  0.10765690  0.09282966  0.41483605  1
  Al  Al1  1  0.22552790  0.20066678  0.16452165  1
  Al  Al2  1  0.77759063  0.09425809  0.91221410  1
  Al  Al3  1  0.88762485  0.20429106  0.65774476  1
  Al  Al4  1  0.45068827  0.09060240  0.40796012  1
  Al  Al5  1  0.56259691  0.19784614  0.16875327  1
  Al  Al6  1  0.10957916  0.09508862  0.91394070  1
  Al  Al7  1  0.22422228  0.20423938  0.66403331  1
  Al  Al8  1  0.88610137  0.20276760  0.16869894  1
  Al  Al9  1  0.44827163  0.08976048  0.91818874  1
  Al  Al10  1  0.55751742  0.20330579  0.65723135  1
  Al  Al11  1  0.11094932  0.42761504  0.41497655  1
  Al  Al12  1  0.22206217  0.53872988  0.16513981  1
  Al  Al13  1  0.77842239  0.42624531  0.91394089  1
  Al  Al14  1  0.88757370  0.54088784  0.66403335  1
  Al  Al15  1  0.44998220  0.42412529  0.41426384  1
  Al  Al16  1  0.55735878  0.54220067  0.16409848  1
  Al  Al17  1  0.11120984  0.42787567  0.91444813  1
  Al  Al18  1  0.22245016  0.53911715  0.66420895  1
  Al  Al19  1  0.77616168  0.42432490  0.41483595  1
  Al  Al20  1  0.88400098  0.54219360  0.16452169  1
  Al  Al21  1  0.44528152  0.42603993  0.91405294  1
  Al  Al22  1  0.55482896  0.54071977  0.66460319  1
  Al  Al23  1  0.10745747  0.76664928  0.41426376  1
  Al  Al24  1  0.22553389  0.87402547  0.16409864  1
  Al  Al25  1  0.77309425  0.76493769  0.91818875  1
  Al  Al26  1  0.88663929  0.87418437  0.65723147  1
  Al  Al27  1  0.44580835  0.76247667  0.40813906  1
  Al  Al28  1  0.10937251  0.76194927  0.91405298  1
  Al  Al29  1  0.22405402  0.87149478  0.66460296  1
  Al  Al30  1  0.77393606  0.76735414  0.40796017  1
  Al  Al31  1  0.88117808  0.87926426  0.16875321  1
  Al  Al32  1  0.44737346  0.76404024  0.91867669  1
  Al  Al33  1  0.55565426  0.87231959  0.66283074  1
  B  B34  1  0.77778348  0.09445100  0.41800776  1
  B  B35  1  0.55589490  0.87256150  0.16875927  1
  N  N36  1  0.22203493  0.20497155  0.35527142  1
  N  N37  1  0.10803846  0.09603329  0.10595481  1
  N  N38  1  0.88797261  0.20463907  0.85005650  1
  N  N39  1  0.77770840  0.09437543  0.58383170  1
  N  N40  1  0.58119506  0.19300312  0.36203655  1
  N  N41  1  0.45788602  0.07064392  0.11393243  1
  N  N42  1  0.22481843  0.20405373  0.85715636  1
  N  N43  1  0.11203330  0.09378223  0.60543272  1
  N  N44  1  0.87645008  0.19311783  0.36287743  1
  N  N45  1  0.77798304  0.09465046  0.10072217  1
  N  N46  1  0.55602456  0.20362061  0.85139877  1
  N  N47  1  0.44524833  0.09228873  0.59964851  1
  N  N48  1  0.22255204  0.53921920  0.35633503  1
  N  N49  1  0.11074116  0.42740728  0.10578714  1
  N  N50  1  0.88738762  0.54148449  0.85715649  1
  N  N51  1  0.77711588  0.42869965  0.60543263  1
  N  N52  1  0.55574246  0.53907604  0.35398570  1
  N  N53  1  0.44604103  0.42492830  0.10708014  1
  N  N54  1  0.22243719  0.53910481  0.85570925  1
  N  N55  1  0.11092313  0.42758900  0.60635767  1
  N  N56  1  0.88830537  0.53870109  0.35527144  1
  N  N57  1  0.77936669  0.42470491  0.10595499  1
  N  N58  1  0.55439962  0.54102380  0.85748451  1
  N  N59  1  0.44488235  0.42812244  0.60516832  1
  N  N60  1  0.22240789  0.87241025  0.35398581  1
  N  N61  1  0.10826046  0.76270872  0.10708022  1
  N  N62  1  0.88695328  0.87269195  0.85139881  1
  N  N63  1  0.77562313  0.76191413  0.59964861  1
  N  N64  1  0.55546951  0.87213615  0.33320183  1
  N  N65  1  0.45720886  0.77387578  0.11223448  1
  N  N66  1  0.22435720  0.87106620  0.85748428  1
  N  N67  1  0.11145565  0.76154921  0.60516819  1
  N  N68  1  0.87633531  0.89786245  0.36203648  1
  N  N69  1  0.75397725  0.77455225  0.11393245  1
  N  N70  1  0.55581492  0.87248124  0.85188345  1
  N  N71  1  0.44532835  0.76199442  0.60086475  1
