# generated using pymatgen
data_Al17BN18
_symmetry_space_group_name_H-M   'P 1'
_cell_length_a   9.33497494
_cell_length_b   9.32889925
_cell_length_c   10.03359706
_cell_angle_alpha   89.70826226
_cell_angle_beta   89.88650642
_cell_angle_gamma   59.94905093
_symmetry_Int_Tables_number   1
_chemical_formula_structural   Al17BN18
_chemical_formula_sum   'Al34 B2 N36'
_cell_volume   756.31363325
_cell_formula_units_Z   2
loop_
 _symmetry_equiv_pos_site_id
 _symmetry_equiv_pos_as_xyz
  1  'x, y, z'
loop_
 _atom_site_type_symbol
 _atom_site_label
 _atom_site_symmetry_multiplicity
 _atom_site_fract_x
 _atom_site_fract_y
 _atom_site_fract_z
 _atom_site_occupancy
  Al  Al0  1  0.10618247  0.09371708  0.38679290  1
  Al  Al1  1  0.22337351  0.20096015  0.13616895  1
  Al  Al2  1  0.77375847  0.09033544  0.81968162  1
  Al  Al3  1  0.89273937  0.20939160  0.63659538  1
  Al  Al4  1  0.44813086  0.08873574  0.37166188  1
  Al  Al5  1  0.55575134  0.19981340  0.10999545  1
  Al  Al6  1  0.11079484  0.09463336  0.88628858  1
  Al  Al7  1  0.22558813  0.20423288  0.63539156  1
  Al  Al8  1  0.89117949  0.20647014  0.14001531  1
  Al  Al9  1  0.44634326  0.08772470  0.89229824  1
  Al  Al10  1  0.56065554  0.20262728  0.57646946  1
  Al  Al11  1  0.11061208  0.42718868  0.38674367  1
  Al  Al12  1  0.22159315  0.53849342  0.13792900  1
  Al  Al13  1  0.77799650  0.42653891  0.88636392  1
  Al  Al14  1  0.88742323  0.54324194  0.63417193  1
  Al  Al15  1  0.44840224  0.42866299  0.37862137  1
  Al  Al16  1  0.55753719  0.54421196  0.13647669  1
  Al  Al17  1  0.11171561  0.42795148  0.88405538  1
  Al  Al18  1  0.22179915  0.54029776  0.63457512  1
  Al  Al19  1  0.77689692  0.42275833  0.38683880  1
  Al  Al20  1  0.88416194  0.54061053  0.13599798  1
  Al  Al21  1  0.44452394  0.42870730  0.88980044  1
  Al  Al22  1  0.55489906  0.54026007  0.63589367  1
  Al  Al23  1  0.11349435  0.76443914  0.37799556  1
  Al  Al24  1  0.22804530  0.87380077  0.13637012  1
  Al  Al25  1  0.76863290  0.76078493  0.89002074  1
  Al  Al26  1  0.88246298  0.88434022  0.55901331  1
  Al  Al27  1  0.44633374  0.76245222  0.38153631  1
  Al  Al28  1  0.11666401  0.75868207  0.88783553  1
  Al  Al29  1  0.22309939  0.87144246  0.63498375  1
  Al  Al30  1  0.77189997  0.76498998  0.37026195  1
  Al  Al31  1  0.88263342  0.87541388  0.07828124  1
  Al  Al32  1  0.44685744  0.76373009  0.88829753  1
  Al  Al33  1  0.55662080  0.87245649  0.63242007  1
  B  B34  1  0.77893352  0.08966358  0.30509066  1
  B  B35  1  0.55347096  0.86987919  0.13956439  1
  N  N36  1  0.21947410  0.20614364  0.32517188  1
  N  N37  1  0.10950325  0.09469686  0.07588734  1
  N  N38  1  0.89168131  0.20756813  0.82814717  1
  N  N39  1  0.77679241  0.09280785  0.62905939  1
  N  N40  1  0.57922463  0.19402229  0.34638244  1
  N  N41  1  0.45335289  0.06624328  0.08732149  1
  N  N42  1  0.22534150  0.20380326  0.82701728  1
  N  N43  1  0.11227017  0.09450087  0.57635399  1
  N  N44  1  0.87980320  0.19657623  0.33157012  1
  N  N45  1  0.77981693  0.08725279  0.14460286  1
  N  N46  1  0.55657139  0.20311172  0.87106856  1
  N  N47  1  0.44340878  0.09083756  0.56570870  1
  N  N48  1  0.22161625  0.53818168  0.32644900  1
  N  N49  1  0.11075556  0.42785994  0.07507977  1
  N  N50  1  0.88734331  0.54149498  0.82608231  1
  N  N51  1  0.77733861  0.42935976  0.57647769  1
  N  N52  1  0.55716845  0.54092643  0.32480901  1
  N  N53  1  0.44319966  0.43286468  0.08282637  1
  N  N54  1  0.22332037  0.53931089  0.82507922  1
  N  N55  1  0.11121573  0.42787546  0.57701120  1
  N  N56  1  0.88944318  0.53625766  0.32496569  1
  N  N57  1  0.77826603  0.42551551  0.07608222  1
  N  N58  1  0.55441246  0.54081080  0.82766039  1
  N  N59  1  0.44327575  0.43165549  0.57192789  1
  N  N60  1  0.22453443  0.87411835  0.32454368  1
  N  N61  1  0.11896048  0.75870205  0.08145727  1
  N  N62  1  0.88574630  0.87469128  0.88297600  1
  N  N63  1  0.77377050  0.76098795  0.56556250  1
  N  N64  1  0.55384369  0.87057159  0.30223262  1
  N  N65  1  0.45666408  0.77341409  0.08144393  1
  N  N66  1  0.22419020  0.87161638  0.82663105  1
  N  N67  1  0.11377633  0.76086328  0.57211681  1
  N  N68  1  0.87485466  0.90200994  0.36231899  1
  N  N69  1  0.74890115  0.76990256  0.08610407  1
  N  N70  1  0.55481695  0.87306924  0.82056060  1
  N  N71  1  0.44519302  0.76222838  0.57249215  1
