# generated using pymatgen
data_Al17BN18
_symmetry_space_group_name_H-M   'P 1'
_cell_length_a   9.35402764
_cell_length_b   9.34424822
_cell_length_c   10.11540658
_cell_angle_alpha   89.67209809
_cell_angle_beta   89.67735403
_cell_angle_gamma   59.95063031
_symmetry_Int_Tables_number   1
_chemical_formula_structural   Al17BN18
_chemical_formula_sum   'Al34 B2 N36'
_cell_volume   765.29943595
_cell_formula_units_Z   2
loop_
 _symmetry_equiv_pos_site_id
 _symmetry_equiv_pos_as_xyz
  1  'x, y, z'
loop_
 _atom_site_type_symbol
 _atom_site_label
 _atom_site_symmetry_multiplicity
 _atom_site_fract_x
 _atom_site_fract_y
 _atom_site_fract_z
 _atom_site_occupancy
  Al  Al0  1  0.10892589  0.09233721  0.36641042  1
  Al  Al1  1  0.22685335  0.20232954  0.13854473  1
  Al  Al2  1  0.77578469  0.09272525  0.82171086  1
  Al  Al3  1  0.88360300  0.20560452  0.56616519  1
  Al  Al4  1  0.44983709  0.08721735  0.37662718  1
  Al  Al5  1  0.56215318  0.20030678  0.08158446  1
  Al  Al6  1  0.11391149  0.09204568  0.87653884  1
  Al  Al7  1  0.22529325  0.20495818  0.63635173  1
  Al  Al8  1  0.88447518  0.20624055  0.07501183  1
  Al  Al9  1  0.44595093  0.08498613  0.89522872  1
  Al  Al10  1  0.56381698  0.20476224  0.56286186  1
  Al  Al11  1  0.10852376  0.42515587  0.39022166  1
  Al  Al12  1  0.22509609  0.54165121  0.06830692  1
  Al  Al13  1  0.78067774  0.42203560  0.82197297  1
  Al  Al14  1  0.89152014  0.54569627  0.63585109  1
  Al  Al15  1  0.44546865  0.42129622  0.31982035  1
  Al  Al16  1  0.55342389  0.54894836  0.13676943  1
  Al  Al17  1  0.10799908  0.42497470  0.88828472  1
  Al  Al18  1  0.22528196  0.54237860  0.56992745  1
  Al  Al19  1  0.77990015  0.41813806  0.32152170  1
  Al  Al20  1  0.88851855  0.54543300  0.13873978  1
  Al  Al21  1  0.44237725  0.42116958  0.82188198  1
  Al  Al22  1  0.55224787  0.54517965  0.63492532  1
  Al  Al23  1  0.10424732  0.76241641  0.31863478  1
  Al  Al24  1  0.23067520  0.87375478  0.13785809  1
  Al  Al25  1  0.76866546  0.76195137  0.89560255  1
  Al  Al26  1  0.88830093  0.88158211  0.56266872  1
  Al  Al27  1  0.44567799  0.76157263  0.38569056  1
  Al  Al28  1  0.10418585  0.75919106  0.82125253  1
  Al  Al29  1  0.22477194  0.87567067  0.63706738  1
  Al  Al30  1  0.77064899  0.76650728  0.37691228  1
  Al  Al31  1  0.88390546  0.87927315  0.08138531  1
  Al  Al32  1  0.44715761  0.76183928  0.89258819  1
  Al  Al33  1  0.55696440  0.87443488  0.63588504  1
  B  B34  1  0.77795985  0.09515309  0.31527433  1
  B  B35  1  0.55543835  0.87219649  0.14249594  1
  N  N36  1  0.22354485  0.20777910  0.32614879  1
  N  N37  1  0.11350513  0.09366771  0.09015944  1
  N  N38  1  0.88312226  0.20542351  0.88355899  1
  N  N39  1  0.77677604  0.09430646  0.63477883  1
  N  N40  1  0.58402764  0.19342727  0.36989728  1
  N  N41  1  0.45672444  0.06526157  0.08854099  1
  N  N42  1  0.22711371  0.20472133  0.82811218  1
  N  N43  1  0.11143730  0.09569281  0.58631891  1
  N  N44  1  0.87390503  0.19343912  0.37272521  1
  N  N45  1  0.77860194  0.09543536  0.15368750  1
  N  N46  1  0.55895500  0.20493233  0.88937214  1
  N  N47  1  0.44395237  0.09128063  0.56894780  1
  N  N48  1  0.22498450  0.54201541  0.38026395  1
  N  N49  1  0.10880767  0.42448054  0.07797287  1
  N  N50  1  0.89007126  0.54578742  0.82900503  1
  N  N51  1  0.78159988  0.42313677  0.62441954  1
  N  N52  1  0.55249205  0.54354722  0.33307957  1
  N  N53  1  0.44127418  0.42504276  0.12995903  1
  N  N54  1  0.22441492  0.54106038  0.87877806  1
  N  N55  1  0.10973780  0.42519042  0.57976421  1
  N  N56  1  0.89255814  0.54173301  0.32866778  1
  N  N57  1  0.78083098  0.42378803  0.12633926  1
  N  N58  1  0.55142027  0.54428229  0.83332563  1
  N  N59  1  0.44341606  0.42114968  0.62897552  1
  N  N60  1  0.22712353  0.87073309  0.32843439  1
  N  N61  1  0.10841816  0.75815134  0.12955088  1
  N  N62  1  0.88844948  0.87623301  0.88952291  1
  N  N63  1  0.77369008  0.76217672  0.56872860  1
  N  N64  1  0.55443725  0.87081064  0.30477412  1
  N  N65  1  0.45691189  0.77333338  0.08303720  1
  N  N66  1  0.22721395  0.87046193  0.83089652  1
  N  N67  1  0.10442309  0.76092008  0.62925925  1
  N  N68  1  0.87710287  0.90140847  0.36988996  1
  N  N69  1  0.74881170  0.77326291  0.08839198  1
  N  N70  1  0.55612984  0.87229683  0.82336718  1
  N  N71  1  0.44487834  0.76376129  0.57431960  1
