# generated using pymatgen
data_Al17BN18
_symmetry_space_group_name_H-M   'P 1'
_cell_length_a   9.32867129
_cell_length_b   9.33713741
_cell_length_c   10.05815875
_cell_angle_alpha   89.71721321
_cell_angle_beta   89.62794951
_cell_angle_gamma   59.96297478
_symmetry_Int_Tables_number   1
_chemical_formula_structural   Al17BN18
_chemical_formula_sum   'Al34 B2 N36'
_cell_volume   758.42130892
_cell_formula_units_Z   2
loop_
 _symmetry_equiv_pos_site_id
 _symmetry_equiv_pos_as_xyz
  1  'x, y, z'
loop_
 _atom_site_type_symbol
 _atom_site_label
 _atom_site_symmetry_multiplicity
 _atom_site_fract_x
 _atom_site_fract_y
 _atom_site_fract_z
 _atom_site_occupancy
  Al  Al0  1  0.10413219  0.09037706  0.32354893  1
  Al  Al1  1  0.22796974  0.19818822  0.11981355  1
  Al  Al2  1  0.77530347  0.09380899  0.82716530  1
  Al  Al3  1  0.88502514  0.20369710  0.56997923  1
  Al  Al4  1  0.45142138  0.08964569  0.37842816  1
  Al  Al5  1  0.56239958  0.20165814  0.08671431  1
  Al  Al6  1  0.10879311  0.09467431  0.82452773  1
  Al  Al7  1  0.22176046  0.20586555  0.59774374  1
  Al  Al8  1  0.88755498  0.20348396  0.07635793  1
  Al  Al9  1  0.44424603  0.08565046  0.90065525  1
  Al  Al10  1  0.56406933  0.20637661  0.56721988  1
  Al  Al11  1  0.11074400  0.43206798  0.32179337  1
  Al  Al12  1  0.22314983  0.53981263  0.07108164  1
  Al  Al13  1  0.77844626  0.42688899  0.82349906  1
  Al  Al14  1  0.88946960  0.53488788  0.56923477  1
  Al  Al15  1  0.44976359  0.42584252  0.32231307  1
  Al  Al16  1  0.55664159  0.54339015  0.07139961  1
  Al  Al17  1  0.10943785  0.42942099  0.82556754  1
  Al  Al18  1  0.22175588  0.54027414  0.57400084  1
  Al  Al19  1  0.77623628  0.42215857  0.32158822  1
  Al  Al20  1  0.88609390  0.53573387  0.07900489  1
  Al  Al21  1  0.44559320  0.42340376  0.82451436  1
  Al  Al22  1  0.55503573  0.54015075  0.57204930  1
  Al  Al23  1  0.11012121  0.76590164  0.32181754  1
  Al  Al24  1  0.22777928  0.87243618  0.07079966  1
  Al  Al25  1  0.76521525  0.76827894  0.89907965  1
  Al  Al26  1  0.88903723  0.88135143  0.56773833  1
  Al  Al27  1  0.44442058  0.75982875  0.31707530  1
  Al  Al28  1  0.10664148  0.76309649  0.82426528  1
  Al  Al29  1  0.22360099  0.87123822  0.57165368  1
  Al  Al30  1  0.77393393  0.76848058  0.37740705  1
  Al  Al31  1  0.88548111  0.87781049  0.08790118  1
  Al  Al32  1  0.44102839  0.75792602  0.82190829  1
  Al  Al33  1  0.56021089  0.87630865  0.64003174  1
  B  B34  1  0.77935240  0.09672580  0.31935569  1
  B  B35  1  0.56057102  0.87296262  0.15139099  1
  N  N36  1  0.22148224  0.20457116  0.35266171  1
  N  N37  1  0.10762771  0.09013351  0.13388096  1
  N  N38  1  0.88650072  0.20484181  0.88611157  1
  N  N39  1  0.77652292  0.09458724  0.63883005  1
  N  N40  1  0.58469292  0.19658423  0.37276894  1
  N  N41  1  0.46003485  0.06363545  0.09591290  1
  N  N42  1  0.22200049  0.20504626  0.86447467  1
  N  N43  1  0.10685474  0.09379169  0.63001907  1
  N  N44  1  0.87590588  0.19390521  0.37770416  1
  N  N45  1  0.77930269  0.09578604  0.15696998  1
  N  N46  1  0.55785186  0.20631572  0.89343438  1
  N  N47  1  0.44740881  0.09050306  0.57194500  1
  N  N48  1  0.22293135  0.54014090  0.38403584  1
  N  N49  1  0.11065423  0.43173384  0.13194894  1
  N  N50  1  0.88819811  0.53700018  0.88588593  1
  N  N51  1  0.77814392  0.42600877  0.63180224  1
  N  N52  1  0.55537806  0.54125362  0.38260219  1
  N  N53  1  0.44403913  0.42984012  0.13384065  1
  N  N54  1  0.22184578  0.54002278  0.88170669  1
  N  N55  1  0.10792913  0.43204321  0.63248793  1
  N  N56  1  0.89057751  0.53189945  0.37678404  1
  N  N57  1  0.77640015  0.42491388  0.13385105  1
  N  N58  1  0.55531109  0.53795371  0.88208562  1
  N  N59  1  0.44546924  0.42503503  0.63241819  1
  N  N60  1  0.22574884  0.87049789  0.38286435  1
  N  N61  1  0.11414149  0.76032783  0.13354515  1
  N  N62  1  0.88925340  0.87630683  0.89312163  1
  N  N63  1  0.77346391  0.76577688  0.57327678  1
  N  N64  1  0.56083074  0.87567039  0.31117727  1
  N  N65  1  0.45387981  0.76937086  0.12661549  1
  N  N66  1  0.22111118  0.87192507  0.88202265  1
  N  N67  1  0.10789455  0.76333154  0.63256569  1
  N  N68  1  0.88087253  0.90118326  0.37236825  1
  N  N69  1  0.74907894  0.77414050  0.09602628  1
  N  N70  1  0.55691127  0.87573027  0.82782248  1
  N  N71  1  0.44230306  0.75911932  0.63048561  1
