# generated using pymatgen
data_Al17BN18
_symmetry_space_group_name_H-M   'P 1'
_cell_length_a   9.32359050
_cell_length_b   9.31101530
_cell_length_c   10.04241931
_cell_angle_alpha   89.59507769
_cell_angle_beta   89.94616992
_cell_angle_gamma   59.94275804
_symmetry_Int_Tables_number   1
_chemical_formula_structural   Al17BN18
_chemical_formula_sum   'Al34 B2 N36'
_cell_volume   754.54581459
_cell_formula_units_Z   2
loop_
 _symmetry_equiv_pos_site_id
 _symmetry_equiv_pos_as_xyz
  1  'x, y, z'
loop_
 _atom_site_type_symbol
 _atom_site_label
 _atom_site_symmetry_multiplicity
 _atom_site_fract_x
 _atom_site_fract_y
 _atom_site_fract_z
 _atom_site_occupancy
  Al  Al0  1  0.10726639  0.09264516  0.39590085  1
  Al  Al1  1  0.22593526  0.20115399  0.14667927  1
  Al  Al2  1  0.77893923  0.09045127  0.84942319  1
  Al  Al3  1  0.89098228  0.20843052  0.64959355  1
  Al  Al4  1  0.45195144  0.08983427  0.38895624  1
  Al  Al5  1  0.56171090  0.19738811  0.14303339  1
  Al  Al6  1  0.11187287  0.09464971  0.89819878  1
  Al  Al7  1  0.22365874  0.20423279  0.64555648  1
  Al  Al8  1  0.88781558  0.20357978  0.14289338  1
  Al  Al9  1  0.44600841  0.08902673  0.90183095  1
  Al  Al10  1  0.54894246  0.20749165  0.64932874  1
  Al  Al11  1  0.11151036  0.42692518  0.39733088  1
  Al  Al12  1  0.22363693  0.53719701  0.14759145  1
  Al  Al13  1  0.77803000  0.42705151  0.89834624  1
  Al  Al14  1  0.88687113  0.54238050  0.64399946  1
  Al  Al15  1  0.45240783  0.42242569  0.39607929  1
  Al  Al16  1  0.55721079  0.54241038  0.14626684  1
  Al  Al17  1  0.11087677  0.42796139  0.89447898  1
  Al  Al18  1  0.22072151  0.54075169  0.64485102  1
  Al  Al19  1  0.77553125  0.42340514  0.39623629  1
  Al  Al20  1  0.88448869  0.54170296  0.14647130  1
  Al  Al21  1  0.44423682  0.42677996  0.89888247  1
  Al  Al22  1  0.55493070  0.53976127  0.64619832  1
  Al  Al23  1  0.11418284  0.76409402  0.38965120  1
  Al  Al24  1  0.22814620  0.87384051  0.14643891  1
  Al  Al25  1  0.76874671  0.75832600  0.89830532  1
  Al  Al26  1  0.88040149  0.88592617  0.57752213  1
  Al  Al27  1  0.44646025  0.76212104  0.39100451  1
  Al  Al28  1  0.11833598  0.75623081  0.89626725  1
  Al  Al29  1  0.22221424  0.87209866  0.64503944  1
  Al  Al30  1  0.77088869  0.76609921  0.38161148  1
  Al  Al31  1  0.88265914  0.87658618  0.08088361  1
  Al  Al32  1  0.44663834  0.76336171  0.89897535  1
  Al  Al33  1  0.55579576  0.87274296  0.64293240  1
  B  B34  1  0.77869688  0.09440820  0.34642464  1
  B  B35  1  0.55495415  0.87129470  0.14886348  1
  N  N36  1  0.22231290  0.20530169  0.33637096  1
  N  N37  1  0.11135581  0.09544072  0.08806457  1
  N  N38  1  0.89383323  0.20963058  0.83946619  1
  N  N39  1  0.77739591  0.09333975  0.64334868  1
  N  N40  1  0.58489512  0.19122806  0.33867452  1
  N  N41  1  0.45662369  0.06954406  0.09513008  1
  N  N42  1  0.22449192  0.20380936  0.83730111  1
  N  N43  1  0.11026221  0.09531637  0.58492817  1
  N  N44  1  0.87491919  0.19203020  0.33938464  1
  N  N45  1  0.77669965  0.09930435  0.09240482  1
  N  N46  1  0.54468227  0.20846324  0.84109985  1
  N  N47  1  0.44481799  0.09396433  0.57949414  1
  N  N48  1  0.22446632  0.53650629  0.33715319  1
  N  N49  1  0.11059644  0.42852796  0.08557565  1
  N  N50  1  0.88691095  0.53987948  0.83541968  1
  N  N51  1  0.77722937  0.42842594  0.58521378  1
  N  N52  1  0.55567151  0.53934986  0.33537575  1
  N  N53  1  0.44552044  0.42668823  0.08949533  1
  N  N54  1  0.22345798  0.53806645  0.83473266  1
  N  N55  1  0.11037727  0.42821772  0.58701138  1
  N  N56  1  0.88965276  0.53657728  0.33549423  1
  N  N57  1  0.77846540  0.42763566  0.08806460  1
  N  N58  1  0.55447079  0.54010934  0.83831859  1
  N  N59  1  0.44430787  0.42796487  0.58536947  1
  N  N60  1  0.22433145  0.87372143  0.33444040  1
  N  N61  1  0.11966957  0.75837458  0.09063474  1
  N  N62  1  0.89032220  0.86397551  0.88386466  1
  N  N63  1  0.77307905  0.76114937  0.57522549  1
  N  N64  1  0.55329681  0.87279268  0.31296971  1
  N  N65  1  0.45694372  0.77366773  0.09211329  1
  N  N66  1  0.22403606  0.87183164  0.83651165  1
  N  N67  1  0.11282607  0.76117827  0.58172511  1
  N  N68  1  0.87201527  0.90776824  0.37267495  1
  N  N69  1  0.74907106  0.77136829  0.09594389  1
  N  N70  1  0.55393557  0.87300911  0.83096201  1
  N  N71  1  0.44457163  0.76244359  0.58207604  1
