# generated using pymatgen
data_Al17BN18
_symmetry_space_group_name_H-M   'P 1'
_cell_length_a   9.29942394
_cell_length_b   9.29942443
_cell_length_c   9.93899221
_cell_angle_alpha   90.02513647
_cell_angle_beta   90.02509666
_cell_angle_gamma   60.01364394
_symmetry_Int_Tables_number   1
_chemical_formula_structural   Al17BN18
_chemical_formula_sum   'Al34 B2 N36'
_cell_volume   744.46577222
_cell_formula_units_Z   2
loop_
 _symmetry_equiv_pos_site_id
 _symmetry_equiv_pos_as_xyz
  1  'x, y, z'
loop_
 _atom_site_type_symbol
 _atom_site_label
 _atom_site_symmetry_multiplicity
 _atom_site_fract_x
 _atom_site_fract_y
 _atom_site_fract_z
 _atom_site_occupancy
  Al  Al0  1  0.10765417  0.09281782  0.40659416  1
  Al  Al1  1  0.22551826  0.20065133  0.15628215  1
  Al  Al2  1  0.77758996  0.09425815  0.90396492  1
  Al  Al3  1  0.88762809  0.20429503  0.64950327  1
  Al  Al4  1  0.45068496  0.09060058  0.39971459  1
  Al  Al5  1  0.56258716  0.19783985  0.16050552  1
  Al  Al6  1  0.10957954  0.09508193  0.90570121  1
  Al  Al7  1  0.22422575  0.20423618  0.65579542  1
  Al  Al8  1  0.88609046  0.20275739  0.16045374  1
  Al  Al9  1  0.44827222  0.08976243  0.90994400  1
  Al  Al10  1  0.55752005  0.20331246  0.64898295  1
  Al  Al11  1  0.11093770  0.42760417  0.40674020  1
  Al  Al12  1  0.22204603  0.53871451  0.15689966  1
  Al  Al13  1  0.77841497  0.42624639  0.90570137  1
  Al  Al14  1  0.88756979  0.54089199  0.65579549  1
  Al  Al15  1  0.44997044  0.42412465  0.40601899  1
  Al  Al16  1  0.55734204  0.54219511  0.15585493  1
  Al  Al17  1  0.11120350  0.42787000  0.90621162  1
  Al  Al18  1  0.22244710  0.53911488  0.65596867  1
  Al  Al19  1  0.77614907  0.42432289  0.40659408  1
  Al  Al20  1  0.88398484  0.54218458  0.15628218  1
  Al  Al21  1  0.44527434  0.42604176  0.90580967  1
  Al  Al22  1  0.55482539  0.54072565  0.65636128  1
  Al  Al23  1  0.10745606  0.76663832  0.40601892  1
  Al  Al24  1  0.22552766  0.87400944  0.15585508  1
  Al  Al25  1  0.77309550  0.76493895  0.90994402  1
  Al  Al26  1  0.88664519  0.87418776  0.64898309  1
  Al  Al27  1  0.44580586  0.76247490  0.39989633  1
  Al  Al28  1  0.10937359  0.76194287  0.90580974  1
  Al  Al29  1  0.22405916  0.87149198  0.65636106  1
  Al  Al30  1  0.77393353  0.76735151  0.39971467  1
  Al  Al31  1  0.88117101  0.87925526  0.16050546  1
  Al  Al32  1  0.44737537  0.76404287  0.91043241  1
  Al  Al33  1  0.55566034  0.87232635  0.65458501  1
  B  B34  1  0.77778294  0.09445113  0.40975950  1
  B  B35  1  0.55588798  0.87255516  0.16051397  1
  N  N36  1  0.22202858  0.20496133  0.34703291  1
  N  N37  1  0.10802874  0.09601846  0.09771558  1
  N  N38  1  0.88797339  0.20464048  0.84181442  1
  N  N39  1  0.77771175  0.09437946  0.57558518  1
  N  N40  1  0.58119078  0.19300208  0.35379020  1
  N  N41  1  0.45787688  0.07063747  0.10568937  1
  N  N42  1  0.22481783  0.20404867  0.84891808  1
  N  N43  1  0.11203553  0.09377982  0.59719108  1
  N  N44  1  0.87644461  0.19311300  0.35463407  1
  N  N45  1  0.77797340  0.09464146  0.09247472  1
  N  N46  1  0.55602448  0.20362390  0.84315119  1
  N  N47  1  0.44524990  0.09229533  0.59140383  1
  N  N48  1  0.22253957  0.53920746  0.34809595  1
  N  N49  1  0.11072543  0.42739217  0.09755084  1
  N  N50  1  0.88738194  0.54148448  0.84891822  1
  N  N51  1  0.77711279  0.42870255  0.59719099  1
  N  N52  1  0.55573101  0.53907410  0.34574368  1
  N  N53  1  0.44602483  0.42492190  0.09883808  1
  N  N54  1  0.22243073  0.53909905  0.84746871  1
  N  N55  1  0.11091897  0.42758549  0.59812126  1
  N  N56  1  0.88829449  0.53869535  0.34703292  1
  N  N57  1  0.77935123  0.42469578  0.09771570  1
  N  N58  1  0.55439426  0.54102571  0.84924260  1
  N  N59  1  0.44487851  0.42812857  0.59692383  1
  N  N60  1  0.22240527  0.87239948  0.34574379  1
  N  N61  1  0.10825340  0.76269321  0.09883816  1
  N  N62  1  0.88695590  0.87269250  0.84315128  1
  N  N63  1  0.77562914  0.76191629  0.59140396  1
  N  N64  1  0.55546595  0.87213326  0.32495973  1
  N  N65  1  0.45720202  0.77386954  0.10399156  1
  N  N66  1  0.22435846  0.87106152  0.84924236  1
  N  N67  1  0.11146105  0.76154610  0.59692367  1
  N  N68  1  0.87633356  0.89785884  0.35379013  1
  N  N69  1  0.75397015  0.77454370  0.10568944  1
  N  N70  1  0.55581742  0.87248434  0.84363822  1
  N  N71  1  0.44533304  0.76199978  0.59262261  1
