# generated using pymatgen
data_Al17BN18
_symmetry_space_group_name_H-M   'P 1'
_cell_length_a   9.32689427
_cell_length_b   9.30717829
_cell_length_c   10.06629682
_cell_angle_alpha   89.68557704
_cell_angle_beta   89.96058027
_cell_angle_gamma   59.92621372
_symmetry_Int_Tables_number   1
_chemical_formula_structural   Al17BN18
_chemical_formula_sum   'Al34 B2 N36'
_cell_volume   756.17844220
_cell_formula_units_Z   2
loop_
 _symmetry_equiv_pos_site_id
 _symmetry_equiv_pos_as_xyz
  1  'x, y, z'
loop_
 _atom_site_type_symbol
 _atom_site_label
 _atom_site_symmetry_multiplicity
 _atom_site_fract_x
 _atom_site_fract_y
 _atom_site_fract_z
 _atom_site_occupancy
  Al  Al0  1  0.10709801  0.09339765  0.39317955  1
  Al  Al1  1  0.22644362  0.20008497  0.14335834  1
  Al  Al2  1  0.78028446  0.08704579  0.82595846  1
  Al  Al3  1  0.89132384  0.21003206  0.64257231  1
  Al  Al4  1  0.45113907  0.09064998  0.38625109  1
  Al  Al5  1  0.55416899  0.19980962  0.14534979  1
  Al  Al6  1  0.11137191  0.09488398  0.89368982  1
  Al  Al7  1  0.22310233  0.20515162  0.64235705  1
  Al  Al8  1  0.89321499  0.20622448  0.14562438  1
  Al  Al9  1  0.44612078  0.08956222  0.89752375  1
  Al  Al10  1  0.54676483  0.20915772  0.64192560  1
  Al  Al11  1  0.11162655  0.42658426  0.39351440  1
  Al  Al12  1  0.22522274  0.53531283  0.14466638  1
  Al  Al13  1  0.77754255  0.42765638  0.89351973  1
  Al  Al14  1  0.88628578  0.54481696  0.64043010  1
  Al  Al15  1  0.45247164  0.42112136  0.39325711  1
  Al  Al16  1  0.55779596  0.54130070  0.14320967  1
  Al  Al17  1  0.11049141  0.42880218  0.89134106  1
  Al  Al18  1  0.21877771  0.54314554  0.64126641  1
  Al  Al19  1  0.77663519  0.42219942  0.39357512  1
  Al  Al20  1  0.88485615  0.53991463  0.14350816  1
  Al  Al21  1  0.44409879  0.42744610  0.89399308  1
  Al  Al22  1  0.55420308  0.54110392  0.64280713  1
  Al  Al23  1  0.11481291  0.76277887  0.38440414  1
  Al  Al24  1  0.22917104  0.87312801  0.14370775  1
  Al  Al25  1  0.76789975  0.76081854  0.89793354  1
  Al  Al26  1  0.87877671  0.88898744  0.56220226  1
  Al  Al27  1  0.44665069  0.76171639  0.38760554  1
  Al  Al28  1  0.11697307  0.75857480  0.89559100  1
  Al  Al29  1  0.22184982  0.87202589  0.64132555  1
  Al  Al30  1  0.77142940  0.76484356  0.37634783  1
  Al  Al31  1  0.88441639  0.87361532  0.08604827  1
  Al  Al32  1  0.44652050  0.76383677  0.89552055  1
  Al  Al33  1  0.55601783  0.87273762  0.63943222  1
  B  B34  1  0.78194695  0.08852302  0.30893939  1
  B  B35  1  0.55515244  0.86988770  0.14594602  1
  N  N36  1  0.22249564  0.20468272  0.33256900  1
  N  N37  1  0.11204921  0.09422030  0.08268598  1
  N  N38  1  0.89184859  0.20843712  0.83559082  1
  N  N39  1  0.77707202  0.09364960  0.63548380  1
  N  N40  1  0.57551060  0.19507314  0.33616494  1
  N  N41  1  0.45715616  0.06873305  0.08983041  1
  N  N42  1  0.22397614  0.20481414  0.83374452  1
  N  N43  1  0.11106140  0.09534800  0.58242521  1
  N  N44  1  0.88026638  0.19591578  0.33688870  1
  N  N45  1  0.78353249  0.08651822  0.14662640  1
  N  N46  1  0.54752109  0.20754152  0.83706859  1
  N  N47  1  0.44363559  0.09395629  0.57696893  1
  N  N48  1  0.22532938  0.53533791  0.33335900  1
  N  N49  1  0.11100053  0.42769442  0.08206560  1
  N  N50  1  0.88649806  0.54245385  0.83237149  1
  N  N51  1  0.77645520  0.43051291  0.58282308  1
  N  N52  1  0.55612299  0.53841913  0.33194649  1
  N  N53  1  0.44741154  0.42458462  0.08397184  1
  N  N54  1  0.22142744  0.54050270  0.83153618  1
  N  N55  1  0.10989180  0.42898912  0.58341259  1
  N  N56  1  0.88983691  0.53547799  0.33170101  1
  N  N57  1  0.77861014  0.42574928  0.08262624  1
  N  N58  1  0.55410824  0.54089966  0.83443265  1
  N  N59  1  0.44282845  0.43010006  0.58282252  1
  N  N60  1  0.22469905  0.87369671  0.33096792  1
  N  N61  1  0.12175529  0.75637871  0.08828955  1
  N  N62  1  0.88526852  0.87458799  0.89224600  1
  N  N63  1  0.77242277  0.76263808  0.57091825  1
  N  N64  1  0.55281570  0.87273887  0.30909323  1
  N  N65  1  0.45750902  0.77268109  0.08848728  1
  N  N66  1  0.22358827  0.87194743  0.83295164  1
  N  N67  1  0.11149133  0.76273507  0.57746141  1
  N  N68  1  0.87499913  0.90177835  0.36642669  1
  N  N69  1  0.74944841  0.76934795  0.09360166  1
  N  N70  1  0.55455813  0.87316911  0.82758382  1
  N  N71  1  0.44418906  0.76307839  0.57860390  1
