# generated using pymatgen
data_Al17BN18
_symmetry_space_group_name_H-M   'P 1'
_cell_length_a   9.34215148
_cell_length_b   9.32847163
_cell_length_c   10.13817928
_cell_angle_alpha   89.64427059
_cell_angle_beta   89.76375116
_cell_angle_gamma   59.96595364
_symmetry_Int_Tables_number   1
_chemical_formula_structural   Al17BN18
_chemical_formula_sum   'Al34 B2 N36'
_cell_volume   764.87458753
_cell_formula_units_Z   2
loop_
 _symmetry_equiv_pos_site_id
 _symmetry_equiv_pos_as_xyz
  1  'x, y, z'
loop_
 _atom_site_type_symbol
 _atom_site_label
 _atom_site_symmetry_multiplicity
 _atom_site_fract_x
 _atom_site_fract_y
 _atom_site_fract_z
 _atom_site_occupancy
  Al  Al0  1  0.11373637  0.08905483  0.38569421  1
  Al  Al1  1  0.22585787  0.20109746  0.13966624  1
  Al  Al2  1  0.77576527  0.09305676  0.82187115  1
  Al  Al3  1  0.87959999  0.20698338  0.56634279  1
  Al  Al4  1  0.44970131  0.08738769  0.37565191  1
  Al  Al5  1  0.56187024  0.20011765  0.08126986  1
  Al  Al6  1  0.11643556  0.09025236  0.89005622  1
  Al  Al7  1  0.22410057  0.20452753  0.63673860  1
  Al  Al8  1  0.88397868  0.20540720  0.07600113  1
  Al  Al9  1  0.44488876  0.08572134  0.89437330  1
  Al  Al10  1  0.56251089  0.20504487  0.56266585  1
  Al  Al11  1  0.10903333  0.42451417  0.38971351  1
  Al  Al12  1  0.22509913  0.54180120  0.06791282  1
  Al  Al13  1  0.77998840  0.42314911  0.82876069  1
  Al  Al14  1  0.89075761  0.54494699  0.63592734  1
  Al  Al15  1  0.44572039  0.42118730  0.31912835  1
  Al  Al16  1  0.55374185  0.54913981  0.13670468  1
  Al  Al17  1  0.10835763  0.42430013  0.88765110  1
  Al  Al18  1  0.22504384  0.54257041  0.56971192  1
  Al  Al19  1  0.78104865  0.41747142  0.32360008  1
  Al  Al20  1  0.88883731  0.54526246  0.13826305  1
  Al  Al21  1  0.44189313  0.42144082  0.82156316  1
  Al  Al22  1  0.55254563  0.54541065  0.63580402  1
  Al  Al23  1  0.10476112  0.76320655  0.31843462  1
  Al  Al24  1  0.23071140  0.87564245  0.13961574  1
  Al  Al25  1  0.76859759  0.76258355  0.89521642  1
  Al  Al26  1  0.88825190  0.88106856  0.56244507  1
  Al  Al27  1  0.44625464  0.76131427  0.38514126  1
  Al  Al28  1  0.10420758  0.76028594  0.82064396  1
  Al  Al29  1  0.22442331  0.87698130  0.63790472  1
  Al  Al30  1  0.77112204  0.76630696  0.37654960  1
  Al  Al31  1  0.88443107  0.87882711  0.08103301  1
  Al  Al32  1  0.44602063  0.76325886  0.89202795  1
  Al  Al33  1  0.55687266  0.87442417  0.63525522  1
  B  B34  1  0.77959531  0.09484324  0.31585364  1
  B  B35  1  0.55533633  0.87230305  0.14164943  1
  N  N36  1  0.22222794  0.20618806  0.32613438  1
  N  N37  1  0.11684895  0.09156560  0.07943676  1
  N  N38  1  0.88327624  0.20459698  0.88404086  1
  N  N39  1  0.77594103  0.09372287  0.63515387  1
  N  N40  1  0.58401633  0.19353198  0.37013988  1
  N  N41  1  0.45596522  0.06550752  0.08812143  1
  N  N42  1  0.22523772  0.20363605  0.82690769  1
  N  N43  1  0.11274458  0.09452566  0.57562314  1
  N  N44  1  0.87508513  0.19198218  0.37269248  1
  N  N45  1  0.77890785  0.09474488  0.15412019  1
  N  N46  1  0.55852830  0.20515420  0.88928804  1
  N  N47  1  0.44253068  0.09149481  0.56820475  1
  N  N48  1  0.22538417  0.54211616  0.38033201  1
  N  N49  1  0.10932330  0.42341273  0.07736814  1
  N  N50  1  0.88978527  0.54610373  0.82883743  1
  N  N51  1  0.78069188  0.42405034  0.62168722  1
  N  N52  1  0.55313908  0.54361772  0.33155283  1
  N  N53  1  0.44145709  0.42491772  0.12967862  1
  N  N54  1  0.22402816  0.54170694  0.87862914  1
  N  N55  1  0.10922792  0.42488791  0.57933559  1
  N  N56  1  0.89307305  0.54167577  0.32755839  1
  N  N57  1  0.78109042  0.42400060  0.12368291  1
  N  N58  1  0.55071522  0.54532732  0.83313200  1
  N  N59  1  0.44321001  0.42132018  0.62938571  1
  N  N60  1  0.22697919  0.87319071  0.32774274  1
  N  N61  1  0.10913633  0.75861222  0.12973104  1
  N  N62  1  0.88893706  0.87626176  0.88954649  1
  N  N63  1  0.77352915  0.76175509  0.56817716  1
  N  N64  1  0.55501600  0.87069777  0.30400951  1
  N  N65  1  0.45645178  0.77380369  0.08244371  1
  N  N66  1  0.22613733  0.87355375  0.82880692  1
  N  N67  1  0.10447900  0.76149448  0.62910024  1
  N  N68  1  0.87790787  0.90098608  0.37020863  1
  N  N69  1  0.74884595  0.77334663  0.08755424  1
  N  N70  1  0.55606165  0.87282089  0.82257617  1
  N  N71  1  0.44408827  0.76404211  0.57376309  1
