# generated using pymatgen
data_Al17BN18
_symmetry_space_group_name_H-M   'P 1'
_cell_length_a   9.35348435
_cell_length_b   9.35129738
_cell_length_c   10.12787203
_cell_angle_alpha   89.67170557
_cell_angle_beta   89.67003792
_cell_angle_gamma   59.94030712
_symmetry_Int_Tables_number   1
_chemical_formula_structural   Al17BN18
_chemical_formula_sum   'Al34 B2 N36'
_cell_volume   766.69571473
_cell_formula_units_Z   2
loop_
 _symmetry_equiv_pos_site_id
 _symmetry_equiv_pos_as_xyz
  1  'x, y, z'
loop_
 _atom_site_type_symbol
 _atom_site_label
 _atom_site_symmetry_multiplicity
 _atom_site_fract_x
 _atom_site_fract_y
 _atom_site_fract_z
 _atom_site_occupancy
  Al  Al0  1  0.10243254  0.09582138  0.32518697  1
  Al  Al1  1  0.22853327  0.20429724  0.13856826  1
  Al  Al2  1  0.77576486  0.09260291  0.82198911  1
  Al  Al3  1  0.88697639  0.20414792  0.56570091  1
  Al  Al4  1  0.44965465  0.08713301  0.37705861  1
  Al  Al5  1  0.56263652  0.20039565  0.08159988  1
  Al  Al6  1  0.10693672  0.09613199  0.83003109  1
  Al  Al7  1  0.22790923  0.20727028  0.63652519  1
  Al  Al8  1  0.88735546  0.20521764  0.07371382  1
  Al  Al9  1  0.44578762  0.08485192  0.89584670  1
  Al  Al10  1  0.56451919  0.20473741  0.56279621  1
  Al  Al11  1  0.10850292  0.42501977  0.39046263  1
  Al  Al12  1  0.22509937  0.54163754  0.06823757  1
  Al  Al13  1  0.78040798  0.42229192  0.82256544  1
  Al  Al14  1  0.89125888  0.54567187  0.63608763  1
  Al  Al15  1  0.44539943  0.42126402  0.31983936  1
  Al  Al16  1  0.55369982  0.54862208  0.13698857  1
  Al  Al17  1  0.10798406  0.42483531  0.88898199  1
  Al  Al18  1  0.22531413  0.54225153  0.56963790  1
  Al  Al19  1  0.77965196  0.41837759  0.32196962  1
  Al  Al20  1  0.88816040  0.54544037  0.13893836  1
  Al  Al21  1  0.44226774  0.42110258  0.82201366  1
  Al  Al22  1  0.55281575  0.54458281  0.63513402  1
  Al  Al23  1  0.10456837  0.76204073  0.31936468  1
  Al  Al24  1  0.23191293  0.87060832  0.13671747  1
  Al  Al25  1  0.76857959  0.76192793  0.89573588  1
  Al  Al26  1  0.88806210  0.88177751  0.56270449  1
  Al  Al27  1  0.44528953  0.76179830  0.38588044  1
  Al  Al28  1  0.10440648  0.75869755  0.82202745  1
  Al  Al29  1  0.22702683  0.87099061  0.63607044  1
  Al  Al30  1  0.77057078  0.76645154  0.37699465  1
  Al  Al31  1  0.88374500  0.87951825  0.08146118  1
  Al  Al32  1  0.44675542  0.76209649  0.89303899  1
  Al  Al33  1  0.55726116  0.87429079  0.63628849  1
  B  B34  1  0.77770881  0.09455620  0.31559718  1
  B  B35  1  0.55561471  0.87213318  0.14281148  1
  N  N36  1  0.22499533  0.20887432  0.32811036  1
  N  N37  1  0.10722191  0.09707395  0.12249932  1
  N  N38  1  0.88611094  0.20418689  0.88478865  1
  N  N39  1  0.77717408  0.09442123  0.63491755  1
  N  N40  1  0.58456998  0.19330827  0.37008227  1
  N  N41  1  0.45679536  0.06516387  0.08849960  1
  N  N42  1  0.22910134  0.20634622  0.82972708  1
  N  N43  1  0.10607186  0.09850906  0.62164853  1
  N  N44  1  0.87610517  0.19320744  0.37489218  1
  N  N45  1  0.77878246  0.09569335  0.15383379  1
  N  N46  1  0.55939034  0.20490030  0.88970533  1
  N  N47  1  0.44463075  0.09082451  0.56892364  1
  N  N48  1  0.22498538  0.54179999  0.38043512  1
  N  N49  1  0.10843757  0.42500173  0.07810650  1
  N  N50  1  0.89009484  0.54570742  0.82910888  1
  N  N51  1  0.78184370  0.42269433  0.62454465  1
  N  N52  1  0.55249019  0.54350202  0.33310169  1
  N  N53  1  0.44114958  0.42501565  0.13014692  1
  N  N54  1  0.22438324  0.54082151  0.87907226  1
  N  N55  1  0.10934925  0.42567656  0.57959993  1
  N  N56  1  0.89245590  0.54178547  0.32863201  1
  N  N57  1  0.78079909  0.42345807  0.12617279  1
  N  N58  1  0.55149481  0.54413084  0.83344521  1
  N  N59  1  0.44332551  0.42105139  0.62913399  1
  N  N60  1  0.22731215  0.86885961  0.33192837  1
  N  N61  1  0.10830335  0.75779786  0.12985461  1
  N  N62  1  0.88826462  0.87619613  0.88967042  1
  N  N63  1  0.77377530  0.76206765  0.56873920  1
  N  N64  1  0.55435360  0.87087493  0.30482617  1
  N  N65  1  0.45711302  0.77336535  0.08321455  1
  N  N66  1  0.22808249  0.86759505  0.83389779  1
  N  N67  1  0.10425823  0.76034670  0.62938780  1
  N  N68  1  0.87683039  0.90145332  0.36999541  1
  N  N69  1  0.74873879  0.77330389  0.08844291  1
  N  N70  1  0.55597807  0.87232273  0.82352018  1
  N  N71  1  0.44576393  0.76331487  0.57437399  1
