# generated using pymatgen
data_Al17BN18
_symmetry_space_group_name_H-M   'P 1'
_cell_length_a   9.30862118
_cell_length_b   9.30371246
_cell_length_c   9.98302969
_cell_angle_alpha   89.80119739
_cell_angle_beta   89.95182650
_cell_angle_gamma   59.98045785
_symmetry_Int_Tables_number   1
_chemical_formula_structural   Al17BN18
_chemical_formula_sum   'Al34 B2 N36'
_cell_volume   748.59380636
_cell_formula_units_Z   2
loop_
 _symmetry_equiv_pos_site_id
 _symmetry_equiv_pos_as_xyz
  1  'x, y, z'
loop_
 _atom_site_type_symbol
 _atom_site_label
 _atom_site_symmetry_multiplicity
 _atom_site_fract_x
 _atom_site_fract_y
 _atom_site_fract_z
 _atom_site_occupancy
  Al  Al0  1  0.10703641  0.09214793  0.39627541  1
  Al  Al1  1  0.22550469  0.20128401  0.14706302  1
  Al  Al2  1  0.77687144  0.09539108  0.88114221  1
  Al  Al3  1  0.88844647  0.20535022  0.64778421  1
  Al  Al4  1  0.45229696  0.08960958  0.38924607  1
  Al  Al5  1  0.56194704  0.19793917  0.14168372  1
  Al  Al6  1  0.11174541  0.09480690  0.89726139  1
  Al  Al7  1  0.22403010  0.20401066  0.64523202  1
  Al  Al8  1  0.88657990  0.20319384  0.14168378  1
  Al  Al9  1  0.44608361  0.08925044  0.90104025  1
  Al  Al10  1  0.55506899  0.20436253  0.64738781  1
  Al  Al11  1  0.11116212  0.42742011  0.39757623  1
  Al  Al12  1  0.22231603  0.53846496  0.14787448  1
  Al  Al13  1  0.77799891  0.42836997  0.89742323  1
  Al  Al14  1  0.88713786  0.54083244  0.64432279  1
  Al  Al15  1  0.45187906  0.42260235  0.39605117  1
  Al  Al16  1  0.55695341  0.54315707  0.14676997  1
  Al  Al17  1  0.11093227  0.42803853  0.89498098  1
  Al  Al18  1  0.22242871  0.53915229  0.64493296  1
  Al  Al19  1  0.77581968  0.42303448  0.39631383  1
  Al  Al20  1  0.88438651  0.54218066  0.14695184  1
  Al  Al21  1  0.44326150  0.42803983  0.89783043  1
  Al  Al22  1  0.55540129  0.53915022  0.64604813  1
  Al  Al23  1  0.10653473  0.76797459  0.39473700  1
  Al  Al24  1  0.22702420  0.87374216  0.14673600  1
  Al  Al25  1  0.77176117  0.76220174  0.89938037  1
  Al  Al26  1  0.88689337  0.87299958  0.64543071  1
  Al  Al27  1  0.44626055  0.76194823  0.39107212  1
  Al  Al28  1  0.11272848  0.75954596  0.89606567  1
  Al  Al29  1  0.22269743  0.87221915  0.64531123  1
  Al  Al30  1  0.77374670  0.76889936  0.38763372  1
  Al  Al31  1  0.88197507  0.87806332  0.13381540  1
  Al  Al32  1  0.44691741  0.76384239  0.89930467  1
  Al  Al33  1  0.55589175  0.87296009  0.64335444  1
  B  B34  1  0.77892752  0.09290493  0.35888372  1
  B  B35  1  0.55488834  0.87222826  0.14994572  1
  N  N36  1  0.22224200  0.20504380  0.33704015  1
  N  N37  1  0.11047737  0.09526194  0.08833666  1
  N  N38  1  0.89192423  0.20884864  0.83865302  1
  N  N39  1  0.77689613  0.09518647  0.61123273  1
  N  N40  1  0.58630467  0.19001276  0.33685288  1
  N  N41  1  0.45693073  0.06973532  0.09565840  1
  N  N42  1  0.22454564  0.20408032  0.83801306  1
  N  N43  1  0.11049961  0.09518667  0.58589042  1
  N  N44  1  0.87453508  0.19032933  0.33771041  1
  N  N45  1  0.77714784  0.09682455  0.07435207  1
  N  N46  1  0.54776763  0.20755635  0.84027854  1
  N  N47  1  0.44506566  0.09376490  0.58019244  1
  N  N48  1  0.22294163  0.53877666  0.33824781  1
  N  N49  1  0.11070776  0.42806654  0.08671457  1
  N  N50  1  0.88707454  0.54101315  0.83705021  1
  N  N51  1  0.77784578  0.42758741  0.58587624  1
  N  N52  1  0.55585568  0.53892513  0.33591974  1
  N  N53  1  0.44516424  0.42729591  0.08981229  1
  N  N54  1  0.22271738  0.53884740  0.83603192  1
  N  N55  1  0.11077592  0.42769318  0.58782713  1
  N  N56  1  0.88864706  0.53839040  0.33688922  1
  N  N57  1  0.77827000  0.42737814  0.08845903  1
  N  N58  1  0.55437762  0.54058447  0.83897007  1
  N  N59  1  0.44486676  0.42709458  0.58591950  1
  N  N60  1  0.22308443  0.87224854  0.33583929  1
  N  N61  1  0.11272436  0.76125862  0.08813914  1
  N  N62  1  0.89023353  0.86545952  0.84204754  1
  N  N63  1  0.77627169  0.76244541  0.57936112  1
  N  N64  1  0.55526260  0.87172944  0.31435013  1
  N  N65  1  0.45707521  0.77404914  0.09334996  1
  N  N66  1  0.22411504  0.87161980  0.83796473  1
  N  N67  1  0.11006141  0.76199785  0.58532774  1
  N  N68  1  0.87468703  0.90182242  0.33526788  1
  N  N69  1  0.75236498  0.77324092  0.09417857  1
  N  N70  1  0.55492470  0.87284651  0.83232701  1
  N  N71  1  0.44528392  0.76187444  0.58269062  1
