# generated using pymatgen
data_Al17BN18
_symmetry_space_group_name_H-M   'P 1'
_cell_length_a   9.31631957
_cell_length_b   9.31633019
_cell_length_c   10.12459866
_cell_angle_alpha   89.64027781
_cell_angle_beta   89.63512080
_cell_angle_gamma   60.07452060
_symmetry_Int_Tables_number   1
_chemical_formula_structural   Al17BN18
_chemical_formula_sum   'Al34 B2 N36'
_cell_volume   761.57335558
_cell_formula_units_Z   2
loop_
 _symmetry_equiv_pos_site_id
 _symmetry_equiv_pos_as_xyz
  1  'x, y, z'
loop_
 _atom_site_type_symbol
 _atom_site_label
 _atom_site_symmetry_multiplicity
 _atom_site_fract_x
 _atom_site_fract_y
 _atom_site_fract_z
 _atom_site_occupancy
  Al  Al0  1  0.10227545  0.09157498  0.32054914  1
  Al  Al1  1  0.22862758  0.20343196  0.14131756  1
  Al  Al2  1  0.77565764  0.09231955  0.82498304  1
  Al  Al3  1  0.88699501  0.20365637  0.56834215  1
  Al  Al4  1  0.44893476  0.08961043  0.37975833  1
  Al  Al5  1  0.56206294  0.20078517  0.08426986  1
  Al  Al6  1  0.10637025  0.09214925  0.82119407  1
  Al  Al7  1  0.22862972  0.20678822  0.63879190  1
  Al  Al8  1  0.88778070  0.20444006  0.07531770  1
  Al  Al9  1  0.44445635  0.08665614  0.89816654  1
  Al  Al10  1  0.56432233  0.20518017  0.56561840  1
  Al  Al11  1  0.10844589  0.42511231  0.39150468  1
  Al  Al12  1  0.22549299  0.54215011  0.07081113  1
  Al  Al13  1  0.77548975  0.42302940  0.82119410  1
  Al  Al14  1  0.89012104  0.54529701  0.63879315  1
  Al  Al15  1  0.44859388  0.42407013  0.32007608  1
  Al  Al16  1  0.55882007  0.54147979  0.07334142  1
  Al  Al17  1  0.10797884  0.42464415  0.88967905  1
  Al  Al18  1  0.22591725  0.54257809  0.57291757  1
  Al  Al19  1  0.77491563  0.41893448  0.32054866  1
  Al  Al20  1  0.88676679  0.54529173  0.14131670  1
  Al  Al21  1  0.44547789  0.42398890  0.82227905  1
  Al  Al22  1  0.55764207  0.53800799  0.57033805  1
  Al  Al23  1  0.10740874  0.76525441  0.32007556  1
  Al  Al24  1  0.22481899  0.87548123  0.07334095  1
  Al  Al25  1  0.76998976  0.76112335  0.89816707  1
  Al  Al26  1  0.88852003  0.88098161  0.56561906  1
  Al  Al27  1  0.44463348  0.76129327  0.33736392  1
  Al  Al28  1  0.10732827  0.76214003  0.82228027  1
  Al  Al29  1  0.22134458  0.87430451  0.57033762  1
  Al  Al30  1  0.77294554  0.76559892  0.37975931  1
  Al  Al31  1  0.88412625  0.87872187  0.08427099  1
  Al  Al32  1  0.44482708  0.76148551  0.84849652  1
  Al  Al33  1  0.55787203  0.87453940  0.63716346  1
  B  B34  1  0.77802776  0.09469379  0.31848038  1
  B  B35  1  0.55485337  0.87151260  0.14573022  1
  N  N36  1  0.22444039  0.20798401  0.33010446  1
  N  N37  1  0.10688563  0.09268736  0.13172977  1
  N  N38  1  0.88761823  0.20428462  0.88619945  1
  N  N39  1  0.77691226  0.09358027  0.63757112  1
  N  N40  1  0.58452403  0.19492297  0.37206037  1
  N  N41  1  0.45536966  0.06559670  0.08965064  1
  N  N42  1  0.22839969  0.20550204  0.83050919  1
  N  N43  1  0.10634597  0.09370184  0.63002797  1
  N  N44  1  0.87681537  0.19348142  0.37724847  1
  N  N45  1  0.77854907  0.09521321  0.15600203  1
  N  N46  1  0.55868243  0.20678781  0.89189371  1
  N  N47  1  0.44414855  0.09141114  0.57034918  1
  N  N48  1  0.22605356  0.54272155  0.38190438  1
  N  N49  1  0.10801705  0.42467409  0.07948556  1
  N  N50  1  0.88884349  0.54505818  0.83051060  1
  N  N51  1  0.77703312  0.42301487  0.63002764  1
  N  N52  1  0.55711051  0.53649251  0.38091999  1
  N  N53  1  0.44407654  0.42830939  0.13335538  1
  N  N54  1  0.22532432  0.54199288  0.88007841  1
  N  N55  1  0.10885292  0.42551259  0.58108762  1
  N  N56  1  0.89132519  0.54109898  0.33010352  1
  N  N57  1  0.77601937  0.42355256  0.13172930  1
  N  N58  1  0.55695320  0.53592650  0.88376192  1
  N  N59  1  0.44685134  0.42365069  0.63234903  1
  N  N60  1  0.21982725  0.87377621  0.38091920  1
  N  N61  1  0.11164561  0.76074077  0.13335454  1
  N  N62  1  0.89011900  0.87535304  0.89189447  1
  N  N63  1  0.77475337  0.76080667  0.57034988  1
  N  N64  1  0.55895534  0.87561369  0.30744643  1
  N  N65  1  0.45527081  0.77193616  0.11477222  1
  N  N66  1  0.21926316  0.87361935  0.88376121  1
  N  N67  1  0.10698346  0.76351855  0.63235019  1
  N  N68  1  0.87825541  0.90118968  0.37206008  1
  N  N69  1  0.74893767  0.77202689  0.08965030  1
  N  N70  1  0.55911087  0.87576748  0.82543852  1
  N  N71  1  0.44423005  0.76089906  0.61102359  1
