# generated using pymatgen
data_Al17BN18
_symmetry_space_group_name_H-M   'P 1'
_cell_length_a   9.29941713
_cell_length_b   9.29941825
_cell_length_c   9.93901619
_cell_angle_alpha   90.02471528
_cell_angle_beta   90.02494038
_cell_angle_gamma   60.01360859
_symmetry_Int_Tables_number   1
_chemical_formula_structural   Al17BN18
_chemical_formula_sum   'Al34 B2 N36'
_cell_volume   744.46626542
_cell_formula_units_Z   2
loop_
 _symmetry_equiv_pos_site_id
 _symmetry_equiv_pos_as_xyz
  1  'x, y, z'
loop_
 _atom_site_type_symbol
 _atom_site_label
 _atom_site_symmetry_multiplicity
 _atom_site_fract_x
 _atom_site_fract_y
 _atom_site_fract_z
 _atom_site_occupancy
  Al  Al0  1  0.10783508  0.09268760  0.31011564  1
  Al  Al1  1  0.22590610  0.20005919  0.05995171  1
  Al  Al2  1  0.77770288  0.09437042  0.81138416  1
  Al  Al3  1  0.88598818  0.20265344  0.55553699  1
  Al  Al4  1  0.45219102  0.08744123  0.30546373  1
  Al  Al5  1  0.55942847  0.19934570  0.06625610  1
  Al  Al6  1  0.10930446  0.09520466  0.80960989  1
  Al  Al7  1  0.22398965  0.20475400  0.56016146  1
  Al  Al8  1  0.88755630  0.20422278  0.06607445  1
  Al  Al9  1  0.44671804  0.09251007  0.81698751  1
  Al  Al10  1  0.56026754  0.20175750  0.55602527  1
  Al  Al11  1  0.11131714  0.42798269  0.30907252  1
  Al  Al12  1  0.22242561  0.53909319  0.05923168  1
  Al  Al13  1  0.77853843  0.42597074  0.80961001  1
  Al  Al14  1  0.88808838  0.54065500  0.56016146  1
  Al  Al15  1  0.44937845  0.42451197  0.30968929  1
  Al  Al16  1  0.55721322  0.54237454  0.05937656  1
  Al  Al17  1  0.11091661  0.42758273  0.81000235  1
  Al  Al18  1  0.22216029  0.53882707  0.55975999  1
  Al  Al19  1  0.77602025  0.42450241  0.31011551  1
  Al  Al20  1  0.88339310  0.54257225  0.05995152  1
  Al  Al21  1  0.44579335  0.42580500  0.81017549  1
  Al  Al22  1  0.55494901  0.54044973  0.56026983  1
  Al  Al23  1  0.10784497  0.76604508  0.30968911  1
  Al  Al24  1  0.22570802  0.87387976  0.05937683  1
  Al  Al25  1  0.77584298  0.76338491  0.81698730  1
  Al  Al26  1  0.88509131  0.87693433  0.55602516  1
  Al  Al27  1  0.44727203  0.76393906  0.30551564  1
  Al  Al28  1  0.10913744  0.76246101  0.81017551  1
  Al  Al29  1  0.22378471  0.87161416  0.56026955  1
  Al  Al30  1  0.77077544  0.76885681  0.30546370  1
  Al  Al31  1  0.88267771  0.87609633  0.06625585  1
  Al  Al32  1  0.44573488  0.76240223  0.81646747  1
  Al  Al33  1  0.55577313  0.87243815  0.56200416  1
  B  B34  1  0.77747452  0.09414130  0.30545591  1
  B  B35  1  0.55557956  0.87224582  0.05620990  1
  N  N36  1  0.22510921  0.20400354  0.36713438  1
  N  N37  1  0.11095727  0.09429766  0.12022825  1
  N  N38  1  0.88803018  0.20469630  0.87334937  1
  N  N39  1  0.77754578  0.09421210  0.62233209  1
  N  N40  1  0.57939207  0.19215261  0.36028225  1
  N  N41  1  0.45702841  0.06883845  0.11218100  1
  N  N42  1  0.22190187  0.20515126  0.86904821  1
  N  N43  1  0.10900498  0.09563465  0.61672982  1
  N  N44  1  0.87616078  0.19282759  0.36198018  1
  N  N45  1  0.77789633  0.09456363  0.14101355  1
  N  N46  1  0.55773468  0.20478057  0.87456793  1
  N  N47  1  0.44640777  0.09400341  0.62282050  1
  N  N48  1  0.22263795  0.53930439  0.36842256  1
  N  N49  1  0.11082376  0.42748975  0.11787737  1
  N  N50  1  0.88848505  0.53856825  0.86904803  1
  N  N51  1  0.77896958  0.42566999  0.61672996  1
  N  N52  1  0.55401166  0.54200072  0.36825674  1
  N  N53  1  0.44506846  0.42800164  0.11893998  1
  N  N54  1  0.22244448  0.53911173  0.86785192  1
  N  N55  1  0.11093262  0.42759803  0.61850396  1
  N  N56  1  0.88733792  0.54177482  0.36713424  1
  N  N57  1  0.77763134  0.42762359  0.12022810  1
  N  N58  1  0.55625043  0.53799421  0.86878084  1
  N  N59  1  0.44598187  0.42521148  0.61705422  1
  N  N60  1  0.22533403  0.87067825  0.36825654  1
  N  N61  1  0.11133414  0.76173570  0.11893987  1
  N  N62  1  0.88811323  0.87440182  0.87456772  1
  N  N63  1  0.77733842  0.76307306  0.62282028  1
  N  N64  1  0.55538922  0.87205476  0.37349536  1
  N  N65  1  0.45691766  0.77358395  0.11133746  1
  N  N66  1  0.22132754  0.87291688  0.86878111  1
  N  N67  1  0.10854545  0.76264823  0.61705422  1
  N  N68  1  0.87548596  0.89605881  0.36028225  1
  N  N69  1  0.75217208  0.77369465  0.11218091  1
  N  N70  1  0.55565103  0.87231781  0.89038750  1
  N  N71  1  0.44539053  0.76205565  0.62415751  1
