# generated using pymatgen
data_Al17BN18
_symmetry_space_group_name_H-M   'P 1'
_cell_length_a   9.32675714
_cell_length_b   9.33080707
_cell_length_c   10.05513855
_cell_angle_alpha   89.72256765
_cell_angle_beta   89.64525084
_cell_angle_gamma   59.97258818
_symmetry_Int_Tables_number   1
_chemical_formula_structural   Al17BN18
_chemical_formula_sum   'Al34 B2 N36'
_cell_volume   757.59890169
_cell_formula_units_Z   2
loop_
 _symmetry_equiv_pos_site_id
 _symmetry_equiv_pos_as_xyz
  1  'x, y, z'
loop_
 _atom_site_type_symbol
 _atom_site_label
 _atom_site_symmetry_multiplicity
 _atom_site_fract_x
 _atom_site_fract_y
 _atom_site_fract_z
 _atom_site_occupancy
  Al  Al0  1  0.10514073  0.09169485  0.32308879  1
  Al  Al1  1  0.22285667  0.20067245  0.09115358  1
  Al  Al2  1  0.77594309  0.09377552  0.82712117  1
  Al  Al3  1  0.88567923  0.20345681  0.57045975  1
  Al  Al4  1  0.45222239  0.08956373  0.37761611  1
  Al  Al5  1  0.56211132  0.20158040  0.08752314  1
  Al  Al6  1  0.10976230  0.09554243  0.82428028  1
  Al  Al7  1  0.21814204  0.20738142  0.57401725  1
  Al  Al8  1  0.88752686  0.20340480  0.07679992  1
  Al  Al9  1  0.44774300  0.08417485  0.89991527  1
  Al  Al10  1  0.56403093  0.20611735  0.56760502  1
  Al  Al11  1  0.11147022  0.42981413  0.32138604  1
  Al  Al12  1  0.22312544  0.53959123  0.07155394  1
  Al  Al13  1  0.77845592  0.42688889  0.82357734  1
  Al  Al14  1  0.89006262  0.53459078  0.56987445  1
  Al  Al15  1  0.44956906  0.42607654  0.32244253  1
  Al  Al16  1  0.55661860  0.54346298  0.07152710  1
  Al  Al17  1  0.11033877  0.42759391  0.82529265  1
  Al  Al18  1  0.22176028  0.53950823  0.57448792  1
  Al  Al19  1  0.77629211  0.42211236  0.32188060  1
  Al  Al20  1  0.88589510  0.53605994  0.07965040  1
  Al  Al21  1  0.44562416  0.42365101  0.82441845  1
  Al  Al22  1  0.55508524  0.54013516  0.57206537  1
  Al  Al23  1  0.11004728  0.76590458  0.32219659  1
  Al  Al24  1  0.22772395  0.87245949  0.07134603  1
  Al  Al25  1  0.76567471  0.76781560  0.89900108  1
  Al  Al26  1  0.88903239  0.88131701  0.56783414  1
  Al  Al27  1  0.44419412  0.75989761  0.31719333  1
  Al  Al28  1  0.10666277  0.76303100  0.82437475  1
  Al  Al29  1  0.22351602  0.87168547  0.57212644  1
  Al  Al30  1  0.77399382  0.76827397  0.37767555  1
  Al  Al31  1  0.88538364  0.87780582  0.08799928  1
  Al  Al32  1  0.44089988  0.75776757  0.82187233  1
  Al  Al33  1  0.55986928  0.87673589  0.63974794  1
  B  B34  1  0.77974193  0.09669135  0.31954239  1
  B  B35  1  0.55989663  0.87369596  0.15152372  1
  N  N36  1  0.21715159  0.20674318  0.37173373  1
  N  N37  1  0.10848306  0.09123334  0.13492542  1
  N  N38  1  0.88712500  0.20472526  0.88628373  1
  N  N39  1  0.77693384  0.09457835  0.63891838  1
  N  N40  1  0.58469342  0.19684687  0.37257506  1
  N  N41  1  0.45963250  0.06411471  0.09688366  1
  N  N42  1  0.21897737  0.20641915  0.88441665  1
  N  N43  1  0.10842097  0.09498462  0.63150305  1
  N  N44  1  0.87633470  0.19362222  0.37781570  1
  N  N45  1  0.77949145  0.09573779  0.15701041  1
  N  N46  1  0.55825460  0.20642216  0.89330719  1
  N  N47  1  0.44822705  0.09047226  0.57323318  1
  N  N48  1  0.22270446  0.53970211  0.38410219  1
  N  N49  1  0.11145287  0.42980892  0.13301419  1
  N  N50  1  0.88876856  0.53658091  0.88605353  1
  N  N51  1  0.77812528  0.42602808  0.63193204  1
  N  N52  1  0.55535516  0.54130878  0.38262892  1
  N  N53  1  0.44402977  0.42999698  0.13385773  1
  N  N54  1  0.22183034  0.53951002  0.88184810  1
  N  N55  1  0.10967585  0.42858947  0.63372957  1
  N  N56  1  0.89074994  0.53191511  0.37686648  1
  N  N57  1  0.77633362  0.42494859  0.13398467  1
  N  N58  1  0.55540581  0.53793096  0.88219820  1
  N  N59  1  0.44562781  0.42512723  0.63251410  1
  N  N60  1  0.22548806  0.87106309  0.38294948  1
  N  N61  1  0.11402049  0.76032662  0.13369224  1
  N  N62  1  0.88927748  0.87628130  0.89318305  1
  N  N63  1  0.77376789  0.76544991  0.57369450  1
  N  N64  1  0.56068005  0.87562214  0.31129430  1
  N  N65  1  0.45376773  0.76942554  0.12665873  1
  N  N66  1  0.22102582  0.87237521  0.88220463  1
  N  N67  1  0.10796890  0.76314902  0.63266482  1
  N  N68  1  0.88074927  0.90117432  0.37244888  1
  N  N69  1  0.74899214  0.77424163  0.09603302  1
  N  N70  1  0.55703872  0.87531772  0.82775967  1
  N  N71  1  0.44233602  0.75902700  0.63058959  1
