# generated using pymatgen
data_Al17BN18
_symmetry_space_group_name_H-M   'P 1'
_cell_length_a   9.29992714
_cell_length_b   9.29735240
_cell_length_c   9.97707486
_cell_angle_alpha   89.86587389
_cell_angle_beta   89.96516473
_cell_angle_gamma   59.99247733
_symmetry_Int_Tables_number   1
_chemical_formula_structural   Al17BN18
_chemical_formula_sum   'Al34 B2 N36'
_cell_volume   747.03077446
_cell_formula_units_Z   2
loop_
 _symmetry_equiv_pos_site_id
 _symmetry_equiv_pos_as_xyz
  1  'x, y, z'
loop_
 _atom_site_type_symbol
 _atom_site_label
 _atom_site_symmetry_multiplicity
 _atom_site_fract_x
 _atom_site_fract_y
 _atom_site_fract_z
 _atom_site_occupancy
  Al  Al0  1  0.10691409  0.09244524  0.39625727  1
  Al  Al1  1  0.22552879  0.20107151  0.14677115  1
  Al  Al2  1  0.77734494  0.09454630  0.88774378  1
  Al  Al3  1  0.88769482  0.20446713  0.64493088  1
  Al  Al4  1  0.45196122  0.09000305  0.38927250  1
  Al  Al5  1  0.56203192  0.19797199  0.14389383  1
  Al  Al6  1  0.11118338  0.09476358  0.89651442  1
  Al  Al7  1  0.22406588  0.20409542  0.64508252  1
  Al  Al8  1  0.88648966  0.20304334  0.14390106  1
  Al  Al9  1  0.44673623  0.08930308  0.90040686  1
  Al  Al10  1  0.55687824  0.20347994  0.64446249  1
  Al  Al11  1  0.11109289  0.42746788  0.39730319  1
  Al  Al12  1  0.22212961  0.53863085  0.14749981  1
  Al  Al13  1  0.77800757  0.42790657  0.89656878  1
  Al  Al14  1  0.88723652  0.54092147  0.64460056  1
  Al  Al15  1  0.45136240  0.42284723  0.39591604  1
  Al  Al16  1  0.55707924  0.54294485  0.14644016  1
  Al  Al17  1  0.11101443  0.42798630  0.89520614  1
  Al  Al18  1  0.22238636  0.53920934  0.64509281  1
  Al  Al19  1  0.77604673  0.42314759  0.39627292  1
  Al  Al20  1  0.88430435  0.54222732  0.14669031  1
  Al  Al21  1  0.44383417  0.42761532  0.89688492  1
  Al  Al22  1  0.55524844  0.53956907  0.64584341  1
  Al  Al23  1  0.10654810  0.76767913  0.39542229  1
  Al  Al24  1  0.22651831  0.87372672  0.14638084  1
  Al  Al25  1  0.77243336  0.76333120  0.89982668  1
  Al  Al26  1  0.88656516  0.87392636  0.64414481  1
  Al  Al27  1  0.44605475  0.76215542  0.39069128  1
  Al  Al28  1  0.11126079  0.76052178  0.89620570  1
  Al  Al29  1  0.22292835  0.87201232  0.64545522  1
  Al  Al30  1  0.77381792  0.76846075  0.38863368  1
  Al  Al31  1  0.88173914  0.87840895  0.14211740  1
  Al  Al32  1  0.44708849  0.76389845  0.89939776  1
  Al  Al33  1  0.55599187  0.87279091  0.64356671  1
  B  B34  1  0.77822030  0.09394272  0.37287348  1
  B  B35  1  0.55533776  0.87228048  0.14990769  1
  N  N36  1  0.22217584  0.20497929  0.33685161  1
  N  N37  1  0.10989814  0.09540595  0.08767332  1
  N  N38  1  0.89017793  0.20705191  0.83626329  1
  N  N39  1  0.77737920  0.09454673  0.59072929  1
  N  N40  1  0.58465394  0.19104930  0.33799134  1
  N  N41  1  0.45714235  0.07001442  0.09521349  1
  N  N42  1  0.22460129  0.20411888  0.83790310  1
  N  N43  1  0.11079502  0.09485031  0.58610672  1
  N  N44  1  0.87504563  0.19125066  0.33884860  1
  N  N45  1  0.77784586  0.09525411  0.07721962  1
  N  N46  1  0.55132231  0.20586697  0.83777698  1
  N  N47  1  0.44518020  0.09341392  0.58038072  1
  N  N48  1  0.22273268  0.53901914  0.33802795  1
  N  N49  1  0.11077964  0.42777597  0.08670665  1
  N  N50  1  0.88717066  0.54136679  0.83744632  1
  N  N51  1  0.77777503  0.42772689  0.58610743  1
  N  N52  1  0.55581941  0.53895544  0.33568498  1
  N  N53  1  0.44535274  0.42676681  0.08901237  1
  N  N54  1  0.22246644  0.53910628  0.83629190  1
  N  N55  1  0.11080523  0.42769580  0.58771429  1
  N  N56  1  0.88850398  0.53853535  0.33678446  1
  N  N57  1  0.77857858  0.42666798  0.08772781  1
  N  N58  1  0.55436855  0.54077739  0.83861824  1
  N  N59  1  0.44490722  0.42722072  0.58605509  1
  N  N60  1  0.22272559  0.87227040  0.33564575  1
  N  N61  1  0.11073586  0.76190585  0.08832464  1
  N  N62  1  0.88893889  0.86837170  0.83788934  1
  N  N63  1  0.77634599  0.76236531  0.57995709  1
  N  N64  1  0.55540070  0.87184492  0.31437022  1
  N  N65  1  0.45717877  0.77397523  0.09328182  1
  N  N66  1  0.22408151  0.87135938  0.83816594  1
  N  N67  1  0.11020332  0.76191999  0.58575290  1
  N  N68  1  0.87506750  0.90076319  0.33692472  1
  N  N69  1  0.75320120  0.77379061  0.09465561  1
  N  N70  1  0.55548932  0.87263469  0.83254884  1
  N  N71  1  0.44528233  0.76197778  0.58252803  1
