# generated using pymatgen
data_Al17BN18
_symmetry_space_group_name_H-M   'P 1'
_cell_length_a   9.32736788
_cell_length_b   9.30782363
_cell_length_c   10.06411298
_cell_angle_alpha   89.67160133
_cell_angle_beta   89.95814350
_cell_angle_gamma   59.92547913
_symmetry_Int_Tables_number   1
_chemical_formula_structural   Al17BN18
_chemical_formula_sum   'Al34 B2 N36'
_cell_volume   756.09838655
_cell_formula_units_Z   2
loop_
 _symmetry_equiv_pos_site_id
 _symmetry_equiv_pos_as_xyz
  1  'x, y, z'
loop_
 _atom_site_type_symbol
 _atom_site_label
 _atom_site_symmetry_multiplicity
 _atom_site_fract_x
 _atom_site_fract_y
 _atom_site_fract_z
 _atom_site_occupancy
  Al  Al0  1  0.10428382  0.09348173  0.31267840  1
  Al  Al1  1  0.21867237  0.20378201  0.07188951  1
  Al  Al2  1  0.77731235  0.09402617  0.81695070  1
  Al  Al3  1  0.88681748  0.20292546  0.56083551  1
  Al  Al4  1  0.44900673  0.09300481  0.37067658  1
  Al  Al5  1  0.56192014  0.20172372  0.07993511  1
  Al  Al6  1  0.11145355  0.09472747  0.81506065  1
  Al  Al7  1  0.21626220  0.20829607  0.56095150  1
  Al  Al8  1  0.88674376  0.20489857  0.06878155  1
  Al  Al9  1  0.45454767  0.07775702  0.89387843  1
  Al  Al10  1  0.56541577  0.20606273  0.55861799  1
  Al  Al11  1  0.10826078  0.43120152  0.31169672  1
  Al  Al12  1  0.22175559  0.54004924  0.06286108  1
  Al  Al13  1  0.77909785  0.42568870  0.81358687  1
  Al  Al14  1  0.88922730  0.53928478  0.56230703  1
  Al  Al15  1  0.44857335  0.42659793  0.31285709  1
  Al  Al16  1  0.55674307  0.54447759  0.06284796  1
  Al  Al17  1  0.11446515  0.42371572  0.81513730  1
  Al  Al18  1  0.22280633  0.53800925  0.56504414  1
  Al  Al19  1  0.77563983  0.42524248  0.31313008  1
  Al  Al20  1  0.88087741  0.54555185  0.06315934  1
  Al  Al21  1  0.44699723  0.42205305  0.81597455  1
  Al  Al22  1  0.55580733  0.53907649  0.56279178  1
  Al  Al23  1  0.10697279  0.76649873  0.31296487  1
  Al  Al24  1  0.22637150  0.87323062  0.06324682  1
  Al  Al25  1  0.78651466  0.75763179  0.81427803  1
  Al  Al26  1  0.88722841  0.87725041  0.55878601  1
  Al  Al27  1  0.44023625  0.76037419  0.31092410  1
  Al  Al28  1  0.11018562  0.76165792  0.81406460  1
  Al  Al29  1  0.22188709  0.87190285  0.56263093  1
  Al  Al30  1  0.77921491  0.76678097  0.31119843  1
  Al  Al31  1  0.88216129  0.87598053  0.07016382  1
  Al  Al32  1  0.44200286  0.75675467  0.81364745  1
  Al  Al33  1  0.55303724  0.87970034  0.63015375  1
  B  B34  1  0.77825676  0.09667219  0.31042476  1
  B  B35  1  0.55149152  0.87803367  0.14747247  1
  N  N36  1  0.21170442  0.21017689  0.36819702  1
  N  N37  1  0.10872821  0.09293585  0.12537754  1
  N  N38  1  0.88912706  0.20367574  0.87776159  1
  N  N39  1  0.77881818  0.09358530  0.62878984  1
  N  N40  1  0.58398295  0.19720462  0.36288886  1
  N  N41  1  0.45847841  0.06467980  0.08980700  1
  N  N42  1  0.22182165  0.20404389  0.87880104  1
  N  N43  1  0.10971628  0.09480101  0.62341688  1
  N  N44  1  0.87593263  0.19389197  0.36785238  1
  N  N45  1  0.78052087  0.09389454  0.14724862  1
  N  N46  1  0.56086019  0.20414506  0.88533951  1
  N  N47  1  0.44792079  0.09247699  0.56451264  1
  N  N48  1  0.22240942  0.53889503  0.37428081  1
  N  N49  1  0.10810079  0.43122075  0.12296497  1
  N  N50  1  0.89042407  0.53674191  0.87353761  1
  N  N51  1  0.77921667  0.42585974  0.62191856  1
  N  N52  1  0.55483260  0.54074812  0.37368435  1
  N  N53  1  0.44357247  0.43108548  0.12462568  1
  N  N54  1  0.22340205  0.53780413  0.87294874  1
  N  N55  1  0.11180499  0.42638484  0.62485428  1
  N  N56  1  0.88606444  0.54190426  0.37233053  1
  N  N57  1  0.77728221  0.42817508  0.12438214  1
  N  N58  1  0.55684012  0.53632518  0.87354610  1
  N  N59  1  0.44678575  0.42443915  0.62402796  1
  N  N60  1  0.22131873  0.87237158  0.37362924  1
  N  N61  1  0.11088244  0.76194859  0.12373957  1
  N  N62  1  0.88961726  0.87278329  0.87939172  1
  N  N63  1  0.78578127  0.75924280  0.61906018  1
  N  N64  1  0.54989065  0.88006643  0.31019408  1
  N  N65  1  0.45320972  0.77072155  0.11963393  1
  N  N66  1  0.22232570  0.87138480  0.87394206  1
  N  N67  1  0.10932069  0.76198226  0.62263043  1
  N  N68  1  0.87628596  0.89788230  0.36648216  1
  N  N69  1  0.75778954  0.77155913  0.12035562  1
  N  N70  1  0.55625291  0.87308905  0.82066012  1
  N  N71  1  0.44147067  0.75833821  0.62056524  1
