# generated using pymatgen
data_Al17BN18
_symmetry_space_group_name_H-M   'P 1'
_cell_length_a   9.35531205
_cell_length_b   9.35164350
_cell_length_c   10.11974736
_cell_angle_alpha   89.66982712
_cell_angle_beta   89.66711121
_cell_angle_gamma   59.94190345
_symmetry_Int_Tables_number   1
_chemical_formula_structural   Al17BN18
_chemical_formula_sum   'Al34 B2 N36'
_cell_volume   766.27082792
_cell_formula_units_Z   2
loop_
 _symmetry_equiv_pos_site_id
 _symmetry_equiv_pos_as_xyz
  1  'x, y, z'
loop_
 _atom_site_type_symbol
 _atom_site_label
 _atom_site_symmetry_multiplicity
 _atom_site_fract_x
 _atom_site_fract_y
 _atom_site_fract_z
 _atom_site_occupancy
  Al  Al0  1  0.10349449  0.09530857  0.33101387  1
  Al  Al1  1  0.22822533  0.20394880  0.13845882  1
  Al  Al2  1  0.77569099  0.09257983  0.82184219  1
  Al  Al3  1  0.88656600  0.20430497  0.56577302  1
  Al  Al4  1  0.44973914  0.08713321  0.37704104  1
  Al  Al5  1  0.56249221  0.20038739  0.08164458  1
  Al  Al6  1  0.10838195  0.09530188  0.83887001  1
  Al  Al7  1  0.22713443  0.20662616  0.63634340  1
  Al  Al8  1  0.88672497  0.20544176  0.07428053  1
  Al  Al9  1  0.44601290  0.08480709  0.89576236  1
  Al  Al10  1  0.56433035  0.20474892  0.56285860  1
  Al  Al11  1  0.10851104  0.42509240  0.39049956  1
  Al  Al12  1  0.22510600  0.54164132  0.06829332  1
  Al  Al13  1  0.78041719  0.42231334  0.82233062  1
  Al  Al14  1  0.89132090  0.54564165  0.63594338  1
  Al  Al15  1  0.44541104  0.42128770  0.31987674  1
  Al  Al16  1  0.55363022  0.54870274  0.13690153  1
  Al  Al17  1  0.10795916  0.42502935  0.88883705  1
  Al  Al18  1  0.22530673  0.54229382  0.56977428  1
  Al  Al19  1  0.77959356  0.41847250  0.32189973  1
  Al  Al20  1  0.88825394  0.54541699  0.13885673  1
  Al  Al21  1  0.44231933  0.42112576  0.82196893  1
  Al  Al22  1  0.55267287  0.54473000  0.63498413  1
  Al  Al23  1  0.10449925  0.76202783  0.31921167  1
  Al  Al24  1  0.23176581  0.87107310  0.13691961  1
  Al  Al25  1  0.76862064  0.76193348  0.89567513  1
  Al  Al26  1  0.88813996  0.88177027  0.56272728  1
  Al  Al27  1  0.44544119  0.76170569  0.38594011  1
  Al  Al28  1  0.10432425  0.75869322  0.82180229  1
  Al  Al29  1  0.22642336  0.87220886  0.63620935  1
  Al  Al30  1  0.77060542  0.76647527  0.37695767  1
  Al  Al31  1  0.88379350  0.87945889  0.08147849  1
  Al  Al32  1  0.44709453  0.76187620  0.89301450  1
  Al  Al33  1  0.55715313  0.87435231  0.63614069  1
  B  B34  1  0.77764697  0.09469684  0.31544557  1
  B  B35  1  0.55558062  0.87213960  0.14277096  1
  N  N36  1  0.22485608  0.20878704  0.32779779  1
  N  N37  1  0.10827986  0.09649849  0.11759970  1
  N  N38  1  0.88523175  0.20454980  0.88478392  1
  N  N39  1  0.77702587  0.09444519  0.63482997  1
  N  N40  1  0.58442113  0.19333419  0.36999008  1
  N  N41  1  0.45683029  0.06517549  0.08853332  1
  N  N42  1  0.22887032  0.20610646  0.82967476  1
  N  N43  1  0.10714101  0.09798290  0.61522749  1
  N  N44  1  0.87544072  0.19333672  0.37432702  1
  N  N45  1  0.77863824  0.09563122  0.15376178  1
  N  N46  1  0.55929831  0.20491456  0.88957961  1
  N  N47  1  0.44448260  0.09098165  0.56902720  1
  N  N48  1  0.22497373  0.54182370  0.38036324  1
  N  N49  1  0.10853267  0.42495743  0.07810592  1
  N  N50  1  0.89009104  0.54569120  0.82911811  1
  N  N51  1  0.78171380  0.42284516  0.62443591  1
  N  N52  1  0.55246842  0.54350630  0.33315854  1
  N  N53  1  0.44119060  0.42504336  0.13005891  1
  N  N54  1  0.22441808  0.54084854  0.87894286  1
  N  N55  1  0.10949525  0.42561133  0.57977304  1
  N  N56  1  0.89249530  0.54174420  0.32869491  1
  N  N57  1  0.78071734  0.42364946  0.12617848  1
  N  N58  1  0.55151991  0.54410024  0.83347230  1
  N  N59  1  0.44336167  0.42110727  0.62905178  1
  N  N60  1  0.22752798  0.86878764  0.33127758  1
  N  N61  1  0.10833370  0.75785183  0.12972790  1
  N  N62  1  0.88830957  0.87621378  0.88958027  1
  N  N63  1  0.77377454  0.76212016  0.56877116  1
  N  N64  1  0.55435882  0.87086087  0.30486405  1
  N  N65  1  0.45713819  0.77334113  0.08320639  1
  N  N66  1  0.22818387  0.86770529  0.83356794  1
  N  N67  1  0.10433779  0.76048402  0.62937157  1
  N  N68  1  0.87689811  0.90144393  0.36991394  1
  N  N69  1  0.74878211  0.77329454  0.08845438  1
  N  N70  1  0.55601453  0.87230951  0.82351064  1
  N  N71  1  0.44556655  0.76341232  0.57446582  1
