# generated using pymatgen
data_Al17BN18
_symmetry_space_group_name_H-M   'P 1'
_cell_length_a   9.32285187
_cell_length_b   9.31407437
_cell_length_c   9.99233094
_cell_angle_alpha   89.71144608
_cell_angle_beta   89.93834952
_cell_angle_gamma   59.96199939
_symmetry_Int_Tables_number   1
_chemical_formula_structural   Al17BN18
_chemical_formula_sum   'Al34 B2 N36'
_cell_volume   751.12702199
_cell_formula_units_Z   2
loop_
 _symmetry_equiv_pos_site_id
 _symmetry_equiv_pos_as_xyz
  1  'x, y, z'
loop_
 _atom_site_type_symbol
 _atom_site_label
 _atom_site_symmetry_multiplicity
 _atom_site_fract_x
 _atom_site_fract_y
 _atom_site_fract_z
 _atom_site_occupancy
  Al  Al0  1  0.10695063  0.09216652  0.39622453  1
  Al  Al1  1  0.22553517  0.20138688  0.14729116  1
  Al  Al2  1  0.77583490  0.09729486  0.87406329  1
  Al  Al3  1  0.88969698  0.20674812  0.64992147  1
  Al  Al4  1  0.45252985  0.08951820  0.38916004  1
  Al  Al5  1  0.56236998  0.19765845  0.14219500  1
  Al  Al6  1  0.11194846  0.09497477  0.89807570  1
  Al  Al7  1  0.22402765  0.20387170  0.64550270  1
  Al  Al8  1  0.88649632  0.20329076  0.14206322  1
  Al  Al9  1  0.44568605  0.08938940  0.90180584  1
  Al  Al10  1  0.55227787  0.20576419  0.64964930  1
  Al  Al11  1  0.11128717  0.42721642  0.39764420  1
  Al  Al12  1  0.22282948  0.53803794  0.14848264  1
  Al  Al13  1  0.77801709  0.42825634  0.89844130  1
  Al  Al14  1  0.88732158  0.54023406  0.64448780  1
  Al  Al15  1  0.45243334  0.42211934  0.39614377  1
  Al  Al16  1  0.55690795  0.54307041  0.14701923  1
  Al  Al17  1  0.11087766  0.42805010  0.89507651  1
  Al  Al18  1  0.22267863  0.53858441  0.64519982  1
  Al  Al19  1  0.77577786  0.42279310  0.39633237  1
  Al  Al20  1  0.88432923  0.54208299  0.14742522  1
  Al  Al21  1  0.44317780  0.42795148  0.89893597  1
  Al  Al22  1  0.55543555  0.53898457  0.64630298  1
  Al  Al23  1  0.10809187  0.76741190  0.39265343  1
  Al  Al24  1  0.22759643  0.87398942  0.14734313  1
  Al  Al25  1  0.76950613  0.75981313  0.89799690  1
  Al  Al26  1  0.88562359  0.87545522  0.62229955  1
  Al  Al27  1  0.44651147  0.76180094  0.39128258  1
  Al  Al28  1  0.11657038  0.75753445  0.89541601  1
  Al  Al29  1  0.22311296  0.87238376  0.64553194  1
  Al  Al30  1  0.77326429  0.76884444  0.38503163  1
  Al  Al31  1  0.88264344  0.87631858  0.09914924  1
  Al  Al32  1  0.44666930  0.76371669  0.89962350  1
  Al  Al33  1  0.55511425  0.87306508  0.64348993  1
  B  B34  1  0.78019724  0.09084443  0.35513745  1
  B  B35  1  0.55462901  0.87195699  0.15013754  1
  N  N36  1  0.22231491  0.20507063  0.33725454  1
  N  N37  1  0.11061416  0.09537424  0.08891050  1
  N  N38  1  0.89336781  0.21025324  0.83990444  1
  N  N39  1  0.77587996  0.09694311  0.62837165  1
  N  N40  1  0.58680315  0.18970896  0.33745329  1
  N  N41  1  0.45689346  0.06969858  0.09604400  1
  N  N42  1  0.22448325  0.20406863  0.83813586  1
  N  N43  1  0.11034432  0.09519168  0.58588906  1
  N  N44  1  0.87445583  0.19023496  0.33827910  1
  N  N45  1  0.77489837  0.10169810  0.07383712  1
  N  N46  1  0.54484845  0.20896127  0.84156827  1
  N  N47  1  0.44518365  0.09377654  0.58025765  1
  N  N48  1  0.22350380  0.53799986  0.33855353  1
  N  N49  1  0.11046102  0.42861972  0.08674584  1
  N  N50  1  0.88712892  0.54018623  0.83656528  1
  N  N51  1  0.77772599  0.42756692  0.58587409  1
  N  N52  1  0.55584848  0.53897551  0.33621603  1
  N  N53  1  0.44508951  0.42737260  0.09050359  1
  N  N54  1  0.22318923  0.53821307  0.83573656  1
  N  N55  1  0.11072486  0.42772299  0.58792589  1
  N  N56  1  0.88893277  0.53787722  0.33701517  1
  N  N57  1  0.77821429  0.42780055  0.08910213  1
  N  N58  1  0.55438300  0.54042886  0.83927904  1
  N  N59  1  0.44490736  0.42709277  0.58600334  1
  N  N60  1  0.22382509  0.87255954  0.33602162  1
  N  N61  1  0.11719508  0.75967683  0.08888326  1
  N  N62  1  0.89035892  0.86450112  0.86359730  1
  N  N63  1  0.77467617  0.76109461  0.57877567  1
  N  N64  1  0.55460892  0.87189779  0.31429685  1
  N  N65  1  0.45684126  0.77410021  0.09339297  1
  N  N66  1  0.22439968  0.87200984  0.83760376  1
  N  N67  1  0.11239802  0.76086508  0.58503577  1
  N  N68  1  0.87378835  0.90406884  0.35245834  1
  N  N69  1  0.75002045  0.77217878  0.09444918  1
  N  N70  1  0.55372114  0.87325364  0.83199611  1
  N  N71  1  0.44521775  0.76177316  0.58282023  1
