# generated using pymatgen
data_Al17BN18
_symmetry_space_group_name_H-M   'P 1'
_cell_length_a   9.32689752
_cell_length_b   9.30718109
_cell_length_c   10.06629303
_cell_angle_alpha   89.68569318
_cell_angle_beta   89.96060306
_cell_angle_gamma   59.92623106
_symmetry_Int_Tables_number   1
_chemical_formula_structural   Al17BN18
_chemical_formula_sum   'Al34 B2 N36'
_cell_volume   756.17878921
_cell_formula_units_Z   2
loop_
 _symmetry_equiv_pos_site_id
 _symmetry_equiv_pos_as_xyz
  1  'x, y, z'
loop_
 _atom_site_type_symbol
 _atom_site_label
 _atom_site_symmetry_multiplicity
 _atom_site_fract_x
 _atom_site_fract_y
 _atom_site_fract_z
 _atom_site_occupancy
  Al  Al0  1  0.10709659  0.09339602  0.38901893  1
  Al  Al1  1  0.22644124  0.20008390  0.13919727  1
  Al  Al2  1  0.78028215  0.08704537  0.82180367  1
  Al  Al3  1  0.89132139  0.21002948  0.63841155  1
  Al  Al4  1  0.45113656  0.09064776  0.38209453  1
  Al  Al5  1  0.55416609  0.19980816  0.14119564  1
  Al  Al6  1  0.11136938  0.09488302  0.88952989  1
  Al  Al7  1  0.22309988  0.20514987  0.63819600  1
  Al  Al8  1  0.89321252  0.20622321  0.14146879  1
  Al  Al9  1  0.44611844  0.08956201  0.89336607  1
  Al  Al10  1  0.54676360  0.20915573  0.63776615  1
  Al  Al11  1  0.11162399  0.42658249  0.38935419  1
  Al  Al12  1  0.22522074  0.53531005  0.14050927  1
  Al  Al13  1  0.77754061  0.42765514  0.88935938  1
  Al  Al14  1  0.88628324  0.54481517  0.63626944  1
  Al  Al15  1  0.45246952  0.42112048  0.38909757  1
  Al  Al16  1  0.55779384  0.54129930  0.13904960  1
  Al  Al17  1  0.11048940  0.42880138  0.88717821  1
  Al  Al18  1  0.21877596  0.54314431  0.63710516  1
  Al  Al19  1  0.77663257  0.42219890  0.38941532  1
  Al  Al20  1  0.88485438  0.53991228  0.13934665  1
  Al  Al21  1  0.44409589  0.42744499  0.88983521  1
  Al  Al22  1  0.55420088  0.54110201  0.63864851  1
  Al  Al23  1  0.11480990  0.76277816  0.38024285  1
  Al  Al24  1  0.22916957  0.87312692  0.13954877  1
  Al  Al25  1  0.76789856  0.76081802  0.89377538  1
  Al  Al26  1  0.87877553  0.88898367  0.55804662  1
  Al  Al27  1  0.44664865  0.76171480  0.38345068  1
  Al  Al28  1  0.11697077  0.75857369  0.89143733  1
  Al  Al29  1  0.22184700  0.87202426  0.63716593  1
  Al  Al30  1  0.77142707  0.76484201  0.37218756  1
  Al  Al31  1  0.88441357  0.87361355  0.08189614  1
  Al  Al32  1  0.44651798  0.76383569  0.89136467  1
  Al  Al33  1  0.55601594  0.87273593  0.63527814  1
  B  B34  1  0.78194441  0.08852167  0.30478293  1
  B  B35  1  0.55514982  0.86988598  0.14178875  1
  N  N36  1  0.22249394  0.20468115  0.32840886  1
  N  N37  1  0.11204602  0.09421898  0.07852699  1
  N  N38  1  0.89184669  0.20843633  0.83143059  1
  N  N39  1  0.77707066  0.09364587  0.63132698  1
  N  N40  1  0.57550863  0.19507102  0.33200946  1
  N  N41  1  0.45715411  0.06873186  0.08567250  1
  N  N42  1  0.22397425  0.20481248  0.82958424  1
  N  N43  1  0.11105928  0.09534593  0.57826479  1
  N  N44  1  0.88026407  0.19591427  0.33273187  1
  N  N45  1  0.78352937  0.08651758  0.14246991  1
  N  N46  1  0.54751864  0.20754082  0.83290991  1
  N  N47  1  0.44363392  0.09395359  0.57281170  1
  N  N48  1  0.22532720  0.53533590  0.32920097  1
  N  N49  1  0.11099853  0.42769308  0.07790404  1
  N  N50  1  0.88649526  0.54245369  0.82821108  1
  N  N51  1  0.77645264  0.43051100  0.57866342  1
  N  N52  1  0.55612050  0.53841840  0.32778708  1
  N  N53  1  0.44740925  0.42458242  0.07981462  1
  N  N54  1  0.22142488  0.54050310  0.82737606  1
  N  N55  1  0.10988946  0.42898753  0.57925258  1
  N  N56  1  0.88983490  0.53547629  0.32754028  1
  N  N57  1  0.77860818  0.42574666  0.07846661  1
  N  N58  1  0.55410568  0.54089854  0.83027479  1
  N  N59  1  0.44282698  0.43009802  0.57866293  1
  N  N60  1  0.22469796  0.87369490  0.32680894  1
  N  N61  1  0.12175307  0.75637680  0.08413493  1
  N  N62  1  0.88526635  0.87458824  0.88809199  1
  N  N63  1  0.77241968  0.76263649  0.56675944  1
  N  N64  1  0.55281285  0.87273740  0.30493550  1
  N  N65  1  0.45750689  0.77267971  0.08432959  1
  N  N66  1  0.22358571  0.87194568  0.82879354  1
  N  N67  1  0.11148962  0.76273323  0.57330065  1
  N  N68  1  0.87499677  0.90177641  0.36226788  1
  N  N69  1  0.74944582  0.76934614  0.08944404  1
  N  N70  1  0.55455613  0.87316796  0.82342821  1
  N  N71  1  0.44418720  0.76307693  0.57444789  1
