# generated using pymatgen
data_Al17BN18
_symmetry_space_group_name_H-M   'P 1'
_cell_length_a   9.32769371
_cell_length_b   9.32586476
_cell_length_c   10.11369741
_cell_angle_alpha   89.61345891
_cell_angle_beta   89.59801447
_cell_angle_gamma   60.03666595
_symmetry_Int_Tables_number   1
_chemical_formula_structural   Al17BN18
_chemical_formula_sum   'Al34 B2 N36'
_cell_volume   762.16778415
_cell_formula_units_Z   2
loop_
 _symmetry_equiv_pos_site_id
 _symmetry_equiv_pos_as_xyz
  1  'x, y, z'
loop_
 _atom_site_type_symbol
 _atom_site_label
 _atom_site_symmetry_multiplicity
 _atom_site_fract_x
 _atom_site_fract_y
 _atom_site_fract_z
 _atom_site_occupancy
  Al  Al0  1  0.10348048  0.08996729  0.32163474  1
  Al  Al1  1  0.23118950  0.20039442  0.14327316  1
  Al  Al2  1  0.77467773  0.09286314  0.82622758  1
  Al  Al3  1  0.88670417  0.20229619  0.56898076  1
  Al  Al4  1  0.44938390  0.08985950  0.38240491  1
  Al  Al5  1  0.56214964  0.20134546  0.08460465  1
  Al  Al6  1  0.10520134  0.09184371  0.82217447  1
  Al  Al7  1  0.22734612  0.20754113  0.64063351  1
  Al  Al8  1  0.88799466  0.20402755  0.07545286  1
  Al  Al9  1  0.44384403  0.08462208  0.89929659  1
  Al  Al10  1  0.56373100  0.20578431  0.56697835  1
  Al  Al11  1  0.11606252  0.42181559  0.38525575  1
  Al  Al12  1  0.22753876  0.54238108  0.07327258  1
  Al  Al13  1  0.77764146  0.42716034  0.82240417  1
  Al  Al14  1  0.88386253  0.53849235  0.57911649  1
  Al  Al15  1  0.45125925  0.42512113  0.32091067  1
  Al  Al16  1  0.55724749  0.54373100  0.06922133  1
  Al  Al17  1  0.10984428  0.42306019  0.89340025  1
  Al  Al18  1  0.22480020  0.54276362  0.57333041  1
  Al  Al19  1  0.77457302  0.42126151  0.32061141  1
  Al  Al20  1  0.88369678  0.54123837  0.10705530  1
  Al  Al21  1  0.44514876  0.42349595  0.82352477  1
  Al  Al22  1  0.55372674  0.54030480  0.57066524  1
  Al  Al23  1  0.11037289  0.76607787  0.32050304  1
  Al  Al24  1  0.22764128  0.87440267  0.06976074  1
  Al  Al25  1  0.76562250  0.76470366  0.90064780  1
  Al  Al26  1  0.88867680  0.88121080  0.56571757  1
  Al  Al27  1  0.44412125  0.76026108  0.31599770  1
  Al  Al28  1  0.10568856  0.76186024  0.82335624  1
  Al  Al29  1  0.22275776  0.87355712  0.57057970  1
  Al  Al30  1  0.77298346  0.76994047  0.37355803  1
  Al  Al31  1  0.88540633  0.87942532  0.08618850  1
  Al  Al32  1  0.44086726  0.75730176  0.82055755  1
  Al  Al33  1  0.55917845  0.87667578  0.63910280  1
  B  B34  1  0.77912004  0.09610708  0.31897590  1
  B  B35  1  0.55735643  0.87578915  0.15002738  1
  N  N36  1  0.22690992  0.20404964  0.33115867  1
  N  N37  1  0.10791093  0.09146377  0.13152787  1
  N  N38  1  0.88599469  0.20484406  0.88586278  1
  N  N39  1  0.77635639  0.09360547  0.63834891  1
  N  N40  1  0.58496883  0.19589534  0.37362182  1
  N  N41  1  0.45667677  0.06460809  0.09086914  1
  N  N42  1  0.22734581  0.20504971  0.83231453  1
  N  N43  1  0.10615393  0.09357711  0.63007553  1
  N  N44  1  0.87676232  0.19401568  0.37741425  1
  N  N45  1  0.77848014  0.09634249  0.15666529  1
  N  N46  1  0.55726326  0.20617541  0.89245150  1
  N  N47  1  0.44315607  0.09218845  0.57229876  1
  N  N48  1  0.22795474  0.54308964  0.38123986  1
  N  N49  1  0.11567368  0.42181434  0.08795459  1
  N  N50  1  0.88389908  0.53981452  0.87456899  1
  N  N51  1  0.77600820  0.42474300  0.62998768  1
  N  N52  1  0.55548383  0.54185003  0.38251156  1
  N  N53  1  0.44656488  0.42878675  0.13377797  1
  N  N54  1  0.22472853  0.54169709  0.88166126  1
  N  N55  1  0.11147413  0.42385913  0.58010789  1
  N  N56  1  0.88890371  0.53703141  0.35535979  1
  N  N57  1  0.77411837  0.42392623  0.13361220  1
  N  N58  1  0.55497502  0.53772289  0.88115955  1
  N  N59  1  0.44574713  0.42414798  0.63278726  1
  N  N60  1  0.22567383  0.87168368  0.38237328  1
  N  N61  1  0.11339139  0.76182908  0.13353547  1
  N  N62  1  0.88871888  0.87582098  0.89336694  1
  N  N63  1  0.77099310  0.76617817  0.56821796  1
  N  N64  1  0.55850723  0.87883988  0.30935730  1
  N  N65  1  0.45368709  0.76953486  0.12617029  1
  N  N66  1  0.22114299  0.87176628  0.88188635  1
  N  N67  1  0.10678023  0.76373395  0.63229232  1
  N  N68  1  0.88103791  0.90177485  0.37162170  1
  N  N69  1  0.74768279  0.77664101  0.09639262  1
  N  N70  1  0.55750833  0.87510229  0.82645295  1
  N  N71  1  0.44145494  0.75884013  0.63008062  1
