# generated using pymatgen
data_Al17BN18
_symmetry_space_group_name_H-M   'P 1'
_cell_length_a   9.32601916
_cell_length_b   9.31060749
_cell_length_c   10.04843650
_cell_angle_alpha   89.59922798
_cell_angle_beta   89.94828616
_cell_angle_gamma   59.93336927
_symmetry_Int_Tables_number   1
_chemical_formula_structural   Al17BN18
_chemical_formula_sum   'Al34 B2 N36'
_cell_volume   755.09027163
_cell_formula_units_Z   2
loop_
 _symmetry_equiv_pos_site_id
 _symmetry_equiv_pos_as_xyz
  1  'x, y, z'
loop_
 _atom_site_type_symbol
 _atom_site_label
 _atom_site_symmetry_multiplicity
 _atom_site_fract_x
 _atom_site_fract_y
 _atom_site_fract_z
 _atom_site_occupancy
  Al  Al0  1  0.10672557  0.09318151  0.39604305  1
  Al  Al1  1  0.22608203  0.20088452  0.14685762  1
  Al  Al2  1  0.78004839  0.08786825  0.83706922  1
  Al  Al3  1  0.89131583  0.20913343  0.64806992  1
  Al  Al4  1  0.45188450  0.09038911  0.38914525  1
  Al  Al5  1  0.55756924  0.19897794  0.14561464  1
  Al  Al6  1  0.11191209  0.09448658  0.89796153  1
  Al  Al7  1  0.22355236  0.20439868  0.64553825  1
  Al  Al8  1  0.89049356  0.20531116  0.14567381  1
  Al  Al9  1  0.44610105  0.08892758  0.90170764  1
  Al  Al10  1  0.54783044  0.20821442  0.64764461  1
  Al  Al11  1  0.11151686  0.42690084  0.39712088  1
  Al  Al12  1  0.22404400  0.53677437  0.14780542  1
  Al  Al13  1  0.77776627  0.42720691  0.89795519  1
  Al  Al14  1  0.88675726  0.54314553  0.64381516  1
  Al  Al15  1  0.45255524  0.42175706  0.39623390  1
  Al  Al16  1  0.55732639  0.54218390  0.14648111  1
  Al  Al17  1  0.11085737  0.42804220  0.89459277  1
  Al  Al18  1  0.22005489  0.54151318  0.64466431  1
  Al  Al19  1  0.77600758  0.42277790  0.39644531  1
  Al  Al20  1  0.88450078  0.54134923  0.14667730  1
  Al  Al21  1  0.44433127  0.42696800  0.89848338  1
  Al  Al22  1  0.55468660  0.54022420  0.64618466  1
  Al  Al23  1  0.11402618  0.76391500  0.38886006  1
  Al  Al24  1  0.22832234  0.87370457  0.14666322  1
  Al  Al25  1  0.76837515  0.75890143  0.89926839  1
  Al  Al26  1  0.87961634  0.88745071  0.57185768  1
  Al  Al27  1  0.44646626  0.76211520  0.39090134  1
  Al  Al28  1  0.11820104  0.75676228  0.89709921  1
  Al  Al29  1  0.22218384  0.87191752  0.64483572  1
  Al  Al30  1  0.77120768  0.76592860  0.38082656  1
  Al  Al31  1  0.88339171  0.87522169  0.08365020  1
  Al  Al32  1  0.44662094  0.76342279  0.89901422  1
  Al  Al33  1  0.55595361  0.87256694  0.64282315  1
  B  B34  1  0.77970870  0.09258881  0.32743077  1
  B  B35  1  0.55492319  0.87098209  0.14902640  1
  N  N36  1  0.22236978  0.20514733  0.33637088  1
  N  N37  1  0.11184082  0.09512746  0.08727634  1
  N  N38  1  0.89279213  0.20861825  0.84002056  1
  N  N39  1  0.77737021  0.09326784  0.64217227  1
  N  N40  1  0.58046092  0.19339378  0.33884300  1
  N  N41  1  0.45652923  0.06933688  0.09438961  1
  N  N42  1  0.22439899  0.20403150  0.83721876  1
  N  N43  1  0.11056708  0.09525230  0.58538717  1
  N  N44  1  0.87709640  0.19421574  0.33950479  1
  N  N45  1  0.78024191  0.09276614  0.12277484  1
  N  N46  1  0.54657645  0.20757057  0.84163207  1
  N  N47  1  0.44448227  0.09386822  0.57996510  1
  N  N48  1  0.22472058  0.53626069  0.33707455  1
  N  N49  1  0.11067814  0.42836745  0.08555398  1
  N  N50  1  0.88691800  0.54048540  0.83547843  1
  N  N51  1  0.77696009  0.42911826  0.58574130  1
  N  N52  1  0.55576828  0.53914823  0.33545031  1
  N  N53  1  0.44600066  0.42627764  0.08864156  1
  N  N54  1  0.22290573  0.53861617  0.83474136  1
  N  N55  1  0.11029444  0.42834767  0.58695583  1
  N  N56  1  0.88962197  0.53634728  0.33541774  1
  N  N57  1  0.77836245  0.42734080  0.08723043  1
  N  N58  1  0.55438451  0.54030554  0.83815595  1
  N  N59  1  0.44385377  0.42866876  0.58584491  1
  N  N60  1  0.22431905  0.87386787  0.33442404  1
  N  N61  1  0.12044787  0.75766521  0.09067040  1
  N  N62  1  0.88833205  0.86810390  0.88835759  1
  N  N63  1  0.77294387  0.76163850  0.57505478  1
  N  N64  1  0.55314103  0.87291277  0.31277773  1
  N  N65  1  0.45700229  0.77345277  0.09205393  1
  N  N66  1  0.22393329  0.87179440  0.83641012  1
  N  N67  1  0.11229715  0.76171178  0.58156760  1
  N  N68  1  0.87289119  0.90598531  0.37192354  1
  N  N69  1  0.74912799  0.77066799  0.09598789  1
  N  N70  1  0.55415298  0.87297499  0.83093266  1
  N  N71  1  0.44447233  0.76261961  0.58203489  1
