# generated using pymatgen
data_Al17BN18
_symmetry_space_group_name_H-M   'P 1'
_cell_length_a   9.32817521
_cell_length_b   9.33386770
_cell_length_c   10.05413024
_cell_angle_alpha   89.71801328
_cell_angle_beta   89.63599776
_cell_angle_gamma   59.96495174
_symmetry_Int_Tables_number   1
_chemical_formula_structural   Al17BN18
_chemical_formula_sum   'Al34 B2 N36'
_cell_volume   757.82746812
_cell_formula_units_Z   2
loop_
 _symmetry_equiv_pos_site_id
 _symmetry_equiv_pos_as_xyz
  1  'x, y, z'
loop_
 _atom_site_type_symbol
 _atom_site_label
 _atom_site_symmetry_multiplicity
 _atom_site_fract_x
 _atom_site_fract_y
 _atom_site_fract_z
 _atom_site_occupancy
  Al  Al0  1  0.10557876  0.09432135  0.38789314  1
  Al  Al1  1  0.22327639  0.20078906  0.13693991  1
  Al  Al2  1  0.77335826  0.09011959  0.81906177  1
  Al  Al3  1  0.89242140  0.20884574  0.63706823  1
  Al  Al4  1  0.44792879  0.08889341  0.37102692  1
  Al  Al5  1  0.55935934  0.19835381  0.08141699  1
  Al  Al6  1  0.10979614  0.09523992  0.88702212  1
  Al  Al7  1  0.22672514  0.20362392  0.63464267  1
  Al  Al8  1  0.88906548  0.20684391  0.14181123  1
  Al  Al9  1  0.44434547  0.08535806  0.89117778  1
  Al  Al10  1  0.56789497  0.19866065  0.55996541  1
  Al  Al11  1  0.11019402  0.42697511  0.38765601  1
  Al  Al12  1  0.22217480  0.53596250  0.13732434  1
  Al  Al13  1  0.77830332  0.42655402  0.88690789  1
  Al  Al14  1  0.88776968  0.54316546  0.63450673  1
  Al  Al15  1  0.44740361  0.43077539  0.37964615  1
  Al  Al16  1  0.55708052  0.54456835  0.13720957  1
  Al  Al17  1  0.11159845  0.42683429  0.88466595  1
  Al  Al18  1  0.22326565  0.53860841  0.63355337  1
  Al  Al19  1  0.77672273  0.42327249  0.38751408  1
  Al  Al20  1  0.88370689  0.54072327  0.13657704  1
  Al  Al21  1  0.44360541  0.43193291  0.88934229  1
  Al  Al22  1  0.55489864  0.53981673  0.63542132  1
  Al  Al23  1  0.10843959  0.76699473  0.35780539  1
  Al  Al24  1  0.22861367  0.87553811  0.13560387  1
  Al  Al25  1  0.76931366  0.76048079  0.89151414  1
  Al  Al26  1  0.88714884  0.88187055  0.55877261  1
  Al  Al27  1  0.44583651  0.76325323  0.38240004  1
  Al  Al28  1  0.11416869  0.75971758  0.87833560  1
  Al  Al29  1  0.22387967  0.87136864  0.63456979  1
  Al  Al30  1  0.77104008  0.76507348  0.37181116  1
  Al  Al31  1  0.88129214  0.87719349  0.08111442  1
  Al  Al32  1  0.44801103  0.76313213  0.88869951  1
  Al  Al33  1  0.55770806  0.87290995  0.63182821  1
  B  B34  1  0.77304786  0.09340298  0.30742306  1
  B  B35  1  0.55378532  0.86997930  0.13951544  1
  N  N36  1  0.21928493  0.20636677  0.32537385  1
  N  N37  1  0.10775260  0.09592034  0.07605895  1
  N  N38  1  0.89102221  0.20763072  0.82843851  1
  N  N39  1  0.77642427  0.09117480  0.63112192  1
  N  N40  1  0.58427804  0.19253529  0.36291710  1
  N  N41  1  0.45255732  0.06552218  0.08658204  1
  N  N42  1  0.22544597  0.20345100  0.82636087  1
  N  N43  1  0.11233248  0.09450642  0.57687492  1
  N  N44  1  0.87952727  0.19729904  0.33235348  1
  N  N45  1  0.77256776  0.09115349  0.14769134  1
  N  N46  1  0.55971549  0.20109876  0.88543392  1
  N  N47  1  0.44411318  0.09040434  0.56582488  1
  N  N48  1  0.22223509  0.53601390  0.32616217  1
  N  N49  1  0.11055635  0.42676595  0.07489943  1
  N  N50  1  0.88779753  0.54160268  0.82651486  1
  N  N51  1  0.77800555  0.42876962  0.57684419  1
  N  N52  1  0.55696861  0.54178066  0.32507211  1
  N  N53  1  0.44272385  0.43475582  0.08214315  1
  N  N54  1  0.22432859  0.53682605  0.82570831  1
  N  N55  1  0.11155627  0.42695316  0.57721193  1
  N  N56  1  0.88932237  0.53677371  0.32514597  1
  N  N57  1  0.77798961  0.42543406  0.07638000  1
  N  N58  1  0.55523712  0.54067488  0.82711229  1
  N  N59  1  0.44485635  0.42989128  0.57302768  1
  N  N60  1  0.22522776  0.87600390  0.32424049  1
  N  N61  1  0.11467936  0.76071036  0.09315963  1
  N  N62  1  0.88525998  0.87630870  0.88615532  1
  N  N63  1  0.77529749  0.76035753  0.56559621  1
  N  N64  1  0.55390678  0.87094285  0.30200632  1
  N  N65  1  0.45723607  0.77296132  0.08120487  1
  N  N66  1  0.22552355  0.87214744  0.82802365  1
  N  N67  1  0.11349258  0.76067623  0.58069636  1
  N  N68  1  0.87330240  0.90289540  0.36219554  1
  N  N69  1  0.74864616  0.76996876  0.08634455  1
  N  N70  1  0.55660235  0.87211564  0.82009937  1
  N  N71  1  0.44652504  0.76195028  0.57278903  1
