# generated using pymatgen
data_Al17BN18
_symmetry_space_group_name_H-M   'P 1'
_cell_length_a   9.31889318
_cell_length_b   9.31888817
_cell_length_c   10.12572929
_cell_angle_alpha   89.66100338
_cell_angle_beta   89.66305747
_cell_angle_gamma   60.07242194
_symmetry_Int_Tables_number   1
_chemical_formula_structural   Al17BN18
_chemical_formula_sum   'Al34 B2 N36'
_cell_volume   762.06456716
_cell_formula_units_Z   2
loop_
 _symmetry_equiv_pos_site_id
 _symmetry_equiv_pos_as_xyz
  1  'x, y, z'
loop_
 _atom_site_type_symbol
 _atom_site_label
 _atom_site_symmetry_multiplicity
 _atom_site_fract_x
 _atom_site_fract_y
 _atom_site_fract_z
 _atom_site_occupancy
  Al  Al0  1  0.10201365  0.09179127  0.32022903  1
  Al  Al1  1  0.22874806  0.20343773  0.14122085  1
  Al  Al2  1  0.77576142  0.09242735  0.82489327  1
  Al  Al3  1  0.88698800  0.20365051  0.56821545  1
  Al  Al4  1  0.44905465  0.08923664  0.37916994  1
  Al  Al5  1  0.56210072  0.20062002  0.08415129  1
  Al  Al6  1  0.10651965  0.09199127  0.82118996  1
  Al  Al7  1  0.22875301  0.20679937  0.63872989  1
  Al  Al8  1  0.88777672  0.20444080  0.07511398  1
  Al  Al9  1  0.44449441  0.08710539  0.89767810  1
  Al  Al10  1  0.56429285  0.20498981  0.56548031  1
  Al  Al11  1  0.10844120  0.42510172  0.39146795  1
  Al  Al12  1  0.22541162  0.54207619  0.07066537  1
  Al  Al13  1  0.77532485  0.42318617  0.82119009  1
  Al  Al14  1  0.89013596  0.54541597  0.63872926  1
  Al  Al15  1  0.44845665  0.42391766  0.31975446  1
  Al  Al16  1  0.55955745  0.53969902  0.07419493  1
  Al  Al17  1  0.10796748  0.42463145  0.88966842  1
  Al  Al18  1  0.22587930  0.54254303  0.57277349  1
  Al  Al19  1  0.77512734  0.41867675  0.32022891  1
  Al  Al20  1  0.88677525  0.54541134  0.14122116  1
  Al  Al21  1  0.44540662  0.42433875  0.82224353  1
  Al  Al22  1  0.55880480  0.53582109  0.57026563  1
  Al  Al23  1  0.10725468  0.76512004  0.31975466  1
  Al  Al24  1  0.22303597  0.87622137  0.07419462  1
  Al  Al25  1  0.77044279  0.76115794  0.89767772  1
  Al  Al26  1  0.88832567  0.88095724  0.56548003  1
  Al  Al27  1  0.44632619  0.76298798  0.36382504  1
  Al  Al28  1  0.10767330  0.76207251  0.82224278  1
  Al  Al29  1  0.21916059  0.87546715  0.57026560  1
  Al  Al30  1  0.77257613  0.76571513  0.37916949  1
  Al  Al31  1  0.88395663  0.87876485  0.08415075  1
  Al  Al32  1  0.44756394  0.76422772  0.87409499  1
  Al  Al33  1  0.55719328  0.87385547  0.63690569  1
  B  B34  1  0.77800307  0.09466370  0.31842171  1
  B  B35  1  0.55393187  0.87059607  0.14403622  1
  N  N36  1  0.22442355  0.20798022  0.33004586  1
  N  N37  1  0.10669343  0.09310568  0.13168288  1
  N  N38  1  0.88768520  0.20434849  0.88609597  1
  N  N39  1  0.77696968  0.09363069  0.63743984  1
  N  N40  1  0.58449285  0.19444856  0.37186150  1
  N  N41  1  0.45540112  0.06598003  0.08943752  1
  N  N42  1  0.22840450  0.20553564  0.83042282  1
  N  N43  1  0.10626122  0.09394583  0.63015286  1
  N  N44  1  0.87679649  0.19345694  0.37722840  1
  N  N45  1  0.77861104  0.09527295  0.15587874  1
  N  N46  1  0.55878159  0.20674736  0.89165825  1
  N  N47  1  0.44424024  0.09142565  0.57026884  1
  N  N48  1  0.22602629  0.54268631  0.38186243  1
  N  N49  1  0.10799502  0.42466085  0.07947049  1
  N  N50  1  0.88886881  0.54507139  0.83042216  1
  N  N51  1  0.77728559  0.42292095  0.63015317  1
  N  N52  1  0.55816276  0.53383090  0.37977855  1
  N  N53  1  0.44391914  0.42801886  0.13320744  1
  N  N54  1  0.22525856  0.54192133  0.88002081  1
  N  N55  1  0.10885348  0.42551949  0.58107724  1
  N  N56  1  0.89131654  0.54108676  0.33004613  1
  N  N57  1  0.77644479  0.42335467  0.13168291  1
  N  N58  1  0.55716729  0.53502811  0.88306201  1
  N  N59  1  0.44675793  0.42378394  0.63235863  1
  N  N60  1  0.21716970  0.87482397  0.37977886  1
  N  N61  1  0.11135733  0.76058105  0.13320772  1
  N  N62  1  0.89008558  0.87544362  0.89165785  1
  N  N63  1  0.77475952  0.76090631  0.57026828  1
  N  N64  1  0.55693522  0.87359841  0.30589872  1
  N  N65  1  0.45722996  0.77389167  0.09768173  1
  N  N66  1  0.21836448  0.87383062  0.88306218  1
  N  N67  1  0.10712301  0.76341953  0.63235779  1
  N  N68  1  0.87778834  0.90115372  0.37186156  1
  N  N69  1  0.74931553  0.77206707  0.08943741  1
  N  N70  1  0.55841480  0.87508138  0.82429766  1
  N  N71  1  0.44637818  0.76303721  0.59035419  1
