# generated using pymatgen
data_Al17BN18
_symmetry_space_group_name_H-M   'P 1'
_cell_length_a   9.29924734
_cell_length_b   9.29917840
_cell_length_c   9.93993229
_cell_angle_alpha   90.01018723
_cell_angle_beta   90.01894426
_cell_angle_gamma   60.01220734
_symmetry_Int_Tables_number   1
_chemical_formula_structural   Al17BN18
_chemical_formula_sum   'Al34 B2 N36'
_cell_volume   744.49163386
_cell_formula_units_Z   2
loop_
 _symmetry_equiv_pos_site_id
 _symmetry_equiv_pos_as_xyz
  1  'x, y, z'
loop_
 _atom_site_type_symbol
 _atom_site_label
 _atom_site_symmetry_multiplicity
 _atom_site_fract_x
 _atom_site_fract_y
 _atom_site_fract_z
 _atom_site_occupancy
  Al  Al0  1  0.10781080  0.09269292  0.31370517  1
  Al  Al1  1  0.22593725  0.20004467  0.06357842  1
  Al  Al2  1  0.77770381  0.09437313  0.81501533  1
  Al  Al3  1  0.88600148  0.20266212  0.55916711  1
  Al  Al4  1  0.45217693  0.08745190  0.30918363  1
  Al  Al5  1  0.55941814  0.19933052  0.06988987  1
  Al  Al6  1  0.10933048  0.09520399  0.81324154  1
  Al  Al7  1  0.22395986  0.20477763  0.56376722  1
  Al  Al8  1  0.88754829  0.20423585  0.06965912  1
  Al  Al9  1  0.44672893  0.09251593  0.82054809  1
  Al  Al10  1  0.56028597  0.20178768  0.55964328  1
  Al  Al11  1  0.11131298  0.42798418  0.31265913  1
  Al  Al12  1  0.22241881  0.53910539  0.06282576  1
  Al  Al13  1  0.77853605  0.42600216  0.81323591  1
  Al  Al14  1  0.88811743  0.54062514  0.56375335  1
  Al  Al15  1  0.44936734  0.42450946  0.31328281  1
  Al  Al16  1  0.55719997  0.54242016  0.06300342  1
  Al  Al17  1  0.11092018  0.42758983  0.81363400  1
  Al  Al18  1  0.22217082  0.53882423  0.56339065  1
  Al  Al19  1  0.77602201  0.42448435  0.31370274  1
  Al  Al20  1  0.88336371  0.54262048  0.06357202  1
  Al  Al21  1  0.44580792  0.42581563  0.81381870  1
  Al  Al22  1  0.55496671  0.54041849  0.56386941  1
  Al  Al23  1  0.10784277  0.76603451  0.31328242  1
  Al  Al24  1  0.22573713  0.87388117  0.06300239  1
  Al  Al25  1  0.77584554  0.76339966  0.82053565  1
  Al  Al26  1  0.88512473  0.87695139  0.55963330  1
  Al  Al27  1  0.44726656  0.76393981  0.30922134  1
  Al  Al28  1  0.10914942  0.76247106  0.81380479  1
  Al  Al29  1  0.22375900  0.87162667  0.56387047  1
  Al  Al30  1  0.77077207  0.76886006  0.30916800  1
  Al  Al31  1  0.88264713  0.87610643  0.06987505  1
  Al  Al32  1  0.44574629  0.76241738  0.82001962  1
  Al  Al33  1  0.55578146  0.87244081  0.56566784  1
  B  B34  1  0.77748487  0.09413730  0.30908295  1
  B  B35  1  0.55557850  0.87224880  0.05998282  1
  N  N36  1  0.22506279  0.20400700  0.37076170  1
  N  N37  1  0.11095083  0.09429967  0.12383493  1
  N  N38  1  0.88803609  0.20469568  0.87695837  1
  N  N39  1  0.77755968  0.09420764  0.62597086  1
  N  N40  1  0.57939728  0.19215771  0.36392292  1
  N  N41  1  0.45703785  0.06881314  0.11590477  1
  N  N42  1  0.22193192  0.20513979  0.87268302  1
  N  N43  1  0.10901729  0.09562459  0.62037129  1
  N  N44  1  0.87616115  0.19281846  0.36561009  1
  N  N45  1  0.77789620  0.09457023  0.14463916  1
  N  N46  1  0.55773159  0.20476753  0.87820705  1
  N  N47  1  0.44639842  0.09403501  0.62639537  1
  N  N48  1  0.22263346  0.53928571  0.37205417  1
  N  N49  1  0.11081927  0.42749313  0.12148368  1
  N  N50  1  0.88848107  0.53859294  0.87267827  1
  N  N51  1  0.77897747  0.42567023  0.62036487  1
  N  N52  1  0.55402179  0.54195432  0.37187683  1
  N  N53  1  0.44506209  0.42800581  0.12255131  1
  N  N54  1  0.22245204  0.53910745  0.87147167  1
  N  N55  1  0.11093922  0.42759154  0.62214557  1
  N  N56  1  0.88734652  0.54173219  0.37074829  1
  N  N57  1  0.77763005  0.42762572  0.12383400  1
  N  N58  1  0.55624567  0.53802025  0.87241876  1
  N  N59  1  0.44599249  0.42520961  0.62070776  1
  N  N60  1  0.22529818  0.87067788  0.37187939  1
  N  N61  1  0.11132755  0.76173780  0.12255108  1
  N  N62  1  0.88811639  0.87438119  0.87819472  1
  N  N63  1  0.77738938  0.76304812  0.62638594  1
  N  N64  1  0.55538542  0.87203996  0.37719658  1
  N  N65  1  0.45693297  0.77360551  0.11505080  1
  N  N66  1  0.22136176  0.87289722  0.87241684  1
  N  N67  1  0.10856001  0.76263884  0.62069520  1
  N  N68  1  0.87549786  0.89606167  0.36391506  1
  N  N69  1  0.75213503  0.77371878  0.11589263  1
  N  N70  1  0.55565887  0.87232034  0.89395052  1
  N  N71  1  0.44538064  0.76202858  0.62772743  1
