# generated using pymatgen
data_Al17BN18
_symmetry_space_group_name_H-M   'P 1'
_cell_length_a   9.32689286
_cell_length_b   9.30717484
_cell_length_c   10.06630993
_cell_angle_alpha   89.68570994
_cell_angle_beta   89.96060740
_cell_angle_gamma   59.92622452
_symmetry_Int_Tables_number   1
_chemical_formula_structural   Al17BN18
_chemical_formula_sum   'Al34 B2 N36'
_cell_volume   756.17912557
_cell_formula_units_Z   2
loop_
 _symmetry_equiv_pos_site_id
 _symmetry_equiv_pos_as_xyz
  1  'x, y, z'
loop_
 _atom_site_type_symbol
 _atom_site_label
 _atom_site_symmetry_multiplicity
 _atom_site_fract_x
 _atom_site_fract_y
 _atom_site_fract_z
 _atom_site_occupancy
  Al  Al0  1  0.10709599  0.09339531  0.38766570  1
  Al  Al1  1  0.22644038  0.20008311  0.13784405  1
  Al  Al2  1  0.78028143  0.08704429  0.82044781  1
  Al  Al3  1  0.89132052  0.21002929  0.63705727  1
  Al  Al4  1  0.45113585  0.09064736  0.38073975  1
  Al  Al5  1  0.55416578  0.19980799  0.13984121  1
  Al  Al6  1  0.11136823  0.09488277  0.88817565  1
  Al  Al7  1  0.22309932  0.20514961  0.63684308  1
  Al  Al8  1  0.89321203  0.20622261  0.14011476  1
  Al  Al9  1  0.44611780  0.08956159  0.89201407  1
  Al  Al10  1  0.54676240  0.20915520  0.63641208  1
  Al  Al11  1  0.11162333  0.42658221  0.38800042  1
  Al  Al12  1  0.22522045  0.53530968  0.13915425  1
  Al  Al13  1  0.77753968  0.42765418  0.88800540  1
  Al  Al14  1  0.88628274  0.54481495  0.63491841  1
  Al  Al15  1  0.45246846  0.42112011  0.38774377  1
  Al  Al16  1  0.55779320  0.54129856  0.13769589  1
  Al  Al17  1  0.11048866  0.42880054  0.88582734  1
  Al  Al18  1  0.21877476  0.54314391  0.63575369  1
  Al  Al19  1  0.77663202  0.42219850  0.38806147  1
  Al  Al20  1  0.88485347  0.53991175  0.13799352  1
  Al  Al21  1  0.44409575  0.42744412  0.88848009  1
  Al  Al22  1  0.55420012  0.54110177  0.63729417  1
  Al  Al23  1  0.11480967  0.76277726  0.37888979  1
  Al  Al24  1  0.22916868  0.87312649  0.13819476  1
  Al  Al25  1  0.76789731  0.76081780  0.89242434  1
  Al  Al26  1  0.87877492  0.88898307  0.55669221  1
  Al  Al27  1  0.44664765  0.76171450  0.38209648  1
  Al  Al28  1  0.11696934  0.75857368  0.89008378  1
  Al  Al29  1  0.22184631  0.87202371  0.63581371  1
  Al  Al30  1  0.77142634  0.76484122  0.37083500  1
  Al  Al31  1  0.88441315  0.87361323  0.08054283  1
  Al  Al32  1  0.44651736  0.76383495  0.89001099  1
  Al  Al33  1  0.55601530  0.87273569  0.63392524  1
  B  B34  1  0.78194370  0.08852126  0.30342936  1
  B  B35  1  0.55514955  0.86988524  0.14043593  1
  N  N36  1  0.22249296  0.20468058  0.32705545  1
  N  N37  1  0.11204538  0.09421852  0.07717295  1
  N  N38  1  0.89184565  0.20843558  0.83007651  1
  N  N39  1  0.77706956  0.09364583  0.62997250  1
  N  N40  1  0.57550792  0.19507081  0.33065545  1
  N  N41  1  0.45715348  0.06873151  0.08432011  1
  N  N42  1  0.22397362  0.20481219  0.82823163  1
  N  N43  1  0.11105885  0.09534531  0.57691182  1
  N  N44  1  0.88026349  0.19591377  0.33137836  1
  N  N45  1  0.78352886  0.08651721  0.14111718  1
  N  N46  1  0.54751802  0.20753976  0.83155604  1
  N  N47  1  0.44363297  0.09395307  0.57145767  1
  N  N48  1  0.22532666  0.53533536  0.32784644  1
  N  N49  1  0.11099785  0.42769231  0.07655207  1
  N  N50  1  0.88649464  0.54245325  0.82685986  1
  N  N51  1  0.77645211  0.43051108  0.57730997  1
  N  N52  1  0.55611984  0.53841774  0.32643359  1
  N  N53  1  0.44740889  0.42458186  0.07845976  1
  N  N54  1  0.22142375  0.54050241  0.82602421  1
  N  N55  1  0.10988859  0.42898731  0.57789952  1
  N  N56  1  0.88983415  0.53547578  0.32618693  1
  N  N57  1  0.77860744  0.42574614  0.07711290  1
  N  N58  1  0.55410497  0.54089816  0.82892053  1
  N  N59  1  0.44282562  0.43009793  0.57730961  1
  N  N60  1  0.22469703  0.87369448  0.32545520  1
  N  N61  1  0.12175217  0.75637647  0.08278127  1
  N  N62  1  0.88526487  0.87458831  0.88673929  1
  N  N63  1  0.77241926  0.76263580  0.56540711  1
  N  N64  1  0.55281236  0.87273664  0.30358216  1
  N  N65  1  0.45750641  0.77267904  0.08297629  1
  N  N66  1  0.22358504  0.87194505  0.82744076  1
  N  N67  1  0.11148902  0.76273258  0.57194805  1
  N  N68  1  0.87499609  0.90177586  0.36091460  1
  N  N69  1  0.74944549  0.76934586  0.08809187  1
  N  N70  1  0.55455536  0.87316762  0.82207593  1
  N  N71  1  0.44418623  0.76307685  0.57309454  1
