# generated using pymatgen
data_Al17BN18
_symmetry_space_group_name_H-M   'P 1'
_cell_length_a   9.32870112
_cell_length_b   9.33712408
_cell_length_c   10.05807044
_cell_angle_alpha   89.71657871
_cell_angle_beta   89.62813004
_cell_angle_gamma   59.96181340
_symmetry_Int_Tables_number   1
_chemical_formula_structural   Al17BN18
_chemical_formula_sum   'Al34 B2 N36'
_cell_volume   758.40709772
_cell_formula_units_Z   2
loop_
 _symmetry_equiv_pos_site_id
 _symmetry_equiv_pos_as_xyz
  1  'x, y, z'
loop_
 _atom_site_type_symbol
 _atom_site_label
 _atom_site_symmetry_multiplicity
 _atom_site_fract_x
 _atom_site_fract_y
 _atom_site_fract_z
 _atom_site_occupancy
  Al  Al0  1  0.10558132  0.09426177  0.38817446  1
  Al  Al1  1  0.22324069  0.20079407  0.13715648  1
  Al  Al2  1  0.77315566  0.09038288  0.81894162  1
  Al  Al3  1  0.89233696  0.20877048  0.63706670  1
  Al  Al4  1  0.44788177  0.08888758  0.37107550  1
  Al  Al5  1  0.55942112  0.19822182  0.08156406  1
  Al  Al6  1  0.10976223  0.09545818  0.88731752  1
  Al  Al7  1  0.22672073  0.20360103  0.63470788  1
  Al  Al8  1  0.88893967  0.20686895  0.14189813  1
  Al  Al9  1  0.44432634  0.08534586  0.89123381  1
  Al  Al10  1  0.56814314  0.19842174  0.55989777  1
  Al  Al11  1  0.11021329  0.42688502  0.38789372  1
  Al  Al12  1  0.22261527  0.53463829  0.13718127  1
  Al  Al13  1  0.77832866  0.42654541  0.88692552  1
  Al  Al14  1  0.88776987  0.54329425  0.63445996  1
  Al  Al15  1  0.44726818  0.43096482  0.37997004  1
  Al  Al16  1  0.55712408  0.54453996  0.13738475  1
  Al  Al17  1  0.11160728  0.42642704  0.88496861  1
  Al  Al18  1  0.22390924  0.53730782  0.63340964  1
  Al  Al19  1  0.77672048  0.42330660  0.38757590  1
  Al  Al20  1  0.88360074  0.54084999  0.13666184  1
  Al  Al21  1  0.44389331  0.43180910  0.88973110  1
  Al  Al22  1  0.55491685  0.53980827  0.63547442  1
  Al  Al23  1  0.10542618  0.76849153  0.33938965  1
  Al  Al24  1  0.22922279  0.87631327  0.13542524  1
  Al  Al25  1  0.76929526  0.76032264  0.89175269  1
  Al  Al26  1  0.88910020  0.88105441  0.55831683  1
  Al  Al27  1  0.44580459  0.76321488  0.38261578  1
  Al  Al28  1  0.11164819  0.76081219  0.86153999  1
  Al  Al29  1  0.22455505  0.87200690  0.63444992  1
  Al  Al30  1  0.77096083  0.76503799  0.37225396  1
  Al  Al31  1  0.88191843  0.87705842  0.08056427  1
  Al  Al32  1  0.44833863  0.76300023  0.88899087  1
  Al  Al33  1  0.55805569  0.87288813  0.63180783  1
  B  B34  1  0.77278624  0.09373510  0.30757892  1
  B  B35  1  0.55400506  0.86997160  0.13961849  1
  N  N36  1  0.21922016  0.20636853  0.32543105  1
  N  N37  1  0.10761249  0.09619962  0.07610942  1
  N  N38  1  0.89105815  0.20757681  0.82848881  1
  N  N39  1  0.77645461  0.09096723  0.63114885  1
  N  N40  1  0.58427902  0.19255950  0.36294827  1
  N  N41  1  0.45248895  0.06551494  0.08660507  1
  N  N42  1  0.22546740  0.20336609  0.82640799  1
  N  N43  1  0.11225488  0.09476800  0.57695338  1
  N  N44  1  0.87948059  0.19732573  0.33235961  1
  N  N45  1  0.77252468  0.09103641  0.14779511  1
  N  N46  1  0.55989576  0.20092130  0.88569184  1
  N  N47  1  0.44410935  0.09039231  0.56585350  1
  N  N48  1  0.22270239  0.53497193  0.32700740  1
  N  N49  1  0.11043255  0.42655729  0.07493736  1
  N  N50  1  0.88789192  0.54166150  0.82655644  1
  N  N51  1  0.77805269  0.42874500  0.57688932  1
  N  N52  1  0.55695973  0.54178432  0.32512376  1
  N  N53  1  0.44278444  0.43479946  0.08218622  1
  N  N54  1  0.22541590  0.53468751  0.82647953  1
  N  N55  1  0.11151933  0.42667988  0.57726994  1
  N  N56  1  0.88932358  0.53685400  0.32513518  1
  N  N57  1  0.77798342  0.42544522  0.07637317  1
  N  N58  1  0.55522039  0.54068761  0.82717124  1
  N  N59  1  0.44516069  0.42970004  0.57309150  1
  N  N60  1  0.22572653  0.87655975  0.32507463  1
  N  N61  1  0.11191605  0.76210750  0.10612690  1
  N  N62  1  0.88593878  0.87619889  0.88702553  1
  N  N63  1  0.77550888  0.76038450  0.56553757  1
  N  N64  1  0.55405343  0.87091214  0.30200527  1
  N  N65  1  0.45745373  0.77279520  0.08126843  1
  N  N66  1  0.22649432  0.87289298  0.82894775  1
  N  N67  1  0.11139895  0.76163625  0.59428099  1
  N  N68  1  0.87331722  0.90306216  0.36303626  1
  N  N69  1  0.74866652  0.77011055  0.08621000  1
  N  N70  1  0.55683818  0.87210937  0.82014325  1
  N  N71  1  0.44685764  0.76185889  0.57286357  1
