# generated using pymatgen
data_Al17BN18
_symmetry_space_group_name_H-M   'P 1'
_cell_length_a   9.35233450
_cell_length_b   9.34111222
_cell_length_c   10.11822885
_cell_angle_alpha   89.67310348
_cell_angle_beta   89.68505143
_cell_angle_gamma   59.95160008
_symmetry_Int_Tables_number   1
_chemical_formula_structural   Al17BN18
_chemical_formula_sum   'Al34 B2 N36'
_cell_volume   765.12544601
_cell_formula_units_Z   2
loop_
 _symmetry_equiv_pos_site_id
 _symmetry_equiv_pos_as_xyz
  1  'x, y, z'
loop_
 _atom_site_type_symbol
 _atom_site_label
 _atom_site_symmetry_multiplicity
 _atom_site_fract_x
 _atom_site_fract_y
 _atom_site_fract_z
 _atom_site_occupancy
  Al  Al0  1  0.11037048  0.09143509  0.37397997  1
  Al  Al1  1  0.22652930  0.20193242  0.13872898  1
  Al  Al2  1  0.77586582  0.09278720  0.82179027  1
  Al  Al3  1  0.88253197  0.20606572  0.56617234  1
  Al  Al4  1  0.44975061  0.08729483  0.37641959  1
  Al  Al5  1  0.56206701  0.20028010  0.08154384  1
  Al  Al6  1  0.11491807  0.09139157  0.88261365  1
  Al  Al7  1  0.22504331  0.20471799  0.63644806  1
  Al  Al8  1  0.88400563  0.20638169  0.07501787  1
  Al  Al9  1  0.44577814  0.08508662  0.89503681  1
  Al  Al10  1  0.56365016  0.20476702  0.56281610  1
  Al  Al11  1  0.10858703  0.42505210  0.39005099  1
  Al  Al12  1  0.22508902  0.54165608  0.06826873  1
  Al  Al13  1  0.78080600  0.42189488  0.82199881  1
  Al  Al14  1  0.89156493  0.54575218  0.63588429  1
  Al  Al15  1  0.44547607  0.42129981  0.31978627  1
  Al  Al16  1  0.55339094  0.54900617  0.13678025  1
  Al  Al17  1  0.10805683  0.42480659  0.88812376  1
  Al  Al18  1  0.22526662  0.54240495  0.56989356  1
  Al  Al19  1  0.78014322  0.41785606  0.32145071  1
  Al  Al20  1  0.88859174  0.54545147  0.13875260  1
  Al  Al21  1  0.44236924  0.42118759  0.82186517  1
  Al  Al22  1  0.55213378  0.54531272  0.63496910  1
  Al  Al23  1  0.10424893  0.76265577  0.31852787  1
  Al  Al24  1  0.23042942  0.87443747  0.13817908  1
  Al  Al25  1  0.76867646  0.76195280  0.89558619  1
  Al  Al26  1  0.88831651  0.88151378  0.56260664  1
  Al  Al27  1  0.44564448  0.76158536  0.38551869  1
  Al  Al28  1  0.10420195  0.75941928  0.82117952  1
  Al  Al29  1  0.22453801  0.87622552  0.63731909  1
  Al  Al30  1  0.77066610  0.76650736  0.37688194  1
  Al  Al31  1  0.88393110  0.87922493  0.08133643  1
  Al  Al32  1  0.44700757  0.76194785  0.89242607  1
  Al  Al33  1  0.55695552  0.87443631  0.63585106  1
  B  B34  1  0.77821014  0.09524578  0.31537028  1
  B  B35  1  0.55540455  0.87220907  0.14241503  1
  N  N36  1  0.22312740  0.20737433  0.32595443  1
  N  N37  1  0.11461314  0.09302732  0.08513623  1
  N  N38  1  0.88303179  0.20543171  0.88337597  1
  N  N39  1  0.77672312  0.09423459  0.63484457  1
  N  N40  1  0.58394942  0.19344862  0.36991501  1
  N  N41  1  0.45660784  0.06528973  0.08851564  1
  N  N42  1  0.22661174  0.20430042  0.82775044  1
  N  N43  1  0.11225424  0.09519438  0.58093692  1
  N  N44  1  0.87393298  0.19328231  0.37266331  1
  N  N45  1  0.77866658  0.09539359  0.15371061  1
  N  N46  1  0.55886838  0.20492913  0.88934375  1
  N  N47  1  0.44375185  0.09131433  0.56887795  1
  N  N48  1  0.22496988  0.54210427  0.38025972  1
  N  N49  1  0.10888701  0.42425929  0.07790681  1
  N  N50  1  0.89007787  0.54582642  0.82894058  1
  N  N51  1  0.78163032  0.42317267  0.62449462  1
  N  N52  1  0.55256586  0.54352681  0.33302260  1
  N  N53  1  0.44128995  0.42503730  0.12994942  1
  N  N54  1  0.22438158  0.54113884  0.87875469  1
  N  N55  1  0.10975814  0.42502775  0.57969107  1
  N  N56  1  0.89257723  0.54175215  0.32862629  1
  N  N57  1  0.78094005  0.42373636  0.12640303  1
  N  N58  1  0.55139780  0.54435258  0.83323867  1
  N  N59  1  0.44341513  0.42115282  0.62897981  1
  N  N60  1  0.22686473  0.87157459  0.32796902  1
  N  N61  1  0.10846754  0.75828437  0.12952170  1
  N  N62  1  0.88849491  0.87621925  0.88953627  1
  N  N63  1  0.77365383  0.76218142  0.56868695  1
  N  N64  1  0.55449318  0.87078777  0.30470321  1
  N  N65  1  0.45678809  0.77338561  0.08296514  1
  N  N66  1  0.22686409  0.87138805  0.83028615  1
  N  N67  1  0.10442752  0.76108205  0.62922048  1
  N  N68  1  0.87716283  0.90138714  0.36992096  1
  N  N69  1  0.74880886  0.77325551  0.08833871  1
  N  N70  1  0.55617150  0.87229368  0.82329545  1
  N  N71  1  0.44466010  0.76391534  0.57422025  1
