# generated using pymatgen
data_Al17BN18
_symmetry_space_group_name_H-M   'P 1'
_cell_length_a   9.33667587
_cell_length_b   9.33878962
_cell_length_c   10.08814687
_cell_angle_alpha   89.68432910
_cell_angle_beta   89.60360509
_cell_angle_gamma   59.98425236
_symmetry_Int_Tables_number   1
_chemical_formula_structural   Al17BN18
_chemical_formula_sum   'Al34 B2 N36'
_cell_volume   761.63054893
_cell_formula_units_Z   2
loop_
 _symmetry_equiv_pos_site_id
 _symmetry_equiv_pos_as_xyz
  1  'x, y, z'
loop_
 _atom_site_type_symbol
 _atom_site_label
 _atom_site_symmetry_multiplicity
 _atom_site_fract_x
 _atom_site_fract_y
 _atom_site_fract_z
 _atom_site_occupancy
  Al  Al0  1  0.10564732  0.09294594  0.38882462  1
  Al  Al1  1  0.22321657  0.19972689  0.13815271  1
  Al  Al2  1  0.77360831  0.09032226  0.82014791  1
  Al  Al3  1  0.89233523  0.20947946  0.63836699  1
  Al  Al4  1  0.44799354  0.08833921  0.37159979  1
  Al  Al5  1  0.56082972  0.19630789  0.08401962  1
  Al  Al6  1  0.11032043  0.09332816  0.88811147  1
  Al  Al7  1  0.22706655  0.20426186  0.63613395  1
  Al  Al8  1  0.88900680  0.20654959  0.14260641  1
  Al  Al9  1  0.44449181  0.08546860  0.89220774  1
  Al  Al10  1  0.56905158  0.19821617  0.55952950  1
  Al  Al11  1  0.10715196  0.42483950  0.38481196  1
  Al  Al12  1  0.21850854  0.54123505  0.09385578  1
  Al  Al13  1  0.77876420  0.42640232  0.88778993  1
  Al  Al14  1  0.88734352  0.54324776  0.63568447  1
  Al  Al15  1  0.45125414  0.42864710  0.37473124  1
  Al  Al16  1  0.55828936  0.54461313  0.13865393  1
  Al  Al17  1  0.11010029  0.42524021  0.88524884  1
  Al  Al18  1  0.22160878  0.54204939  0.57924325  1
  Al  Al19  1  0.77676925  0.42326193  0.38879184  1
  Al  Al20  1  0.88163343  0.54171683  0.13746491  1
  Al  Al21  1  0.44697931  0.43057814  0.89058398  1
  Al  Al22  1  0.55566469  0.53954025  0.63710689  1
  Al  Al23  1  0.10213921  0.76788120  0.31710354  1
  Al  Al24  1  0.23025399  0.87691368  0.13677997  1
  Al  Al25  1  0.76974240  0.76061240  0.89149581  1
  Al  Al26  1  0.88903559  0.88247117  0.55903160  1
  Al  Al27  1  0.44574995  0.76314470  0.38282450  1
  Al  Al28  1  0.10623529  0.75911516  0.81900538  1
  Al  Al29  1  0.22808461  0.87550782  0.63637891  1
  Al  Al30  1  0.77152691  0.76538902  0.37369532  1
  Al  Al31  1  0.88396059  0.87697492  0.07600006  1
  Al  Al32  1  0.44684171  0.76333085  0.88945340  1
  Al  Al33  1  0.55866684  0.87320120  0.63266072  1
  B  B34  1  0.77483932  0.09201681  0.30878295  1
  B  B35  1  0.55456133  0.87031576  0.13979980  1
  N  N36  1  0.21981050  0.20476805  0.32545067  1
  N  N37  1  0.10757516  0.09516101  0.07664318  1
  N  N38  1  0.89155427  0.20760612  0.82908149  1
  N  N39  1  0.77625254  0.09168057  0.63238759  1
  N  N40  1  0.58558032  0.19081568  0.36290516  1
  N  N41  1  0.45239151  0.06508013  0.08731608  1
  N  N42  1  0.22572001  0.20273611  0.82708020  1
  N  N43  1  0.11193179  0.09541102  0.57706274  1
  N  N44  1  0.87963014  0.19738585  0.33275451  1
  N  N45  1  0.77451943  0.08841646  0.14900099  1
  N  N46  1  0.56148191  0.20002435  0.88843078  1
  N  N47  1  0.44416929  0.09072364  0.56605867  1
  N  N48  1  0.21901080  0.54224082  0.36031149  1
  N  N49  1  0.10651122  0.42364042  0.07802087  1
  N  N50  1  0.88740938  0.54182149  0.82663162  1
  N  N51  1  0.77805217  0.42895489  0.57757781  1
  N  N52  1  0.55865798  0.54231057  0.32528616  1
  N  N53  1  0.44666921  0.43166297  0.08890799  1
  N  N54  1  0.22285543  0.53912590  0.86332427  1
  N  N55  1  0.10844325  0.42466359  0.57675692  1
  N  N56  1  0.88721361  0.53789708  0.32504881  1
  N  N57  1  0.77786459  0.42497686  0.07661014  1
  N  N58  1  0.55622323  0.54054091  0.82800463  1
  N  N59  1  0.45029166  0.42810526  0.57295841  1
  N  N60  1  0.22576233  0.87575429  0.32753744  1
  N  N61  1  0.10620169  0.76444163  0.12700744  1
  N  N62  1  0.88979881  0.87445385  0.88592214  1
  N  N63  1  0.77631387  0.76048987  0.56651965  1
  N  N64  1  0.55505571  0.87061109  0.30231670  1
  N  N65  1  0.45729377  0.77231873  0.08170373  1
  N  N66  1  0.22706699  0.87313415  0.82886415  1
  N  N67  1  0.10535069  0.76423906  0.62431444  1
  N  N68  1  0.87598878  0.90262440  0.36753713  1
  N  N69  1  0.74877292  0.77081648  0.08534952  1
  N  N70  1  0.55684892  0.87223688  0.82057047  1
  N  N71  1  0.44751994  0.76144820  0.57291803  1
