# generated using pymatgen
data_Al17BN18
_symmetry_space_group_name_H-M   'P 1'
_cell_length_a   9.30330136
_cell_length_b   9.29978178
_cell_length_c   9.98180556
_cell_angle_alpha   89.83542126
_cell_angle_beta   89.95827040
_cell_angle_gamma   59.98724956
_symmetry_Int_Tables_number   1
_chemical_formula_structural   Al17BN18
_chemical_formula_sum   'Al34 B2 N36'
_cell_volume   747.81097481
_cell_formula_units_Z   2
loop_
 _symmetry_equiv_pos_site_id
 _symmetry_equiv_pos_as_xyz
  1  'x, y, z'
loop_
 _atom_site_type_symbol
 _atom_site_label
 _atom_site_symmetry_multiplicity
 _atom_site_fract_x
 _atom_site_fract_y
 _atom_site_fract_z
 _atom_site_occupancy
  Al  Al0  1  0.10661051  0.09299492  0.31280662  1
  Al  Al1  1  0.22682173  0.19886150  0.06412606  1
  Al  Al2  1  0.77735469  0.09380498  0.81587205  1
  Al  Al3  1  0.88634048  0.20281775  0.56001376  1
  Al  Al4  1  0.45149296  0.08847654  0.32026075  1
  Al  Al5  1  0.55961063  0.19803529  0.07104435  1
  Al  Al6  1  0.11060823  0.09456918  0.81395383  1
  Al  Al7  1  0.22153622  0.20658443  0.56309937  1
  Al  Al8  1  0.88722098  0.20463205  0.06843460  1
  Al  Al9  1  0.44664763  0.09317595  0.81402847  1
  Al  Al10  1  0.56114676  0.20382941  0.55959926  1
  Al  Al11  1  0.11117611  0.42811132  0.31167425  1
  Al  Al12  1  0.22223502  0.53924857  0.06187392  1
  Al  Al13  1  0.77802336  0.42735445  0.81340987  1
  Al  Al14  1  0.88983155  0.53883247  0.56202252  1
  Al  Al15  1  0.44901477  0.42446805  0.31253230  1
  Al  Al16  1  0.55744422  0.54359879  0.06302653  1
  Al  Al17  1  0.11097344  0.42747900  0.81432539  1
  Al  Al18  1  0.22238519  0.53868115  0.56425667  1
  Al  Al19  1  0.77634893  0.42362040  0.31274049  1
  Al  Al20  1  0.88174592  0.54394826  0.06333930  1
  Al  Al21  1  0.44618090  0.42577999  0.81487153  1
  Al  Al22  1  0.55536104  0.53851928  0.56238353  1
  Al  Al23  1  0.10784081  0.76552334  0.31242440  1
  Al  Al24  1  0.22638067  0.87442512  0.06305178  1
  Al  Al25  1  0.77717991  0.76287829  0.81335439  1
  Al  Al26  1  0.88695164  0.87742803  0.55864142  1
  Al  Al27  1  0.44679538  0.76356639  0.31675923  1
  Al  Al28  1  0.10931390  0.76263270  0.81420397  1
  Al  Al29  1  0.22188062  0.87192079  0.56247525  1
  Al  Al30  1  0.77143730  0.76871111  0.31677216  1
  Al  Al31  1  0.88121876  0.87690853  0.07005549  1
  Al  Al32  1  0.44538365  0.76189231  0.81291309  1
  Al  Al33  1  0.55617096  0.87187379  0.57450091  1
  B  B34  1  0.77820027  0.09444921  0.30942343  1
  B  B35  1  0.55487558  0.87310554  0.09450645  1
  N  N36  1  0.22183948  0.20503829  0.37104847  1
  N  N37  1  0.11049608  0.09444692  0.12361577  1
  N  N38  1  0.88807751  0.20475164  0.87672883  1
  N  N39  1  0.77805984  0.09397913  0.62688316  1
  N  N40  1  0.58048108  0.19311542  0.36483872  1
  N  N41  1  0.45852807  0.06533122  0.12368994  1
  N  N42  1  0.22332672  0.20470706  0.87379949  1
  N  N43  1  0.10929457  0.09522874  0.62125530  1
  N  N44  1  0.87621553  0.19268491  0.36603423  1
  N  N45  1  0.77800012  0.09491176  0.14496475  1
  N  N46  1  0.55695797  0.20425254  0.87966710  1
  N  N47  1  0.44374329  0.09980993  0.61973941  1
  N  N48  1  0.22260207  0.53880250  0.37264501  1
  N  N49  1  0.11055261  0.42776481  0.12122261  1
  N  N50  1  0.88848075  0.53956072  0.87337367  1
  N  N51  1  0.77898696  0.42600235  0.62058249  1
  N  N52  1  0.55495205  0.53964448  0.37129196  1
  N  N53  1  0.44479094  0.42821718  0.12251502  1
  N  N54  1  0.22257102  0.53899191  0.87158106  1
  N  N55  1  0.11080784  0.42766179  0.62316837  1
  N  N56  1  0.88812038  0.53961673  0.36997201  1
  N  N57  1  0.77752270  0.42775505  0.12355948  1
  N  N58  1  0.55551111  0.53906403  0.87336507  1
  N  N59  1  0.44624680  0.42543701  0.62207196  1
  N  N60  1  0.22312689  0.87139171  0.37137308  1
  N  N61  1  0.11115473  0.76168480  0.12241275  1
  N  N62  1  0.88823869  0.87307474  0.87907478  1
  N  N63  1  0.78373127  0.76002084  0.62021956  1
  N  N64  1  0.55572251  0.87094969  0.38346774  1
  N  N65  1  0.45861578  0.77593386  0.12127276  1
  N  N66  1  0.22273686  0.87164880  0.87336320  1
  N  N67  1  0.10878399  0.76259414  0.62141328  1
  N  N68  1  0.87633883  0.89683406  0.36393177  1
  N  N69  1  0.74782201  0.77618103  0.12213102  1
  N  N70  1  0.55616361  0.87193816  0.85825455  1
  N  N71  1  0.44234787  0.75877980  0.62179251  1
