# generated using pymatgen
data_Al17BN18
_symmetry_space_group_name_H-M   'P 1'
_cell_length_a   9.32649065
_cell_length_b   9.31606613
_cell_length_c   10.00872499
_cell_angle_alpha   89.65776876
_cell_angle_beta   89.93583680
_cell_angle_gamma   59.95391711
_symmetry_Int_Tables_number   1
_chemical_formula_structural   Al17BN18
_chemical_formula_sum   'Al34 B2 N36'
_cell_volume   752.74796681
_cell_formula_units_Z   2
loop_
 _symmetry_equiv_pos_site_id
 _symmetry_equiv_pos_as_xyz
  1  'x, y, z'
loop_
 _atom_site_type_symbol
 _atom_site_label
 _atom_site_symmetry_multiplicity
 _atom_site_fract_x
 _atom_site_fract_y
 _atom_site_fract_z
 _atom_site_occupancy
  Al  Al0  1  0.10556442  0.09271482  0.31204646  1
  Al  Al1  1  0.22138275  0.20151232  0.06751129  1
  Al  Al2  1  0.77804196  0.09377712  0.81568100  1
  Al  Al3  1  0.88676555  0.20305161  0.55958518  1
  Al  Al4  1  0.45056157  0.09076104  0.37609414  1
  Al  Al5  1  0.56147056  0.19970330  0.07531342  1
  Al  Al6  1  0.11048475  0.09445366  0.81355770  1
  Al  Al7  1  0.21571303  0.20980484  0.56394863  1
  Al  Al8  1  0.88677952  0.20488539  0.06773259  1
  Al  Al9  1  0.45065373  0.08514838  0.86623451  1
  Al  Al10  1  0.56451275  0.20769312  0.56179934  1
  Al  Al11  1  0.11040598  0.42869381  0.31089642  1
  Al  Al12  1  0.22189521  0.53979452  0.06146512  1
  Al  Al13  1  0.77795608  0.42769870  0.81285226  1
  Al  Al14  1  0.89009290  0.53885327  0.55992796  1
  Al  Al15  1  0.44912564  0.42443302  0.31199789  1
  Al  Al16  1  0.55763293  0.54392166  0.06276136  1
  Al  Al17  1  0.11117885  0.42768215  0.81387796  1
  Al  Al18  1  0.22251179  0.53863066  0.56417617  1
  Al  Al19  1  0.77648299  0.42363677  0.31228729  1
  Al  Al20  1  0.88068873  0.54473671  0.06291377  1
  Al  Al21  1  0.44603084  0.42605724  0.81466201  1
  Al  Al22  1  0.55537378  0.53857131  0.56046725  1
  Al  Al23  1  0.10778476  0.76525829  0.31199100  1
  Al  Al24  1  0.22620857  0.87451396  0.06294786  1
  Al  Al25  1  0.78195940  0.76056858  0.80854338  1
  Al  Al26  1  0.88775111  0.87730841  0.55713707  1
  Al  Al27  1  0.44697185  0.76344191  0.31729141  1
  Al  Al28  1  0.10935161  0.76286259  0.81361255  1
  Al  Al29  1  0.22135984  0.87169910  0.56083385  1
  Al  Al30  1  0.77062034  0.76927416  0.31709723  1
  Al  Al31  1  0.88095498  0.87721701  0.07000171  1
  Al  Al32  1  0.44322084  0.75960418  0.80833967  1
  Al  Al33  1  0.55711954  0.87034711  0.58931024  1
  B  B34  1  0.77838356  0.09507949  0.30934167  1
  B  B35  1  0.55384468  0.87424681  0.10366993  1
  N  N36  1  0.21487946  0.20736785  0.36890697  1
  N  N37  1  0.10915025  0.09374654  0.12356355  1
  N  N38  1  0.88831716  0.20480966  0.87640775  1
  N  N39  1  0.77991412  0.09333082  0.62744099  1
  N  N40  1  0.58423784  0.19454405  0.36354404  1
  N  N41  1  0.46040206  0.06088789  0.09041167  1
  N  N42  1  0.21974269  0.20643961  0.87496250  1
  N  N43  1  0.10903590  0.09458263  0.62179820  1
  N  N44  1  0.87656518  0.19259423  0.36605128  1
  N  N45  1  0.77926800  0.09451912  0.14511583  1
  N  N46  1  0.55966137  0.20640924  0.88137081  1
  N  N47  1  0.44303981  0.10261013  0.58106944  1
  N  N48  1  0.22296943  0.53792549  0.37267748  1
  N  N49  1  0.10927005  0.42962330  0.12092885  1
  N  N50  1  0.88843666  0.53971196  0.87325559  1
  N  N51  1  0.77897418  0.42632532  0.62004292  1
  N  N52  1  0.55515703  0.53874350  0.37006329  1
  N  N53  1  0.44401849  0.42961371  0.12255085  1
  N  N54  1  0.22266001  0.53895985  0.87143043  1
  N  N55  1  0.11007040  0.42859129  0.62366731  1
  N  N56  1  0.88824337  0.53936124  0.36863323  1
  N  N57  1  0.77752734  0.42766609  0.12302978  1
  N  N58  1  0.55558409  0.53926061  0.87342382  1
  N  N59  1  0.44625697  0.42673103  0.62295252  1
  N  N60  1  0.22269097  0.87116375  0.37021548  1
  N  N61  1  0.11099610  0.76164974  0.12205775  1
  N  N62  1  0.88803472  0.87289993  0.87906684  1
  N  N63  1  0.78927774  0.75741417  0.61718559  1
  N  N64  1  0.55890339  0.86387396  0.38354760  1
  N  N65  1  0.45896860  0.77650891  0.12054953  1
  N  N66  1  0.22318026  0.87152883  0.87348966  1
  N  N67  1  0.10889169  0.76266964  0.62121915  1
  N  N68  1  0.87656269  0.89688342  0.36313749  1
  N  N69  1  0.74626711  0.77715072  0.12134689  1
  N  N70  1  0.55711787  0.87064875  0.82327693  1
  N  N71  1  0.43957894  0.75616260  0.61886435  1
