# generated using pymatgen
data_Al17BN18
_symmetry_space_group_name_H-M   'P 1'
_cell_length_a   9.32588025
_cell_length_b   9.31591190
_cell_length_c   10.00155467
_cell_angle_alpha   89.67889658
_cell_angle_beta   89.93583931
_cell_angle_gamma   59.95631171
_symmetry_Int_Tables_number   1
_chemical_formula_structural   Al17BN18
_chemical_formula_sum   'Al34 B2 N36'
_cell_volume   752.16712800
_cell_formula_units_Z   2
loop_
 _symmetry_equiv_pos_site_id
 _symmetry_equiv_pos_as_xyz
  1  'x, y, z'
loop_
 _atom_site_type_symbol
 _atom_site_label
 _atom_site_symmetry_multiplicity
 _atom_site_fract_x
 _atom_site_fract_y
 _atom_site_fract_z
 _atom_site_occupancy
  Al  Al0  1  0.10565239  0.09271997  0.31198825  1
  Al  Al1  1  0.22309259  0.20050830  0.06730957  1
  Al  Al2  1  0.77824395  0.09368479  0.81572057  1
  Al  Al3  1  0.88674572  0.20302016  0.55959546  1
  Al  Al4  1  0.45054535  0.09077801  0.37221652  1
  Al  Al5  1  0.56087409  0.19884121  0.07504859  1
  Al  Al6  1  0.11029128  0.09435927  0.81363789  1
  Al  Al7  1  0.21590492  0.20964754  0.56395497  1
  Al  Al8  1  0.88680182  0.20489487  0.06790168  1
  Al  Al9  1  0.44942974  0.08766152  0.85586252  1
  Al  Al10  1  0.56440724  0.20748343  0.56164869  1
  Al  Al11  1  0.11045877  0.42864970  0.31084262  1
  Al  Al12  1  0.22197836  0.53965314  0.06159531  1
  Al  Al13  1  0.77793806  0.42770997  0.81293376  1
  Al  Al14  1  0.89013317  0.53880949  0.56008629  1
  Al  Al15  1  0.44912055  0.42446104  0.31192755  1
  Al  Al16  1  0.55760513  0.54393474  0.06289919  1
  Al  Al17  1  0.11088041  0.42799606  0.81395760  1
  Al  Al18  1  0.22249922  0.53863467  0.56418468  1
  Al  Al19  1  0.77647161  0.42364406  0.31230818  1
  Al  Al20  1  0.88077702  0.54469139  0.06306931  1
  Al  Al21  1  0.44598941  0.42635752  0.81470339  1
  Al  Al22  1  0.55535708  0.53852026  0.56060849  1
  Al  Al23  1  0.10779966  0.76528353  0.31202266  1
  Al  Al24  1  0.22631920  0.87450765  0.06304813  1
  Al  Al25  1  0.78171288  0.76065274  0.80898586  1
  Al  Al26  1  0.88772852  0.87728573  0.55727934  1
  Al  Al27  1  0.44693642  0.76343352  0.31720466  1
  Al  Al28  1  0.10933927  0.76284968  0.81371452  1
  Al  Al29  1  0.22138352  0.87169262  0.56099431  1
  Al  Al30  1  0.77074272  0.76919971  0.31703135  1
  Al  Al31  1  0.88089102  0.87719152  0.07011222  1
  Al  Al32  1  0.44334803  0.75967765  0.80875419  1
  Al  Al33  1  0.55740970  0.86970862  0.58748888  1
  B  B34  1  0.77847058  0.09499082  0.30927131  1
  B  B35  1  0.55343867  0.87515440  0.10387273  1
  N  N36  1  0.21515370  0.20731577  0.36947820  1
  N  N37  1  0.10930220  0.09390544  0.12340853  1
  N  N38  1  0.88822859  0.20487596  0.87646242  1
  N  N39  1  0.77986372  0.09335136  0.62741610  1
  N  N40  1  0.58401787  0.19457629  0.36404994  1
  N  N41  1  0.46005983  0.06159088  0.09616325  1
  N  N42  1  0.21999077  0.20633036  0.87457368  1
  N  N43  1  0.10897828  0.09460249  0.62180261  1
  N  N44  1  0.87656651  0.19259108  0.36598587  1
  N  N45  1  0.77906344  0.09463225  0.14504806  1
  N  N46  1  0.55936992  0.20623224  0.88093234  1
  N  N47  1  0.44309356  0.10234405  0.58500528  1
  N  N48  1  0.22295724  0.53795924  0.37262457  1
  N  N49  1  0.10953478  0.42920951  0.12081380  1
  N  N50  1  0.88843051  0.53966501  0.87329399  1
  N  N51  1  0.77897538  0.42629845  0.62004381  1
  N  N52  1  0.55513731  0.53879991  0.37011399  1
  N  N53  1  0.44420595  0.42924657  0.12240707  1
  N  N54  1  0.22265137  0.53896024  0.87142400  1
  N  N55  1  0.11010022  0.42857420  0.62365904  1
  N  N56  1  0.88826725  0.53935268  0.36869664  1
  N  N57  1  0.77751942  0.42769363  0.12306038  1
  N  N58  1  0.55561395  0.53920409  0.87344398  1
  N  N59  1  0.44623092  0.42666953  0.62289544  1
  N  N60  1  0.22271653  0.87123105  0.37029575  1
  N  N61  1  0.11102222  0.76163258  0.12205861  1
  N  N62  1  0.88807878  0.87292337  0.87906708  1
  N  N63  1  0.78901737  0.75750956  0.61743781  1
  N  N64  1  0.55886241  0.86404376  0.38430164  1
  N  N65  1  0.45892136  0.77649976  0.12073201  1
  N  N66  1  0.22310619  0.87152753  0.87346769  1
  N  N67  1  0.10888883  0.76264174  0.62121907  1
  N  N68  1  0.87652273  0.89692271  0.36320100  1
  N  N69  1  0.74639564  0.77709728  0.12154054  1
  N  N70  1  0.55740329  0.87000167  0.82613367  1
  N  N71  1  0.43972319  0.75624508  0.61910493  1
