# generated using pymatgen
data_Al17BN18
_symmetry_space_group_name_H-M   'P 1'
_cell_length_a   9.33567978
_cell_length_b   9.33017745
_cell_length_c   10.11809351
_cell_angle_alpha   89.65115905
_cell_angle_beta   89.75005492
_cell_angle_gamma   60.00173276
_symmetry_Int_Tables_number   1
_chemical_formula_structural   Al17BN18
_chemical_formula_sum   'Al34 B2 N36'
_cell_volume   763.24541002
_cell_formula_units_Z   2
loop_
 _symmetry_equiv_pos_site_id
 _symmetry_equiv_pos_as_xyz
  1  'x, y, z'
loop_
 _atom_site_type_symbol
 _atom_site_label
 _atom_site_symmetry_multiplicity
 _atom_site_fract_x
 _atom_site_fract_y
 _atom_site_fract_z
 _atom_site_occupancy
  Al  Al0  1  0.10216244  0.09155180  0.31930994  1
  Al  Al1  1  0.22855981  0.20354202  0.14021573  1
  Al  Al2  1  0.77633192  0.09256200  0.82384450  1
  Al  Al3  1  0.88755646  0.20306780  0.56713808  1
  Al  Al4  1  0.44899765  0.08836503  0.37769584  1
  Al  Al5  1  0.56215790  0.20019573  0.08253418  1
  Al  Al6  1  0.10820014  0.09051546  0.82105780  1
  Al  Al7  1  0.22908431  0.20640048  0.63812003  1
  Al  Al8  1  0.88733317  0.20500283  0.07365051  1
  Al  Al9  1  0.44506671  0.08634776  0.89611210  1
  Al  Al10  1  0.56464106  0.20387075  0.56415361  1
  Al  Al11  1  0.10831864  0.42496533  0.39067072  1
  Al  Al12  1  0.22429748  0.54224826  0.06921946  1
  Al  Al13  1  0.77596747  0.42359494  0.82213293  1
  Al  Al14  1  0.89095153  0.54549983  0.63786309  1
  Al  Al15  1  0.44658740  0.42293100  0.32042442  1
  Al  Al16  1  0.55641305  0.54226424  0.09401206  1
  Al  Al17  1  0.10824738  0.42423006  0.88857330  1
  Al  Al18  1  0.22496381  0.54249361  0.57181801  1
  Al  Al19  1  0.77684959  0.41853179  0.32099181  1
  Al  Al20  1  0.88737688  0.54585853  0.14028335  1
  Al  Al21  1  0.44523306  0.42448916  0.82283391  1
  Al  Al22  1  0.55801546  0.53598420  0.58152329  1
  Al  Al23  1  0.10739723  0.76530218  0.31912850  1
  Al  Al24  1  0.21972104  0.87777293  0.07376798  1
  Al  Al25  1  0.77104716  0.76136834  0.89601418  1
  Al  Al26  1  0.88834510  0.88090705  0.56444509  1
  Al  Al27  1  0.44781479  0.76399684  0.37997018  1
  Al  Al28  1  0.10924417  0.76203226  0.82205932  1
  Al  Al29  1  0.21688780  0.87664043  0.56911235  1
  Al  Al30  1  0.77174527  0.76639509  0.37749585  1
  Al  Al31  1  0.88355319  0.87923565  0.08309812  1
  Al  Al32  1  0.45191611  0.76295649  0.89067238  1
  Al  Al33  1  0.55740209  0.87357213  0.63707164  1
  B  B34  1  0.77794586  0.09455257  0.31731789  1
  B  B35  1  0.55316237  0.87177416  0.14337626  1
  N  N36  1  0.22421096  0.20801510  0.32919188  1
  N  N37  1  0.10612012  0.09390045  0.13085899  1
  N  N38  1  0.88882497  0.20358592  0.88485899  1
  N  N39  1  0.77731381  0.09371038  0.63621942  1
  N  N40  1  0.58444390  0.19332566  0.37105793  1
  N  N41  1  0.45532175  0.06619173  0.08868931  1
  N  N42  1  0.22878014  0.20516486  0.82977632  1
  N  N43  1  0.10683361  0.09360527  0.62979957  1
  N  N44  1  0.87700270  0.19304576  0.37642691  1
  N  N45  1  0.77839802  0.09592662  0.15464766  1
  N  N46  1  0.55931814  0.20563465  0.89035931  1
  N  N47  1  0.44438051  0.09083229  0.56954925  1
  N  N48  1  0.22461479  0.54298714  0.38136764  1
  N  N49  1  0.10785008  0.42465709  0.07853494  1
  N  N50  1  0.88959328  0.54515488  0.82944323  1
  N  N51  1  0.77969754  0.42227019  0.62831092  1
  N  N52  1  0.55625512  0.53584668  0.36775217  1
  N  N53  1  0.44150716  0.42634876  0.13309188  1
  N  N54  1  0.22475088  0.54150437  0.87901825  1
  N  N55  1  0.10913743  0.42504194  0.58042430  1
  N  N56  1  0.89164359  0.54167573  0.32938003  1
  N  N57  1  0.77882199  0.42300500  0.13069653  1
  N  N58  1  0.55606659  0.53662625  0.87380237  1
  N  N59  1  0.44552021  0.42259974  0.63118857  1
  N  N60  1  0.21612519  0.87529087  0.37878143  1
  N  N61  1  0.11097936  0.76048761  0.13243110  1
  N  N62  1  0.89072574  0.87528005  0.89042055  1
  N  N63  1  0.77470829  0.76133452  0.56957999  1
  N  N64  1  0.55487422  0.87226887  0.30476351  1
  N  N65  1  0.45733106  0.77653573  0.08896748  1
  N  N66  1  0.22008030  0.87276931  0.88297826  1
  N  N67  1  0.10778830  0.76324715  0.63171861  1
  N  N68  1  0.87739118  0.90113676  0.37056389  1
  N  N69  1  0.74928443  0.77285108  0.08867132  1
  N  N70  1  0.55764520  0.87342902  0.82373498  1
  N  N71  1  0.44826661  0.76493716  0.57683721  1
