# generated using pymatgen
data_Al17BN18
_symmetry_space_group_name_H-M   'P 1'
_cell_length_a   9.34252562
_cell_length_b   9.34248798
_cell_length_c   10.16687252
_cell_angle_alpha   89.69074045
_cell_angle_beta   89.68912301
_cell_angle_gamma   59.95637548
_symmetry_Int_Tables_number   1
_chemical_formula_structural   Al17BN18
_chemical_formula_sum   'Al34 B2 N36'
_cell_volume   768.14869951
_cell_formula_units_Z   2
loop_
 _symmetry_equiv_pos_site_id
 _symmetry_equiv_pos_as_xyz
  1  'x, y, z'
loop_
 _atom_site_type_symbol
 _atom_site_label
 _atom_site_symmetry_multiplicity
 _atom_site_fract_x
 _atom_site_fract_y
 _atom_site_fract_z
 _atom_site_occupancy
  Al  Al0  1  0.10139981  0.09649633  0.32144672  1
  Al  Al1  1  0.22889574  0.20467710  0.13916705  1
  Al  Al2  1  0.77603048  0.09261549  0.82215454  1
  Al  Al3  1  0.88734726  0.20420362  0.56552568  1
  Al  Al4  1  0.44973855  0.08704988  0.37728626  1
  Al  Al5  1  0.56298982  0.20028032  0.08141677  1
  Al  Al6  1  0.10571491  0.09705555  0.82226743  1
  Al  Al7  1  0.22905739  0.20802801  0.63646517  1
  Al  Al8  1  0.88830680  0.20480952  0.07269808  1
  Al  Al9  1  0.44531595  0.08506402  0.89598387  1
  Al  Al10  1  0.56499191  0.20469689  0.56270655  1
  Al  Al11  1  0.10831412  0.42507020  0.39051054  1
  Al  Al12  1  0.22493985  0.54169151  0.06816213  1
  Al  Al13  1  0.78044147  0.42236747  0.82288871  1
  Al  Al14  1  0.89129534  0.54563396  0.63663260  1
  Al  Al15  1  0.44534097  0.42113717  0.31954925  1
  Al  Al16  1  0.55354099  0.54855175  0.13713477  1
  Al  Al17  1  0.10797605  0.42457838  0.88937655  1
  Al  Al18  1  0.22542949  0.54203863  0.56928769  1
  Al  Al19  1  0.77975386  0.41810266  0.32125860  1
  Al  Al20  1  0.88796901  0.54557213  0.13899616  1
  Al  Al21  1  0.44203786  0.42103018  0.82222402  1
  Al  Al22  1  0.55294316  0.54431492  0.63611739  1
  Al  Al23  1  0.10446054  0.76206062  0.31972007  1
  Al  Al24  1  0.23184768  0.87028600  0.13729279  1
  Al  Al25  1  0.76842762  0.76205141  0.89600413  1
  Al  Al26  1  0.88794905  0.88165178  0.56268285  1
  Al  Al27  1  0.44525584  0.76174589  0.38583679  1
  Al  Al28  1  0.10447677  0.75877035  0.82204837  1
  Al  Al29  1  0.22763063  0.86959359  0.63542591  1
  Al  Al30  1  0.77039385  0.76635123  0.37726058  1
  Al  Al31  1  0.88367515  0.87964888  0.08143997  1
  Al  Al32  1  0.44585097  0.76267580  0.89312068  1
  Al  Al33  1  0.55742416  0.87401397  0.63656805  1
  B  B34  1  0.77781714  0.09454543  0.31614877  1
  B  B35  1  0.55550266  0.87221744  0.14254920  1
  N  N36  1  0.22529816  0.20914822  0.32815585  1
  N  N37  1  0.10632191  0.09758774  0.12648891  1
  N  N38  1  0.88743244  0.20382870  0.88461947  1
  N  N39  1  0.77757692  0.09422662  0.63533019  1
  N  N40  1  0.58487978  0.19342283  0.37057861  1
  N  N41  1  0.45659841  0.06515135  0.08811472  1
  N  N42  1  0.22932327  0.20687775  0.82877168  1
  N  N43  1  0.10562300  0.09879006  0.62524038  1
  N  N44  1  0.87658673  0.19339594  0.37573402  1
  N  N45  1  0.77906372  0.09573986  0.15424015  1
  N  N46  1  0.55970503  0.20492573  0.89023570  1
  N  N47  1  0.44513499  0.09032127  0.56846600  1
  N  N48  1  0.22518665  0.54182420  0.38090887  1
  N  N49  1  0.10819040  0.42481449  0.07776873  1
  N  N50  1  0.89021866  0.54598836  0.82895818  1
  N  N51  1  0.78206099  0.42228460  0.62553534  1
  N  N52  1  0.55247293  0.54363357  0.33230251  1
  N  N53  1  0.44085027  0.42472038  0.13055641  1
  N  N54  1  0.22430744  0.54107079  0.87980350  1
  N  N55  1  0.10895787  0.42571873  0.57886678  1
  N  N56  1  0.89243439  0.54192819  0.32800187  1
  N  N57  1  0.78086274  0.42304549  0.12604792  1
  N  N58  1  0.55128464  0.54438971  0.83344731  1
  N  N59  1  0.44313778  0.42071418  0.62987477  1
  N  N60  1  0.22691271  0.86920332  0.33276708  1
  N  N61  1  0.10809167  0.75756881  0.13071305  1
  N  N62  1  0.88840507  0.87629941  0.89022309  1
  N  N63  1  0.77372614  0.76167090  0.56847502  1
  N  N64  1  0.55432283  0.87098912  0.30442039  1
  N  N65  1  0.45663376  0.77342420  0.08298393  1
  N  N66  1  0.22775539  0.86799534  0.83317104  1
  N  N67  1  0.10403499  0.75981949  0.62967998  1
  N  N68  1  0.87667064  0.90158794  0.37059123  1
  N  N69  1  0.74846016  0.77334312  0.08809914  1
  N  N70  1  0.55584003  0.87246096  0.82337930  1
  N  N71  1  0.44625542  0.76264840  0.57393949  1
