# generated using pymatgen
data_Al17BN18
_symmetry_space_group_name_H-M   'P 1'
_cell_length_a   9.32383552
_cell_length_b   9.31219693
_cell_length_c   10.03450607
_cell_angle_alpha   89.60078159
_cell_angle_beta   89.94441329
_cell_angle_gamma   59.94642470
_symmetry_Int_Tables_number   1
_chemical_formula_structural   Al17BN18
_chemical_formula_sum   'Al34 B2 N36'
_cell_volume   754.09540322
_cell_formula_units_Z   2
loop_
 _symmetry_equiv_pos_site_id
 _symmetry_equiv_pos_as_xyz
  1  'x, y, z'
loop_
 _atom_site_type_symbol
 _atom_site_label
 _atom_site_symmetry_multiplicity
 _atom_site_fract_x
 _atom_site_fract_y
 _atom_site_fract_z
 _atom_site_occupancy
  Al  Al0  1  0.10729061  0.09250948  0.39576533  1
  Al  Al1  1  0.22581746  0.20129904  0.14664171  1
  Al  Al2  1  0.77813832  0.09223671  0.85651297  1
  Al  Al3  1  0.89072045  0.20792884  0.65023681  1
  Al  Al4  1  0.45207189  0.08971418  0.38880113  1
  Al  Al5  1  0.56262289  0.19716996  0.14195166  1
  Al  Al6  1  0.11199323  0.09471101  0.89814116  1
  Al  Al7  1  0.22374868  0.20409774  0.64540014  1
  Al  Al8  1  0.88700878  0.20325445  0.14175771  1
  Al  Al9  1  0.44584219  0.08906477  0.90175900  1
  Al  Al10  1  0.54975126  0.20698173  0.65003893  1
  Al  Al11  1  0.11151275  0.42692073  0.39734850  1
  Al  Al12  1  0.22340953  0.53745031  0.14757531  1
  Al  Al13  1  0.77807291  0.42729302  0.89835421  1
  Al  Al14  1  0.88695181  0.54190822  0.64395574  1
  Al  Al15  1  0.45247434  0.42241029  0.39593810  1
  Al  Al16  1  0.55708737  0.54266999  0.14624755  1
  Al  Al17  1  0.11088539  0.42793049  0.89437764  1
  Al  Al18  1  0.22113099  0.54028349  0.64481240  1
  Al  Al19  1  0.77549743  0.42336300  0.39607024  1
  Al  Al20  1  0.88445673  0.54189430  0.14645013  1
  Al  Al21  1  0.44396091  0.42700457  0.89890618  1
  Al  Al22  1  0.55508478  0.53947587  0.64607358  1
  Al  Al23  1  0.11398526  0.76422690  0.39007036  1
  Al  Al24  1  0.22811439  0.87388824  0.14641641  1
  Al  Al25  1  0.76882881  0.75824566  0.89772008  1
  Al  Al26  1  0.88079067  0.88519191  0.58031794  1
  Al  Al27  1  0.44647358  0.76209738  0.39104237  1
  Al  Al28  1  0.11831059  0.75616511  0.89572551  1
  Al  Al29  1  0.22227471  0.87215659  0.64504492  1
  Al  Al30  1  0.77096714  0.76620807  0.38206513  1
  Al  Al31  1  0.88260636  0.87658715  0.08008022  1
  Al  Al32  1  0.44664169  0.76336404  0.89891411  1
  Al  Al33  1  0.55572012  0.87280428  0.64290367  1
  B  B34  1  0.77868494  0.09437314  0.35069037  1
  B  B35  1  0.55495990  0.87142703  0.14891426  1
  N  N36  1  0.22231444  0.20530154  0.33637970  1
  N  N37  1  0.11111208  0.09550459  0.08825805  1
  N  N38  1  0.89415116  0.21009745  0.83960119  1
  N  N39  1  0.77731734  0.09356971  0.64307032  1
  N  N40  1  0.58608200  0.19055693  0.33806748  1
  N  N41  1  0.45670844  0.06963182  0.09530036  1
  N  N42  1  0.22451652  0.20377121  0.83729698  1
  N  N43  1  0.11010555  0.09531951  0.58484103  1
  N  N44  1  0.87443094  0.19133147  0.33880675  1
  N  N45  1  0.77551404  0.10132490  0.08277156  1
  N  N46  1  0.54398046  0.20887615  0.84127149  1
  N  N47  1  0.44502685  0.09397648  0.57938602  1
  N  N48  1  0.22438061  0.53662306  0.33723198  1
  N  N49  1  0.11053806  0.42862533  0.08558956  1
  N  N50  1  0.88695191  0.53974806  0.83540134  1
  N  N51  1  0.77741585  0.42798175  0.58508136  1
  N  N52  1  0.55565673  0.53938777  0.33538782  1
  N  N53  1  0.44537104  0.42694345  0.08972742  1
  N  N54  1  0.22353902  0.53794310  0.83474066  1
  N  N55  1  0.11045233  0.42809405  0.58705303  1
  N  N56  1  0.88962381  0.53668593  0.33556913  1
  N  N57  1  0.77837459  0.42780641  0.08828561  1
  N  N58  1  0.55448069  0.54008290  0.83837833  1
  N  N59  1  0.44458765  0.42751746  0.58526465  1
  N  N60  1  0.22433895  0.87358185  0.33451814  1
  N  N61  1  0.11926353  0.75878463  0.09053278  1
  N  N62  1  0.89078155  0.86301671  0.88221616  1
  N  N63  1  0.77319267  0.76085130  0.57556729  1
  N  N64  1  0.55344350  0.87267915  0.31306840  1
  N  N65  1  0.45691193  0.77382007  0.09215288  1
  N  N66  1  0.22411063  0.87186946  0.83658003  1
  N  N67  1  0.11311082  0.76086412  0.58206329  1
  N  N68  1  0.87201367  0.90777853  0.37268777  1
  N  N69  1  0.74903002  0.77174639  0.09582575  1
  N  N70  1  0.55379523  0.87305707  0.83097651  1
  N  N71  1  0.44465899  0.76231108  0.58212809  1
