# generated using pymatgen
data_Al17BN18
_symmetry_space_group_name_H-M   'P 1'
_cell_length_a   9.32488691
_cell_length_b   9.32354462
_cell_length_c   10.11560033
_cell_angle_alpha   89.60820168
_cell_angle_beta   89.60017793
_cell_angle_gamma   60.02843240
_symmetry_Int_Tables_number   1
_chemical_formula_structural   Al17BN18
_chemical_formula_sum   'Al34 B2 N36'
_cell_volume   761.82891206
_cell_formula_units_Z   2
loop_
 _symmetry_equiv_pos_site_id
 _symmetry_equiv_pos_as_xyz
  1  'x, y, z'
loop_
 _atom_site_type_symbol
 _atom_site_label
 _atom_site_symmetry_multiplicity
 _atom_site_fract_x
 _atom_site_fract_y
 _atom_site_fract_z
 _atom_site_occupancy
  Al  Al0  1  0.10576576  0.09233609  0.38924428  1
  Al  Al1  1  0.22307100  0.20063168  0.13848906  1
  Al  Al2  1  0.77428530  0.08998913  0.81984993  1
  Al  Al3  1  0.89242396  0.20930919  0.63838828  1
  Al  Al4  1  0.44803448  0.08727406  0.37318411  1
  Al  Al5  1  0.56000606  0.19765343  0.08477972  1
  Al  Al6  1  0.11060640  0.09317477  0.88839892  1
  Al  Al7  1  0.22774357  0.20492941  0.63551011  1
  Al  Al8  1  0.88926815  0.20630507  0.14306998  1
  Al  Al9  1  0.44459514  0.08547640  0.89348949  1
  Al  Al10  1  0.56677879  0.20402543  0.55802433  1
  Al  Al11  1  0.10599754  0.42435691  0.38609009  1
  Al  Al12  1  0.21902809  0.54395934  0.07318490  1
  Al  Al13  1  0.77969171  0.42637914  0.88855412  1
  Al  Al14  1  0.88840106  0.54318830  0.63541225  1
  Al  Al15  1  0.44805059  0.42407057  0.33372916  1
  Al  Al16  1  0.55931999  0.54599551  0.13815097  1
  Al  Al17  1  0.10840521  0.42389154  0.88595055  1
  Al  Al18  1  0.22505730  0.54288970  0.56548558  1
  Al  Al19  1  0.77578879  0.42295947  0.38986316  1
  Al  Al20  1  0.88236563  0.54152900  0.13818889  1
  Al  Al21  1  0.44815921  0.42658994  0.86146687  1
  Al  Al22  1  0.55627272  0.54029016  0.63652139  1
  Al  Al23  1  0.10243822  0.76600489  0.31599715  1
  Al  Al24  1  0.22974971  0.87672803  0.13746566  1
  Al  Al25  1  0.76960126  0.76088184  0.89207240  1
  Al  Al26  1  0.88940308  0.88214695  0.55976017  1
  Al  Al27  1  0.44538984  0.76242310  0.38361828  1
  Al  Al28  1  0.10583957  0.75943722  0.81835338  1
  Al  Al29  1  0.22805012  0.87482638  0.63677098  1
  Al  Al30  1  0.77118235  0.76532437  0.37443213  1
  Al  Al31  1  0.88406906  0.87669168  0.07683514  1
  Al  Al32  1  0.44658694  0.76460620  0.89022239  1
  Al  Al33  1  0.55864262  0.87415539  0.63270175  1
  B  B34  1  0.77604646  0.09105734  0.30920563  1
  B  B35  1  0.55429578  0.87076327  0.14009303  1
  N  N36  1  0.22005330  0.20496583  0.32538125  1
  N  N37  1  0.10768753  0.09500491  0.07656083  1
  N  N38  1  0.89185732  0.20791105  0.82890597  1
  N  N39  1  0.77554869  0.09169163  0.63256817  1
  N  N40  1  0.58533971  0.19098196  0.36356045  1
  N  N41  1  0.45248858  0.06491562  0.08719875  1
  N  N42  1  0.22666628  0.20310453  0.82666900  1
  N  N43  1  0.11220015  0.09495142  0.57709174  1
  N  N44  1  0.87971487  0.19708834  0.33279230  1
  N  N45  1  0.77455662  0.08793875  0.14970519  1
  N  N46  1  0.56192119  0.20181898  0.89166797  1
  N  N47  1  0.44467042  0.09104750  0.56555365  1
  N  N48  1  0.21923649  0.54426720  0.37246127  1
  N  N49  1  0.10557119  0.42364766  0.07764255  1
  N  N50  1  0.88776062  0.54257439  0.82620486  1
  N  N51  1  0.77849344  0.42890612  0.57780148  1
  N  N52  1  0.55930821  0.54283674  0.32615104  1
  N  N53  1  0.44315732  0.42805330  0.11676029  1
  N  N54  1  0.22247010  0.54285728  0.88006093  1
  N  N55  1  0.10864695  0.42508164  0.57734269  1
  N  N56  1  0.88700026  0.53785929  0.32522459  1
  N  N57  1  0.77800920  0.42472282  0.07651340  1
  N  N58  1  0.55803027  0.54288651  0.82982781  1
  N  N59  1  0.44811704  0.42554650  0.59905809  1
  N  N60  1  0.22541170  0.87529001  0.32744885  1
  N  N61  1  0.10678829  0.76204575  0.12795197  1
  N  N62  1  0.89011463  0.87459730  0.88687298  1
  N  N63  1  0.77604001  0.76050134  0.56652388  1
  N  N64  1  0.55484149  0.87048547  0.30227856  1
  N  N65  1  0.45640271  0.77283311  0.08156461  1
  N  N66  1  0.22719550  0.87315639  0.82890245  1
  N  N67  1  0.10598595  0.76146005  0.62680618  1
  N  N68  1  0.87671839  0.90205853  0.36814787  1
  N  N69  1  0.74838955  0.77072851  0.08536049  1
  N  N70  1  0.55699727  0.87335839  0.82063439  1
  N  N71  1  0.44726418  0.76208501  0.57310101  1
