# generated using pymatgen
data_Al17BN18
_symmetry_space_group_name_H-M   'P 1'
_cell_length_a   9.32712405
_cell_length_b   9.33835124
_cell_length_c   10.06709887
_cell_angle_alpha   89.71125650
_cell_angle_beta   89.62678313
_cell_angle_gamma   59.95582610
_symmetry_Int_Tables_number   1
_chemical_formula_structural   Al17BN18
_chemical_formula_sum   'Al34 B2 N36'
_cell_volume   759.01315934
_cell_formula_units_Z   2
loop_
 _symmetry_equiv_pos_site_id
 _symmetry_equiv_pos_as_xyz
  1  'x, y, z'
loop_
 _atom_site_type_symbol
 _atom_site_label
 _atom_site_symmetry_multiplicity
 _atom_site_fract_x
 _atom_site_fract_y
 _atom_site_fract_z
 _atom_site_occupancy
  Al  Al0  1  0.10376338  0.08993311  0.32366389  1
  Al  Al1  1  0.23020852  0.19697619  0.13355655  1
  Al  Al2  1  0.77500334  0.09382382  0.82705633  1
  Al  Al3  1  0.88510342  0.20371524  0.56975802  1
  Al  Al4  1  0.45033146  0.08995583  0.37952337  1
  Al  Al5  1  0.56222905  0.20168695  0.08641063  1
  Al  Al6  1  0.10758876  0.09352818  0.82434799  1
  Al  Al7  1  0.22518069  0.20432709  0.61861641  1
  Al  Al8  1  0.88758493  0.20350300  0.07639197  1
  Al  Al9  1  0.44334972  0.08594500  0.90077374  1
  Al  Al10  1  0.56392351  0.20642090  0.56703661  1
  Al  Al11  1  0.11057585  0.43276647  0.32184893  1
  Al  Al12  1  0.22310164  0.53983620  0.07106723  1
  Al  Al13  1  0.77832451  0.42695354  0.82331899  1
  Al  Al14  1  0.88962157  0.53468902  0.56886112  1
  Al  Al15  1  0.44986906  0.42569998  0.32223891  1
  Al  Al16  1  0.55662856  0.54336285  0.07137205  1
  Al  Al17  1  0.10823760  0.43178048  0.82542121  1
  Al  Al18  1  0.22163644  0.54041792  0.57371109  1
  Al  Al19  1  0.77619180  0.42218005  0.32143370  1
  Al  Al20  1  0.88623470  0.53556718  0.07896442  1
  Al  Al21  1  0.44564662  0.42341373  0.82442464  1
  Al  Al22  1  0.55500715  0.54014736  0.57199327  1
  Al  Al23  1  0.11014568  0.76590269  0.32165384  1
  Al  Al24  1  0.22774938  0.87257216  0.07075831  1
  Al  Al25  1  0.76502028  0.76844593  0.89922587  1
  Al  Al26  1  0.88906932  0.88136314  0.56767091  1
  Al  Al27  1  0.44453546  0.75984170  0.31697197  1
  Al  Al28  1  0.10665754  0.76311928  0.82408815  1
  Al  Al29  1  0.22352085  0.87142963  0.57138489  1
  Al  Al30  1  0.77380124  0.76865632  0.37732618  1
  Al  Al31  1  0.88549250  0.87782929  0.08789158  1
  Al  Al32  1  0.44116030  0.75787275  0.82175752  1
  Al  Al33  1  0.56036051  0.87616665  0.63986663  1
  B  B34  1  0.77912514  0.09670549  0.31932698  1
  B  B35  1  0.56045790  0.87284945  0.15107634  1
  N  N36  1  0.22388981  0.20336249  0.34164878  1
  N  N37  1  0.10748754  0.09005032  0.13282331  1
  N  N38  1  0.88623883  0.20500974  0.88621954  1
  N  N39  1  0.77632162  0.09463015  0.63881149  1
  N  N40  1  0.58459035  0.19643988  0.37291319  1
  N  N41  1  0.45921997  0.06387178  0.09442946  1
  N  N42  1  0.22473185  0.20375004  0.84919695  1
  N  N43  1  0.10612069  0.09324213  0.62941985  1
  N  N44  1  0.87577177  0.19403359  0.37760833  1
  N  N45  1  0.77907193  0.09581679  0.15697084  1
  N  N46  1  0.55757961  0.20640839  0.89339284  1
  N  N47  1  0.44615151  0.09097028  0.57146236  1
  N  N48  1  0.22301971  0.54023235  0.38393982  1
  N  N49  1  0.11054996  0.43199019  0.13085745  1
  N  N50  1  0.88798511  0.53697116  0.88603409  1
  N  N51  1  0.77812948  0.42603077  0.63178988  1
  N  N52  1  0.55537081  0.54127600  0.38262532  1
  N  N53  1  0.44407081  0.42978218  0.13386476  1
  N  N54  1  0.22195995  0.54018658  0.88182755  1
  N  N55  1  0.10704270  0.43384027  0.63202686  1
  N  N56  1  0.89060892  0.53181228  0.37665287  1
  N  N57  1  0.77634390  0.42494159  0.13384576  1
  N  N58  1  0.55528180  0.53798355  0.88210937  1
  N  N59  1  0.44538664  0.42500704  0.63243524  1
  N  N60  1  0.22585736  0.87035873  0.38276660  1
  N  N61  1  0.11417756  0.76034625  0.13353650  1
  N  N62  1  0.88928014  0.87631530  0.89311583  1
  N  N63  1  0.77334688  0.76584145  0.57295849  1
  N  N64  1  0.56068865  0.87609263  0.31092416  1
  N  N65  1  0.45394273  0.76932347  0.12663202  1
  N  N66  1  0.22128762  0.87169667  0.88213374  1
  N  N67  1  0.10795858  0.76338124  0.63253983  1
  N  N68  1  0.88092188  0.90120369  0.37235054  1
  N  N69  1  0.74896253  0.77420447  0.09589554  1
  N  N70  1  0.55693121  0.87581424  0.82764174  1
  N  N71  1  0.44227131  0.75912941  0.63048824  1
