# generated using pymatgen
data_Al17BN18
_symmetry_space_group_name_H-M   'P 1'
_cell_length_a   9.35587537
_cell_length_b   9.34975588
_cell_length_c   10.11543015
_cell_angle_alpha   89.66983914
_cell_angle_beta   89.66747421
_cell_angle_gamma   59.94571801
_symmetry_Int_Tables_number   1
_chemical_formula_structural   Al17BN18
_chemical_formula_sum   'Al34 B2 N36'
_cell_volume   765.86495641
_cell_formula_units_Z   2
loop_
 _symmetry_equiv_pos_site_id
 _symmetry_equiv_pos_as_xyz
  1  'x, y, z'
loop_
 _atom_site_type_symbol
 _atom_site_label
 _atom_site_symmetry_multiplicity
 _atom_site_fract_x
 _atom_site_fract_y
 _atom_site_fract_z
 _atom_site_occupancy
  Al  Al0  1  0.10549647  0.09429284  0.34434371  1
  Al  Al1  1  0.22767866  0.20331842  0.13841077  1
  Al  Al2  1  0.77566008  0.09259512  0.82168065  1
  Al  Al3  1  0.88569935  0.20468309  0.56594320  1
  Al  Al4  1  0.44985516  0.08713058  0.37696696  1
  Al  Al5  1  0.56234121  0.20035757  0.08165035  1
  Al  Al6  1  0.11080943  0.09391709  0.85530441  1
  Al  Al7  1  0.22615775  0.20576998  0.63622449  1
  Al  Al8  1  0.88577511  0.20578811  0.07478052  1
  Al  Al9  1  0.44614779  0.08482103  0.89560666  1
  Al  Al10  1  0.56412241  0.20475285  0.56289730  1
  Al  Al11  1  0.10848749  0.42519099  0.39048795  1
  Al  Al12  1  0.22510549  0.54164746  0.06833273  1
  Al  Al13  1  0.78046521  0.42228641  0.82206096  1
  Al  Al14  1  0.89141714  0.54562167  0.63584579  1
  Al  Al15  1  0.44543631  0.42129559  0.31986991  1
  Al  Al16  1  0.55353257  0.54881166  0.13682247  1
  Al  Al17  1  0.10793149  0.42516363  0.88864411  1
  Al  Al18  1  0.22529897  0.54233439  0.56988972  1
  Al  Al19  1  0.77960047  0.41848002  0.32172291  1
  Al  Al20  1  0.88837038  0.54540496  0.13877995  1
  Al  Al21  1  0.44235831  0.42114616  0.82191386  1
  Al  Al22  1  0.55249037  0.54491770  0.63490081  1
  Al  Al23  1  0.10436293  0.76207821  0.31895739  1
  Al  Al24  1  0.23136547  0.87206967  0.13729179  1
  Al  Al25  1  0.76864450  0.76194277  0.89564206  1
  Al  Al26  1  0.88823504  0.88171864  0.56273578  1
  Al  Al27  1  0.44561833  0.76160395  0.38594553  1
  Al  Al28  1  0.10421545  0.75879353  0.82150318  1
  Al  Al29  1  0.22557692  0.87393081  0.63650348  1
  Al  Al30  1  0.77062480  0.76649483  0.37694977  1
  Al  Al31  1  0.88385012  0.87938291  0.08146633  1
  Al  Al32  1  0.44730922  0.76173279  0.89290874  1
  Al  Al33  1  0.55703374  0.87440854  0.63599148  1
  B  B34  1  0.77765027  0.09489860  0.31528721  1
  B  B35  1  0.55551801  0.87216520  0.14266314  1
  N  N36  1  0.22446590  0.20853011  0.32708400  1
  N  N37  1  0.11036492  0.09539470  0.10674307  1
  N  N38  1  0.88402777  0.20506914  0.88435833  1
  N  N39  1  0.77688632  0.09442278  0.63476201  1
  N  N40  1  0.58424130  0.19337541  0.36992026  1
  N  N41  1  0.45684422  0.06520724  0.08854718  1
  N  N42  1  0.22827781  0.20564478  0.82913857  1
  N  N43  1  0.10901308  0.09704137  0.60304844  1
  N  N44  1  0.87449483  0.19351132  0.37349906  1
  N  N45  1  0.77854733  0.09554381  0.15370119  1
  N  N46  1  0.55916048  0.20493280  0.88947199  1
  N  N47  1  0.44430089  0.09114549  0.56905084  1
  N  N48  1  0.22498423  0.54187796  0.38030591  1
  N  N49  1  0.10864897  0.42482914  0.07806440  1
  N  N50  1  0.89008506  0.54571149  0.82909630  1
  N  N51  1  0.78160035  0.42300627  0.62438782  1
  N  N52  1  0.55244395  0.54353576  0.33314798  1
  N  N53  1  0.44122956  0.42504929  0.13000087  1
  N  N54  1  0.22444234  0.54092014  0.87885603  1
  N  N55  1  0.10963900  0.42548491  0.57984693  1
  N  N56  1  0.89253268  0.54171409  0.32870472  1
  N  N57  1  0.78068999  0.42379011  0.12622218  1
  N  N58  1  0.55148514  0.54414767  0.83345060  1
  N  N59  1  0.44339239  0.42113813  0.62900693  1
  N  N60  1  0.22758621  0.86914903  0.33006565  1
  N  N61  1  0.10836069  0.75793545  0.12964099  1
  N  N62  1  0.88837135  0.87624127  0.88953601  1
  N  N63  1  0.77375373  0.76215237  0.56877078  1
  N  N64  1  0.55436623  0.87084858  0.30485254  1
  N  N65  1  0.45709385  0.77330377  0.08315086  1
  N  N66  1  0.22798206  0.86846808  0.83256841  1
  N  N67  1  0.10440307  0.76063531  0.62935886  1
  N  N68  1  0.87698655  0.90143689  0.36987485  1
  N  N69  1  0.74880720  0.77327985  0.08844093  1
  N  N70  1  0.55604644  0.87230922  0.82347173  1
  N  N71  1  0.44530481  0.76351310  0.57447273  1
