# generated using pymatgen
data_Al17BN18
_symmetry_space_group_name_H-M   'P 1'
_cell_length_a   9.29943237
_cell_length_b   9.29943351
_cell_length_c   9.93896992
_cell_angle_alpha   90.02508969
_cell_angle_beta   90.02508004
_cell_angle_gamma   60.01364113
_symmetry_Int_Tables_number   1
_chemical_formula_structural   Al17BN18
_chemical_formula_sum   'Al34 B2 N36'
_cell_volume   744.46548342
_cell_formula_units_Z   2
loop_
 _symmetry_equiv_pos_site_id
 _symmetry_equiv_pos_as_xyz
  1  'x, y, z'
loop_
 _atom_site_type_symbol
 _atom_site_label
 _atom_site_symmetry_multiplicity
 _atom_site_fract_x
 _atom_site_fract_y
 _atom_site_fract_z
 _atom_site_occupancy
  Al  Al0  1  0.10782785  0.09268148  0.29658761  1
  Al  Al1  1  0.22590012  0.20005127  0.04642308  1
  Al  Al2  1  0.77769599  0.09436353  0.79785483  1
  Al  Al3  1  0.88598084  0.20264621  0.54200616  1
  Al  Al4  1  0.45218547  0.08743464  0.29193173  1
  Al  Al5  1  0.55942159  0.19933892  0.05272058  1
  Al  Al6  1  0.10929827  0.09519797  0.79607827  1
  Al  Al7  1  0.22398233  0.20474877  0.54663049  1
  Al  Al8  1  0.88755018  0.20421657  0.05254013  1
  Al  Al9  1  0.44671037  0.09250324  0.80345195  1
  Al  Al10  1  0.56026182  0.20175091  0.54249306  1
  Al  Al11  1  0.11131099  0.42797656  0.29554016  1
  Al  Al12  1  0.22241960  0.53908692  0.04570080  1
  Al  Al13  1  0.77853179  0.42596455  0.79607836  1
  Al  Al14  1  0.88808301  0.54064786  0.54663059  1
  Al  Al15  1  0.44937237  0.42450521  0.29615904  1
  Al  Al16  1  0.55720709  0.54236807  0.04584651  1
  Al  Al17  1  0.11090956  0.42757559  0.79647484  1
  Al  Al18  1  0.22215342  0.53882034  0.54623049  1
  Al  Al19  1  0.77601406  0.42449534  0.29658752  1
  Al  Al20  1  0.88338529  0.54256622  0.04642294  1
  Al  Al21  1  0.44578660  0.42579842  0.79664519  1
  Al  Al22  1  0.55494238  0.54044269  0.54674042  1
  Al  Al23  1  0.10783807  0.76603906  0.29615886  1
  Al  Al24  1  0.22570159  0.87387351  0.04584683  1
  Al  Al25  1  0.77583615  0.76337726  0.80345200  1
  Al  Al26  1  0.88508464  0.87692861  0.54249304  1
  Al  Al27  1  0.44726578  0.76393285  0.29198535  1
  Al  Al28  1  0.10913085  0.76245427  0.79664535  1
  Al  Al29  1  0.22377754  0.87160763  0.54674012  1
  Al  Al30  1  0.77076888  0.76885130  0.29193171  1
  Al  Al31  1  0.88267108  0.87608933  0.05272049  1
  Al  Al32  1  0.44572805  0.76239539  0.80293356  1
  Al  Al33  1  0.55576663  0.87243178  0.54847299  1
  B  B34  1  0.77746800  0.09413528  0.29192196  1
  B  B35  1  0.55557306  0.87223969  0.04267687  1
  N  N36  1  0.22510294  0.20399800  0.35360147  1
  N  N37  1  0.11094986  0.09429151  0.10669776  1
  N  N38  1  0.88802376  0.20469024  0.85981484  1
  N  N39  1  0.77753882  0.09420560  0.60880141  1
  N  N40  1  0.57938663  0.19214606  0.34674860  1
  N  N41  1  0.45702269  0.06883147  0.09864748  1
  N  N42  1  0.22189574  0.20514385  0.85551705  1
  N  N43  1  0.10899812  0.09562886  0.60319654  1
  N  N44  1  0.87615357  0.19282083  0.34844804  1
  N  N45  1  0.77788982  0.09455732  0.12747690  1
  N  N46  1  0.55772680  0.20477384  0.86103245  1
  N  N47  1  0.44640069  0.09399774  0.60928527  1
  N  N48  1  0.22263147  0.53929828  0.35489088  1
  N  N49  1  0.11081735  0.42748348  0.10434394  1
  N  N50  1  0.88847744  0.53856234  0.85551690  1
  N  N51  1  0.77896337  0.42566356  0.60319665  1
  N  N52  1  0.55400498  0.54199480  0.35472574  1
  N  N53  1  0.44506242  0.42799460  0.10540751  1
  N  N54  1  0.22243796  0.53910547  0.85431973  1
  N  N55  1  0.11092588  0.42759173  0.60497391  1
  N  N56  1  0.88733205  0.54176892  0.35360146  1
  N  N57  1  0.77762493  0.42761646  0.10669763  1
  N  N58  1  0.55624389  0.53798781  0.85524838  1
  N  N59  1  0.44597532  0.42520475  0.60352202  1
  N  N60  1  0.22532767  0.87067197  0.35472546  1
  N  N61  1  0.11132699  0.76172970  0.10540739  1
  N  N62  1  0.88810617  0.87439439  0.86103237  1
  N  N63  1  0.77733218  0.76306651  0.60928523  1
  N  N64  1  0.55538303  0.87204900  0.35996356  1
  N  N65  1  0.45691131  0.77357786  0.09780506  1
  N  N66  1  0.22132087  0.87291065  0.85524872  1
  N  N67  1  0.10853831  0.76264210  0.60352214  1
  N  N68  1  0.87547908  0.89605360  0.34674866  1
  N  N69  1  0.75216496  0.77368911  0.09864740  1
  N  N70  1  0.55564431  0.87231140  0.87685173  1
  N  N71  1  0.44538384  0.76204943  0.61062378  1
