# generated using pymatgen
data_Al17BN18
_symmetry_space_group_name_H-M   'P 1'
_cell_length_a   9.29942058
_cell_length_b   9.29942181
_cell_length_c   9.93900617
_cell_angle_alpha   90.02509480
_cell_angle_beta   90.02509490
_cell_angle_gamma   60.01364127
_symmetry_Int_Tables_number   1
_chemical_formula_structural   Al17BN18
_chemical_formula_sum   'Al34 B2 N36'
_cell_volume   744.46631931
_cell_formula_units_Z   2
loop_
 _symmetry_equiv_pos_site_id
 _symmetry_equiv_pos_as_xyz
  1  'x, y, z'
loop_
 _atom_site_type_symbol
 _atom_site_label
 _atom_site_symmetry_multiplicity
 _atom_site_fract_x
 _atom_site_fract_y
 _atom_site_fract_z
 _atom_site_occupancy
  Al  Al0  1  0.10782994  0.09268233  0.29921614  1
  Al  Al1  1  0.22590069  0.20005357  0.04905253  1
  Al  Al2  1  0.77769749  0.09436484  0.80047724  1
  Al  Al3  1  0.88598264  0.20264789  0.54463094  1
  Al  Al4  1  0.45218565  0.08743596  0.29455521  1
  Al  Al5  1  0.55942354  0.19934070  0.05535033  1
  Al  Al6  1  0.10929909  0.09519929  0.79870968  1
  Al  Al7  1  0.22398430  0.20474885  0.54926183  1
  Al  Al8  1  0.88755132  0.20421764  0.05517002  1
  Al  Al9  1  0.44671258  0.09250450  0.80608204  1
  Al  Al10  1  0.56026210  0.20175190  0.54511706  1
  Al  Al11  1  0.11131190  0.42797731  0.29817410  1
  Al  Al12  1  0.22242070  0.53908786  0.04833389  1
  Al  Al13  1  0.77853320  0.42596526  0.79870975  1
  Al  Al14  1  0.88808325  0.54064970  0.54926195  1
  Al  Al15  1  0.44937296  0.42450695  0.29878993  1
  Al  Al16  1  0.55720824  0.54236869  0.04847698  1
  Al  Al17  1  0.11091111  0.42757702  0.79910555  1
  Al  Al18  1  0.22215478  0.53882156  0.54886279  1
  Al  Al19  1  0.77601508  0.42449726  0.29921605  1
  Al  Al20  1  0.88338770  0.54256666  0.04905235  1
  Al  Al21  1  0.44578821  0.42579919  0.79927609  1
  Al  Al22  1  0.55494353  0.54044437  0.54937062  1
  Al  Al23  1  0.10783997  0.76603951  0.29878973  1
  Al  Al24  1  0.22570234  0.87387457  0.04847730  1
  Al  Al25  1  0.77583758  0.76337932  0.80608207  1
  Al  Al26  1  0.88508582  0.87692876  0.54511707  1
  Al  Al27  1  0.44726652  0.76393342  0.29460984  1
  Al  Al28  1  0.10913181  0.76245571  0.79927629  1
  Al  Al29  1  0.22377933  0.87160868  0.54937034  1
  Al  Al30  1  0.77077043  0.76885126  0.29455517  1
  Al  Al31  1  0.88267302  0.87609113  0.05535024  1
  Al  Al32  1  0.44572956  0.76239675  0.80556468  1
  Al  Al33  1  0.55576785  0.87243280  0.55109527  1
  B  B34  1  0.77746919  0.09413630  0.29454818  1
  B  B35  1  0.55557455  0.87224100  0.04530275  1
  N  N36  1  0.22510498  0.20399798  0.35623244  1
  N  N37  1  0.11095143  0.09429276  0.10932746  1
  N  N38  1  0.88802447  0.20469082  0.86244491  1
  N  N39  1  0.77754008  0.09420671  0.61142481  1
  N  N40  1  0.57938720  0.19214675  0.34937436  1
  N  N41  1  0.45702386  0.06883301  0.10127376  1
  N  N42  1  0.22189729  0.20514525  0.85814752  1
  N  N43  1  0.10899873  0.09563001  0.60582757  1
  N  N44  1  0.87615505  0.19282214  0.35107465  1
  N  N45  1  0.77789122  0.09455857  0.13010619  1
  N  N46  1  0.55772986  0.20477452  0.86366228  1
  N  N47  1  0.44640326  0.09399769  0.61191410  1
  N  N48  1  0.22263265  0.53929930  0.35752335  1
  N  N49  1  0.11081848  0.42748448  0.10697735  1
  N  N50  1  0.88847897  0.53856375  0.85814734  1
  N  N51  1  0.77896465  0.42566405  0.60582767  1
  N  N52  1  0.55400611  0.54199638  0.35735548  1
  N  N53  1  0.44506375  0.42799588  0.10803914  1
  N  N54  1  0.22243931  0.53910664  0.85695243  1
  N  N55  1  0.11092700  0.42759267  0.60760508  1
  N  N56  1  0.88733223  0.54177076  0.35623243  1
  N  N57  1  0.77762629  0.42761792  0.10932734  1
  N  N58  1  0.55624519  0.53798900  0.85787967  1
  N  N59  1  0.44597722  0.42520506  0.60615257  1
  N  N60  1  0.22532943  0.87067292  0.35735520  1
  N  N61  1  0.11132845  0.76173088  0.10803902  1
  N  N62  1  0.88810704  0.87439727  0.86366222  1
  N  N63  1  0.77733234  0.76306891  0.61191407  1
  N  N64  1  0.55538425  0.87204993  0.36258681  1
  N  N65  1  0.45691248  0.77357887  0.10043219  1
  N  N66  1  0.22132223  0.87291181  0.85788001  1
  N  N67  1  0.10853882  0.76264382  0.60615272  1
  N  N68  1  0.87547996  0.89605402  0.34937442  1
  N  N69  1  0.75216668  0.77369011  0.10127365  1
  N  N70  1  0.55564588  0.87231275  0.87948131  1
  N  N71  1  0.44538579  0.76205125  0.61325411  1
