# generated using pymatgen
data_Al17BN18
_symmetry_space_group_name_H-M   'P 1'
_cell_length_a   9.35358733
_cell_length_b   9.35128507
_cell_length_c   10.12669092
_cell_angle_alpha   89.67441067
_cell_angle_beta   89.66807809
_cell_angle_gamma   59.94796769
_symmetry_Int_Tables_number   1
_chemical_formula_structural   Al17BN18
_chemical_formula_sum   'Al34 B2 N36'
_cell_volume   766.67307916
_cell_formula_units_Z   2
loop_
 _symmetry_equiv_pos_site_id
 _symmetry_equiv_pos_as_xyz
  1  'x, y, z'
loop_
 _atom_site_type_symbol
 _atom_site_label
 _atom_site_symmetry_multiplicity
 _atom_site_fract_x
 _atom_site_fract_y
 _atom_site_fract_z
 _atom_site_occupancy
  Al  Al0  1  0.10145834  0.09606136  0.32193588  1
  Al  Al1  1  0.22880212  0.20466177  0.13929741  1
  Al  Al2  1  0.77611239  0.09240291  0.82238551  1
  Al  Al3  1  0.88657169  0.20463244  0.56562320  1
  Al  Al4  1  0.44961478  0.08718585  0.37719051  1
  Al  Al5  1  0.56279519  0.20024320  0.08167057  1
  Al  Al6  1  0.10638716  0.09560815  0.82257167  1
  Al  Al7  1  0.22896305  0.20800977  0.63663774  1
  Al  Al8  1  0.88807251  0.20490520  0.07277246  1
  Al  Al9  1  0.44529385  0.08492409  0.89594281  1
  Al  Al10  1  0.56478298  0.20477717  0.56292774  1
  Al  Al11  1  0.10825882  0.42506369  0.39040609  1
  Al  Al12  1  0.22486174  0.54167282  0.06818909  1
  Al  Al13  1  0.78055316  0.42210645  0.82354786  1
  Al  Al14  1  0.89108830  0.54560101  0.63664511  1
  Al  Al15  1  0.44519131  0.42125968  0.31972210  1
  Al  Al16  1  0.55372427  0.54830878  0.13667857  1
  Al  Al17  1  0.10804849  0.42444359  0.88899446  1
  Al  Al18  1  0.22538378  0.54184856  0.56968755  1
  Al  Al19  1  0.77966326  0.41807190  0.32167248  1
  Al  Al20  1  0.88796550  0.54543505  0.13880057  1
  Al  Al21  1  0.44209846  0.42102928  0.82258792  1
  Al  Al22  1  0.55295358  0.54441492  0.63611198  1
  Al  Al23  1  0.10485024  0.76242516  0.32010473  1
  Al  Al24  1  0.23085559  0.87091921  0.13309744  1
  Al  Al25  1  0.76886090  0.76196560  0.89584824  1
  Al  Al26  1  0.88755403  0.88185906  0.56281889  1
  Al  Al27  1  0.44606136  0.76146020  0.38488497  1
  Al  Al28  1  0.10552131  0.75948458  0.82214572  1
  Al  Al29  1  0.22631424  0.87063975  0.62797120  1
  Al  Al30  1  0.77074006  0.76630286  0.37705079  1
  Al  Al31  1  0.88371014  0.87956554  0.08160481  1
  Al  Al32  1  0.44640999  0.76254804  0.89295296  1
  Al  Al33  1  0.55760512  0.87410524  0.63667923  1
  B  B34  1  0.77775243  0.09457399  0.31584341  1
  B  B35  1  0.55566360  0.87212686  0.14307539  1
  N  N36  1  0.22506581  0.20889986  0.32881777  1
  N  N37  1  0.10602946  0.09784330  0.12677851  1
  N  N38  1  0.88762461  0.20338070  0.88426810  1
  N  N39  1  0.77737321  0.09438211  0.63513536  1
  N  N40  1  0.58462045  0.19340423  0.37020555  1
  N  N41  1  0.45652909  0.06524254  0.08867125  1
  N  N42  1  0.22910574  0.20634077  0.82926854  1
  N  N43  1  0.10526048  0.09910495  0.62476046  1
  N  N44  1  0.87624394  0.19334519  0.37543739  1
  N  N45  1  0.77900918  0.09582507  0.15382180  1
  N  N46  1  0.55959035  0.20463408  0.88990958  1
  N  N47  1  0.44509652  0.09049821  0.56899945  1
  N  N48  1  0.22491899  0.54170599  0.38054197  1
  N  N49  1  0.10838113  0.42488798  0.07822590  1
  N  N50  1  0.89003881  0.54564600  0.82953700  1
  N  N51  1  0.78185377  0.42257732  0.62520868  1
  N  N52  1  0.55257754  0.54322389  0.33247994  1
  N  N53  1  0.44089911  0.42491472  0.13000761  1
  N  N54  1  0.22399951  0.54103891  0.87902952  1
  N  N55  1  0.10897201  0.42587447  0.57959951  1
  N  N56  1  0.89221489  0.54168348  0.32851603  1
  N  N57  1  0.78087176  0.42319421  0.12553667  1
  N  N58  1  0.55153338  0.54399830  0.83413538  1
  N  N59  1  0.44326221  0.42099765  0.62954254  1
  N  N60  1  0.22606986  0.86967572  0.33649104  1
  N  N61  1  0.10837628  0.75782681  0.13056428  1
  N  N62  1  0.88875185  0.87587018  0.88971753  1
  N  N63  1  0.77397946  0.76179536  0.56896943  1
  N  N64  1  0.55460276  0.87101242  0.30483232  1
  N  N65  1  0.45730955  0.77347908  0.08381950  1
  N  N66  1  0.22722237  0.86823736  0.83744192  1
  N  N67  1  0.10426945  0.76037433  0.62891238  1
  N  N68  1  0.87656385  0.90154203  0.37014931  1
  N  N69  1  0.74880897  0.77338486  0.08858350  1
  N  N70  1  0.55621002  0.87227703  0.82375126  1
  N  N71  1  0.44732260  0.76248043  0.57385910  1
