# generated using pymatgen
data_Al17BN18
_symmetry_space_group_name_H-M   'P 1'
_cell_length_a   9.32836082
_cell_length_b   9.31067603
_cell_length_c   10.05092422
_cell_angle_alpha   89.61733611
_cell_angle_beta   89.95008334
_cell_angle_gamma   59.92692694
_symmetry_Int_Tables_number   1
_chemical_formula_structural   Al17BN18
_chemical_formula_sum   'Al34 B2 N36'
_cell_volume   755.42518974
_cell_formula_units_Z   2
loop_
 _symmetry_equiv_pos_site_id
 _symmetry_equiv_pos_as_xyz
  1  'x, y, z'
loop_
 _atom_site_type_symbol
 _atom_site_label
 _atom_site_symmetry_multiplicity
 _atom_site_fract_x
 _atom_site_fract_y
 _atom_site_fract_z
 _atom_site_occupancy
  Al  Al0  1  0.10645673  0.09355509  0.39611634  1
  Al  Al1  1  0.22614221  0.20069432  0.14696428  1
  Al  Al2  1  0.78033712  0.08711161  0.83222599  1
  Al  Al3  1  0.89140674  0.20943790  0.64708951  1
  Al  Al4  1  0.45170986  0.09078986  0.38923571  1
  Al  Al5  1  0.55471548  0.20010831  0.14712692  1
  Al  Al6  1  0.11193790  0.09444774  0.89752831  1
  Al  Al7  1  0.22347084  0.20453571  0.64544292  1
  Al  Al8  1  0.89225844  0.20647081  0.14734277  1
  Al  Al9  1  0.44608121  0.08895568  0.90137060  1
  Al  Al10  1  0.54738634  0.20853288  0.64656087  1
  Al  Al11  1  0.11152869  0.42685707  0.39692611  1
  Al  Al12  1  0.22436865  0.53641727  0.14799801  1
  Al  Al13  1  0.77759528  0.42747490  0.89744004  1
  Al  Al14  1  0.88666491  0.54367467  0.64363805  1
  Al  Al15  1  0.45262415  0.42124008  0.39627892  1
  Al  Al16  1  0.55738347  0.54209244  0.14665695  1
  Al  Al17  1  0.11080615  0.42817022  0.89460323  1
  Al  Al18  1  0.21960932  0.54203799  0.64448395  1
  Al  Al19  1  0.77641999  0.42228691  0.39653556  1
  Al  Al20  1  0.88453595  0.54100890  0.14685112  1
  Al  Al21  1  0.44423078  0.42725329  0.89796704  1
  Al  Al22  1  0.55454117  0.54050027  0.64607019  1
  Al  Al23  1  0.11396531  0.76365122  0.38835907  1
  Al  Al24  1  0.22859212  0.87353962  0.14688424  1
  Al  Al25  1  0.76812763  0.75954159  0.89994239  1
  Al  Al26  1  0.87913025  0.88839292  0.56845224  1
  Al  Al27  1  0.44648778  0.76207489  0.39086110  1
  Al  Al28  1  0.11787413  0.75736357  0.89766885  1
  Al  Al29  1  0.22213609  0.87182342  0.64464894  1
  Al  Al30  1  0.77150859  0.76566725  0.38035318  1
  Al  Al31  1  0.88392435  0.87425833  0.08624505  1
  Al  Al32  1  0.44660719  0.76350114  0.89895534  1
  Al  Al33  1  0.55606028  0.87248368  0.64271166  1
  B  B34  1  0.78099736  0.09021964  0.31444782  1
  B  B35  1  0.55493904  0.87064327  0.14923083  1
  N  N36  1  0.22242249  0.20497990  0.33629965  1
  N  N37  1  0.11201494  0.09479377  0.08659790  1
  N  N38  1  0.89222491  0.20820439  0.84023146  1
  N  N39  1  0.77728877  0.09335461  0.64084273  1
  N  N40  1  0.57710969  0.19484461  0.33862339  1
  N  N41  1  0.45666481  0.06915228  0.09373190  1
  N  N42  1  0.22430287  0.20424739  0.83712917  1
  N  N43  1  0.11076502  0.09521159  0.58568866  1
  N  N44  1  0.87893132  0.19566804  0.33930824  1
  N  N45  1  0.78247919  0.08844785  0.14242381  1
  N  N46  1  0.54747933  0.20722354  0.84184626  1
  N  N47  1  0.44426120  0.09380463  0.58025954  1
  N  N48  1  0.22491504  0.53606216  0.33699812  1
  N  N49  1  0.11074277  0.42822327  0.08553200  1
  N  N50  1  0.88688792  0.54113148  0.83554726  1
  N  N51  1  0.77681643  0.42954604  0.58607024  1
  N  N52  1  0.55586076  0.53896092  0.33548387  1
  N  N53  1  0.44653711  0.42585434  0.08794122  1
  N  N54  1  0.22233980  0.53921408  0.83477324  1
  N  N55  1  0.11022728  0.42845443  0.58689408  1
  N  N56  1  0.88959932  0.53616578  0.33533756  1
  N  N57  1  0.77823240  0.42696311  0.08654858  1
  N  N58  1  0.55429557  0.54050261  0.83799748  1
  N  N59  1  0.44354825  0.42910456  0.58613716  1
  N  N60  1  0.22436200  0.87389106  0.33443571  1
  N  N61  1  0.12096201  0.75725766  0.09082321  1
  N  N62  1  0.88676123  0.87137571  0.89191392  1
  N  N63  1  0.77283999  0.76200268  0.57498479  1
  N  N64  1  0.55305147  0.87292753  0.31263053  1
  N  N65  1  0.45708937  0.77330015  0.09199671  1
  N  N66  1  0.22387295  0.87176392  0.83635282  1
  N  N67  1  0.11192118  0.76210244  0.58151021  1
  N  N68  1  0.87393753  0.90388557  0.37091249  1
  N  N69  1  0.74913565  0.77024472  0.09613119  1
  N  N70  1  0.55431658  0.87295412  0.83091471  1
  N  N71  1  0.44441381  0.76273370  0.58201438  1
