# generated using pymatgen
data_Al17BN18
_symmetry_space_group_name_H-M   'P 1'
_cell_length_a   9.31282783
_cell_length_b   9.31282442
_cell_length_c   10.15766410
_cell_angle_alpha   89.74904083
_cell_angle_beta   89.74850530
_cell_angle_gamma   60.07809496
_symmetry_Int_Tables_number   1
_chemical_formula_structural   Al17BN18
_chemical_formula_sum   'Al34 B2 N36'
_cell_volume   763.52475373
_cell_formula_units_Z   2
loop_
 _symmetry_equiv_pos_site_id
 _symmetry_equiv_pos_as_xyz
  1  'x, y, z'
loop_
 _atom_site_type_symbol
 _atom_site_label
 _atom_site_symmetry_multiplicity
 _atom_site_fract_x
 _atom_site_fract_y
 _atom_site_fract_z
 _atom_site_occupancy
  Al  Al0  1  0.10208012  0.09158376  0.31990364  1
  Al  Al1  1  0.22877772  0.20339711  0.14101196  1
  Al  Al2  1  0.77613247  0.09278796  0.82458554  1
  Al  Al3  1  0.88694154  0.20361654  0.56805295  1
  Al  Al4  1  0.44919541  0.08833302  0.37809971  1
  Al  Al5  1  0.56218741  0.20028356  0.08377885  1
  Al  Al6  1  0.10728805  0.09164375  0.82139420  1
  Al  Al7  1  0.22878819  0.20687560  0.63860041  1
  Al  Al8  1  0.88770517  0.20436030  0.07477083  1
  Al  Al9  1  0.44483730  0.08765650  0.89671285  1
  Al  Al10  1  0.56406263  0.20469554  0.56496638  1
  Al  Al11  1  0.10837439  0.42504310  0.39125731  1
  Al  Al12  1  0.22521927  0.54187189  0.07034930  1
  Al  Al13  1  0.77498662  0.42394516  0.82138698  1
  Al  Al14  1  0.89020376  0.54546218  0.63859605  1
  Al  Al15  1  0.44833879  0.42394697  0.31968366  1
  Al  Al16  1  0.56005315  0.53754083  0.07458588  1
  Al  Al17  1  0.10808453  0.42474108  0.88945103  1
  Al  Al18  1  0.22575892  0.54243335  0.57239963  1
  Al  Al19  1  0.77490666  0.41875071  0.31990713  1
  Al  Al20  1  0.88674398  0.54542509  0.14101789  1
  Al  Al21  1  0.44559257  0.42531627  0.82248315  1
  Al  Al22  1  0.55987313  0.53351684  0.57006700  1
  Al  Al23  1  0.10728209  0.76501088  0.31968625  1
  Al  Al24  1  0.22089326  0.87670706  0.07458618  1
  Al  Al25  1  0.77100994  0.76148940  0.89672129  1
  Al  Al26  1  0.88802343  0.88073449  0.56496242  1
  Al  Al27  1  0.44758221  0.76425952  0.38067105  1
  Al  Al28  1  0.10865907  0.76225295  0.82248894  1
  Al  Al29  1  0.21683809  0.87655294  0.57007285  1
  Al  Al30  1  0.77166398  0.76586291  0.37809518  1
  Al  Al31  1  0.88363489  0.87883890  0.08379190  1
  Al  Al32  1  0.45006933  0.76671443  0.88938337  1
  Al  Al33  1  0.55693459  0.87360202  0.63700641  1
  B  B34  1  0.77789694  0.09456776  0.31854964  1
  B  B35  1  0.55321988  0.86987219  0.14268251  1
  N  N36  1  0.22448757  0.20813825  0.32927016  1
  N  N37  1  0.10639961  0.09316253  0.13201853  1
  N  N38  1  0.88812081  0.20478024  0.88615849  1
  N  N39  1  0.77686986  0.09354035  0.63730508  1
  N  N40  1  0.58438684  0.19391286  0.37173217  1
  N  N41  1  0.45530102  0.06600053  0.08853571  1
  N  N42  1  0.22879556  0.20593843  0.82961068  1
  N  N43  1  0.10611907  0.09397946  0.63083438  1
  N  N44  1  0.87684482  0.19351709  0.37741658  1
  N  N45  1  0.77857866  0.09523813  0.15594306  1
  N  N46  1  0.55920356  0.20715716  0.89163611  1
  N  N47  1  0.44402877  0.09102090  0.56942938  1
  N  N48  1  0.22599822  0.54267121  0.38212910  1
  N  N49  1  0.10773755  0.42439234  0.07872505  1
  N  N50  1  0.88928404  0.54545109  0.82960746  1
  N  N51  1  0.77730067  0.42279886  0.63082669  1
  N  N52  1  0.55858420  0.53271108  0.37978244  1
  N  N53  1  0.44353528  0.42758212  0.13355343  1
  N  N54  1  0.22541319  0.54207132  0.88037161  1
  N  N55  1  0.10866087  0.42532999  0.58036930  1
  N  N56  1  0.89146855  0.54115003  0.32927547  1
  N  N57  1  0.77650465  0.42305275  0.13202279  1
  N  N58  1  0.55721824  0.53565213  0.88345040  1
  N  N59  1  0.44653164  0.42388782  0.63277873  1
  N  N60  1  0.21603380  0.87526645  0.37978828  1
  N  N61  1  0.11093633  0.76018941  0.13355667  1
  N  N62  1  0.89050290  0.87586443  0.89164846  1
  N  N63  1  0.77435020  0.76070035  0.56942407  1
  N  N64  1  0.55484703  0.87151623  0.30446611  1
  N  N65  1  0.45838096  0.77502867  0.08776406  1
  N  N66  1  0.21900589  0.87387130  0.88344979  1
  N  N67  1  0.10721208  0.76320574  0.63278281  1
  N  N68  1  0.87724332  0.90105590  0.37172777  1
  N  N69  1  0.74935418  0.77194840  0.08854482  1
  N  N70  1  0.55801295  0.87465591  0.82324754  1
  N  N71  1  0.44779811  0.76447629  0.57854451  1
