# generated using pymatgen
data_Al17BN18
_symmetry_space_group_name_H-M   'P 1'
_cell_length_a   9.32713820
_cell_length_b   9.33832018
_cell_length_c   10.06685904
_cell_angle_alpha   89.71306953
_cell_angle_beta   89.62635010
_cell_angle_gamma   59.95858404
_symmetry_Int_Tables_number   1
_chemical_formula_structural   Al17BN18
_chemical_formula_sum   'Al34 B2 N36'
_cell_volume   759.01485986
_cell_formula_units_Z   2
loop_
 _symmetry_equiv_pos_site_id
 _symmetry_equiv_pos_as_xyz
  1  'x, y, z'
loop_
 _atom_site_type_symbol
 _atom_site_label
 _atom_site_symmetry_multiplicity
 _atom_site_fract_x
 _atom_site_fract_y
 _atom_site_fract_z
 _atom_site_occupancy
  Al  Al0  1  0.10561076  0.09412559  0.38821692  1
  Al  Al1  1  0.22321722  0.20079457  0.13731999  1
  Al  Al2  1  0.77300646  0.09052453  0.81910049  1
  Al  Al3  1  0.89220594  0.20882416  0.63721047  1
  Al  Al4  1  0.44786819  0.08886876  0.37108273  1
  Al  Al5  1  0.55955518  0.19804830  0.08164738  1
  Al  Al6  1  0.10983818  0.09527527  0.88758526  1
  Al  Al7  1  0.22670557  0.20358033  0.63488311  1
  Al  Al8  1  0.88882560  0.20685889  0.14200188  1
  Al  Al9  1  0.44429342  0.08533309  0.89130168  1
  Al  Al10  1  0.56833889  0.19825650  0.55975428  1
  Al  Al11  1  0.11026001  0.42686289  0.38790863  1
  Al  Al12  1  0.22278846  0.53393151  0.13712390  1
  Al  Al13  1  0.77835581  0.42654778  0.88697958  1
  Al  Al14  1  0.88771724  0.54328931  0.63454831  1
  Al  Al15  1  0.44712531  0.43112956  0.38001227  1
  Al  Al16  1  0.55716927  0.54451988  0.13753816  1
  Al  Al17  1  0.11172280  0.42627835  0.88526090  1
  Al  Al18  1  0.22509951  0.53496753  0.63355146  1
  Al  Al19  1  0.77673094  0.42333540  0.38760193  1
  Al  Al20  1  0.88349602  0.54099318  0.13673573  1
  Al  Al21  1  0.44375013  0.43199786  0.89010375  1
  Al  Al22  1  0.55503689  0.53974668  0.63565200  1
  Al  Al23  1  0.10317522  0.76970688  0.32554982  1
  Al  Al24  1  0.22959550  0.87676455  0.13531135  1
  Al  Al25  1  0.76943513  0.76027702  0.89193859  1
  Al  Al26  1  0.89001076  0.88075283  0.55819311  1
  Al  Al27  1  0.44577055  0.76319559  0.38258530  1
  Al  Al28  1  0.10824055  0.76234436  0.84069396  1
  Al  Al29  1  0.22574970  0.87314772  0.63462396  1
  Al  Al30  1  0.77112603  0.76501045  0.37255555  1
  Al  Al31  1  0.88300341  0.87675112  0.07948174  1
  Al  Al32  1  0.44826726  0.76297977  0.88921136  1
  Al  Al33  1  0.55835590  0.87287566  0.63191161  1
  B  B34  1  0.77289541  0.09385123  0.30789199  1
  B  B35  1  0.55423116  0.86998889  0.13964992  1
  N  N36  1  0.21918571  0.20635217  0.32544053  1
  N  N37  1  0.10750296  0.09633675  0.07620706  1
  N  N38  1  0.89109378  0.20756671  0.82848578  1
  N  N39  1  0.77643179  0.09088192  0.63132458  1
  N  N40  1  0.58439526  0.19249744  0.36307745  1
  N  N41  1  0.45243938  0.06549356  0.08662440  1
  N  N42  1  0.22540822  0.20331672  0.82643599  1
  N  N43  1  0.11207932  0.09499317  0.57684600  1
  N  N44  1  0.87942012  0.19737383  0.33234514  1
  N  N45  1  0.77266172  0.09061927  0.14804465  1
  N  N46  1  0.56001696  0.20085477  0.88600714  1
  N  N47  1  0.44408237  0.09038090  0.56586042  1
  N  N48  1  0.22281392  0.53470814  0.32809791  1
  N  N49  1  0.11034249  0.42646117  0.07503417  1
  N  N50  1  0.88797704  0.54169154  0.82654303  1
  N  N51  1  0.77808056  0.42871327  0.57686726  1
  N  N52  1  0.55701763  0.54175710  0.32513016  1
  N  N53  1  0.44275255  0.43488451  0.08231602  1
  N  N54  1  0.22631016  0.53288293  0.82695177  1
  N  N55  1  0.11140467  0.42651228  0.57715317  1
  N  N56  1  0.88929429  0.53691359  0.32511109  1
  N  N57  1  0.77798949  0.42541988  0.07635052  1
  N  N58  1  0.55523676  0.54066602  0.82718542  1
  N  N59  1  0.44537161  0.42972463  0.57294805  1
  N  N60  1  0.22587382  0.87664956  0.32613396  1
  N  N61  1  0.10949719  0.76331777  0.11720297  1
  N  N62  1  0.88718945  0.87574082  0.88751834  1
  N  N63  1  0.77577860  0.76029031  0.56557832  1
  N  N64  1  0.55428330  0.87088154  0.30200482  1
  N  N65  1  0.45758815  0.77266400  0.08136405  1
  N  N66  1  0.22723801  0.87344864  0.82955679  1
  N  N67  1  0.10867424  0.76292478  0.60954243  1
  N  N68  1  0.87412311  0.90283195  0.36451032  1
  N  N69  1  0.74876740  0.77025204  0.08606779  1
  N  N70  1  0.55704359  0.87206726  0.82016204  1
  N  N71  1  0.44711727  0.76168970  0.57276070  1
