# generated using pymatgen
data_Al17BN18
_symmetry_space_group_name_H-M   'P 1'
_cell_length_a   9.32542745
_cell_length_b   9.31463933
_cell_length_c   10.02129873
_cell_angle_alpha   89.62055594
_cell_angle_beta   89.93828750
_cell_angle_gamma   59.95091200
_symmetry_Int_Tables_number   1
_chemical_formula_structural   Al17BN18
_chemical_formula_sum   'Al34 B2 N36'
_cell_volume   753.46558596
_cell_formula_units_Z   2
loop_
 _symmetry_equiv_pos_site_id
 _symmetry_equiv_pos_as_xyz
  1  'x, y, z'
loop_
 _atom_site_type_symbol
 _atom_site_label
 _atom_site_symmetry_multiplicity
 _atom_site_fract_x
 _atom_site_fract_y
 _atom_site_fract_z
 _atom_site_occupancy
  Al  Al0  1  0.10542165  0.09269723  0.31277277  1
  Al  Al1  1  0.21987774  0.20230019  0.06845166  1
  Al  Al2  1  0.77776624  0.09389820  0.81635860  1
  Al  Al3  1  0.88676498  0.20318072  0.56031908  1
  Al  Al4  1  0.45070583  0.09042447  0.37934966  1
  Al  Al5  1  0.56205102  0.20036462  0.07636916  1
  Al  Al6  1  0.11081278  0.09456457  0.81418688  1
  Al  Al7  1  0.21537128  0.21019598  0.56434484  1
  Al  Al8  1  0.88679982  0.20475685  0.06819444  1
  Al  Al9  1  0.45183043  0.08286437  0.87461002  1
  Al  Al10  1  0.56453729  0.20812627  0.56236709  1
  Al  Al11  1  0.11031399  0.42878771  0.31161949  1
  Al  Al12  1  0.22181244  0.53986918  0.06195809  1
  Al  Al13  1  0.77801595  0.42766044  0.81339200  1
  Al  Al14  1  0.88993538  0.53905991  0.56037690  1
  Al  Al15  1  0.44906041  0.42444614  0.31274809  1
  Al  Al16  1  0.55770873  0.54375404  0.06334003  1
  Al  Al17  1  0.11157924  0.42722416  0.81450188  1
  Al  Al18  1  0.22249957  0.53870895  0.56491330  1
  Al  Al19  1  0.77648000  0.42361051  0.31291644  1
  Al  Al20  1  0.88065404  0.54464801  0.06345340  1
  Al  Al21  1  0.44616859  0.42561208  0.81535844  1
  Al  Al22  1  0.55537083  0.53877359  0.56094952  1
  Al  Al23  1  0.10774092  0.76520554  0.31259403  1
  Al  Al24  1  0.22614519  0.87440853  0.06358490  1
  Al  Al25  1  0.78249692  0.76040862  0.80861347  1
  Al  Al26  1  0.88777211  0.87746105  0.55759678  1
  Al  Al27  1  0.44698326  0.76345609  0.31831222  1
  Al  Al28  1  0.10940825  0.76287762  0.81413497  1
  Al  Al29  1  0.22126353  0.87181292  0.56124931  1
  Al  Al30  1  0.77043090  0.76937748  0.31808958  1
  Al  Al31  1  0.88102126  0.87714981  0.07060054  1
  Al  Al32  1  0.44295993  0.75945653  0.80846497  1
  Al  Al33  1  0.55643812  0.87182906  0.59429622  1
  B  B34  1  0.77837579  0.09509151  0.31016071  1
  B  B35  1  0.55434824  0.87306884  0.10528724  1
  N  N36  1  0.21464899  0.20739575  0.36905934  1
  N  N37  1  0.10901661  0.09346621  0.12447800  1
  N  N38  1  0.88847541  0.20468865  0.87703455  1
  N  N39  1  0.77984789  0.09342379  0.62820522  1
  N  N40  1  0.58439016  0.19450530  0.36376859  1
  N  N41  1  0.46097906  0.05965514  0.08701025  1
  N  N42  1  0.21981219  0.20635141  0.87633419  1
  N  N43  1  0.10914574  0.09465251  0.62253681  1
  N  N44  1  0.87655366  0.19259896  0.36690968  1
  N  N45  1  0.77955208  0.09429957  0.14595127  1
  N  N46  1  0.55989611  0.20635599  0.88280893  1
  N  N47  1  0.44268410  0.10346974  0.57905372  1
  N  N48  1  0.22294817  0.53789342  0.37352348  1
  N  N49  1  0.10904003  0.42995811  0.12179417  1
  N  N50  1  0.88840124  0.53979530  0.87395395  1
  N  N51  1  0.77894452  0.42645328  0.62078400  1
  N  N52  1  0.55519414  0.53860720  0.37075073  1
  N  N53  1  0.44381153  0.42990816  0.12345566  1
  N  N54  1  0.22271225  0.53891422  0.87213446  1
  N  N55  1  0.10995268  0.42868889  0.62443701  1
  N  N56  1  0.88821521  0.53931485  0.36929582  1
  N  N57  1  0.77760652  0.42747177  0.12371691  1
  N  N58  1  0.55562000  0.53934150  0.87416254  1
  N  N59  1  0.44632012  0.42687672  0.62379700  1
  N  N60  1  0.22255918  0.87109389  0.37083514  1
  N  N61  1  0.11098389  0.76156213  0.12276792  1
  N  N62  1  0.88801070  0.87284340  0.87982478  1
  N  N63  1  0.78975349  0.75735296  0.61754751  1
  N  N64  1  0.55879989  0.86390301  0.38332859  1
  N  N65  1  0.45909726  0.77618758  0.12115313  1
  N  N66  1  0.22333032  0.87150498  0.87430712  1
  N  N67  1  0.10886800  0.76281074  0.62195179  1
  N  N68  1  0.87662650  0.89688077  0.36378851  1
  N  N69  1  0.74633070  0.77689282  0.12192895  1
  N  N70  1  0.55642100  0.87222098  0.81885085  1
  N  N71  1  0.43924142  0.75609907  0.61926275  1
