# generated using pymatgen
data_Al17BN18
_symmetry_space_group_name_H-M   'P 1'
_cell_length_a   9.33381657
_cell_length_b   9.32933552
_cell_length_c   10.03606059
_cell_angle_alpha   89.70697575
_cell_angle_beta   89.87086000
_cell_angle_gamma   59.94640724
_symmetry_Int_Tables_number   1
_chemical_formula_structural   Al17BN18
_chemical_formula_sum   'Al34 B2 N36'
_cell_volume   756.42066583
_cell_formula_units_Z   2
loop_
 _symmetry_equiv_pos_site_id
 _symmetry_equiv_pos_as_xyz
  1  'x, y, z'
loop_
 _atom_site_type_symbol
 _atom_site_label
 _atom_site_symmetry_multiplicity
 _atom_site_fract_x
 _atom_site_fract_y
 _atom_site_fract_z
 _atom_site_occupancy
  Al  Al0  1  0.10534071  0.09287748  0.32256707  1
  Al  Al1  1  0.21995381  0.20214661  0.08084659  1
  Al  Al2  1  0.77684819  0.09399863  0.82672315  1
  Al  Al3  1  0.88648540  0.20301481  0.57066246  1
  Al  Al4  1  0.45085857  0.09109381  0.38026869  1
  Al  Al5  1  0.56140232  0.20168410  0.08860414  1
  Al  Al6  1  0.11022650  0.09526539  0.82398738  1
  Al  Al7  1  0.21677953  0.20794120  0.57107193  1
  Al  Al8  1  0.88702211  0.20416349  0.07733720  1
  Al  Al9  1  0.45084540  0.08245112  0.89962389  1
  Al  Al10  1  0.56461305  0.20595623  0.56886262  1
  Al  Al11  1  0.11190830  0.42810896  0.32089461  1
  Al  Al12  1  0.22279634  0.53948017  0.07216482  1
  Al  Al13  1  0.77856768  0.42659495  0.82325133  1
  Al  Al14  1  0.88926938  0.53699661  0.56910400  1
  Al  Al15  1  0.44922106  0.42610200  0.32294095  1
  Al  Al16  1  0.55640283  0.54393274  0.07208855  1
  Al  Al17  1  0.11125663  0.42667397  0.82453680  1
  Al  Al18  1  0.22170060  0.53872175  0.57487653  1
  Al  Al19  1  0.77581973  0.42234574  0.32237952  1
  Al  Al20  1  0.88525276  0.53739776  0.08074636  1
  Al  Al21  1  0.44596182  0.42349593  0.82481049  1
  Al  Al22  1  0.55528975  0.54017899  0.57256407  1
  Al  Al23  1  0.11006548  0.76571834  0.32269881  1
  Al  Al24  1  0.22720434  0.87296027  0.07210245  1
  Al  Al25  1  0.77066435  0.76504096  0.89002932  1
  Al  Al26  1  0.88753777  0.87960363  0.56675461  1
  Al  Al27  1  0.44245907  0.76027981  0.31863704  1
  Al  Al28  1  0.10754603  0.76251087  0.82379437  1
  Al  Al29  1  0.22268017  0.87206433  0.57264822  1
  Al  Al30  1  0.77636047  0.76743853  0.35902722  1
  Al  Al31  1  0.88532886  0.87808406  0.08780337  1
  Al  Al32  1  0.44078273  0.75736197  0.82229131  1
  Al  Al33  1  0.55994526  0.87624876  0.63926014  1
  B  B34  1  0.78000259  0.09678504  0.31938011  1
  B  B35  1  0.55537480  0.87656645  0.15321128  1
  N  N36  1  0.21458010  0.20784950  0.37747904  1
  N  N37  1  0.10880058  0.09257544  0.13441303  1
  N  N38  1  0.88812429  0.20451041  0.88643412  1
  N  N39  1  0.77841731  0.09369834  0.63850885  1
  N  N40  1  0.58446365  0.19680243  0.37290422  1
  N  N41  1  0.45839071  0.06476740  0.09645273  1
  N  N42  1  0.21955129  0.20586449  0.88671091  1
  N  N43  1  0.10913827  0.09509594  0.63231248  1
  N  N44  1  0.87669957  0.19331511  0.37758568  1
  N  N45  1  0.77941994  0.09622833  0.15681272  1
  N  N46  1  0.55956227  0.20578484  0.89334668  1
  N  N47  1  0.44769296  0.09184634  0.57583424  1
  N  N48  1  0.22256886  0.53886315  0.38393322  1
  N  N49  1  0.11196446  0.42834114  0.13250407  1
  N  N50  1  0.89004713  0.53517844  0.88692746  1
  N  N51  1  0.77885725  0.42595997  0.63141142  1
  N  N52  1  0.55509855  0.54126407  0.38289822  1
  N  N53  1  0.44392598  0.43039015  0.13402452  1
  N  N54  1  0.22219810  0.53880490  0.88194790  1
  N  N55  1  0.10994668  0.42752136  0.63392180  1
  N  N56  1  0.89056164  0.53295125  0.37577899  1
  N  N57  1  0.77609407  0.42559624  0.13419247  1
  N  N58  1  0.55600520  0.53741965  0.88247565  1
  N  N59  1  0.44600124  0.42520629  0.63288157  1
  N  N60  1  0.22409324  0.87196146  0.38308546  1
  N  N61  1  0.11401271  0.76047147  0.13383469  1
  N  N62  1  0.89004227  0.87585817  0.89323530  1
  N  N63  1  0.77535213  0.76437981  0.58079082  1
  N  N64  1  0.55499540  0.87884735  0.31343473  1
  N  N65  1  0.45345342  0.77005502  0.12730037  1
  N  N66  1  0.22119229  0.87219771  0.88254461  1
  N  N67  1  0.10794770  0.76284696  0.63205444  1
  N  N68  1  0.88035996  0.90079461  0.37146780  1
  N  N69  1  0.75249228  0.77333447  0.10675947  1
  N  N70  1  0.55735737  0.87373959  0.82918073  1
  N  N71  1  0.44180779  0.75912555  0.63079633  1
