# generated using pymatgen
data_Al17BN18
_symmetry_space_group_name_H-M   'P 1'
_cell_length_a   9.32455828
_cell_length_b   9.31516495
_cell_length_c   9.99654277
_cell_angle_alpha   89.69531007
_cell_angle_beta   89.93675624
_cell_angle_gamma   59.95905886
_symmetry_Int_Tables_number   1
_chemical_formula_structural   Al17BN18
_chemical_formula_sum   'Al34 B2 N36'
_cell_volume   751.64559505
_cell_formula_units_Z   2
loop_
 _symmetry_equiv_pos_site_id
 _symmetry_equiv_pos_as_xyz
  1  'x, y, z'
loop_
 _atom_site_type_symbol
 _atom_site_label
 _atom_site_symmetry_multiplicity
 _atom_site_fract_x
 _atom_site_fract_y
 _atom_site_fract_z
 _atom_site_occupancy
  Al  Al0  1  0.10571026  0.09271242  0.31197291  1
  Al  Al1  1  0.22434671  0.19978981  0.06703642  1
  Al  Al2  1  0.77829524  0.09363922  0.81577836  1
  Al  Al3  1  0.88672000  0.20299849  0.55964550  1
  Al  Al4  1  0.45060358  0.09064170  0.36684412  1
  Al  Al5  1  0.56042532  0.19824515  0.07472014  1
  Al  Al6  1  0.11023182  0.09431551  0.81372094  1
  Al  Al7  1  0.21626555  0.20943827  0.56393569  1
  Al  Al8  1  0.88682410  0.20489560  0.06799687  1
  Al  Al9  1  0.44847908  0.08966280  0.84603528  1
  Al  Al10  1  0.56418001  0.20721885  0.56148981  1
  Al  Al11  1  0.11049231  0.42865032  0.31083060  1
  Al  Al12  1  0.22203149  0.53955576  0.06166309  1
  Al  Al13  1  0.77792963  0.42771200  0.81298852  1
  Al  Al14  1  0.89015895  0.53877591  0.56023904  1
  Al  Al15  1  0.44908103  0.42453327  0.31190241  1
  Al  Al16  1  0.55758785  0.54392828  0.06297213  1
  Al  Al17  1  0.11073613  0.42811144  0.81404557  1
  Al  Al18  1  0.22249006  0.53864014  0.56421959  1
  Al  Al19  1  0.77646100  0.42363764  0.31231316  1
  Al  Al20  1  0.88085022  0.54464114  0.06315259  1
  Al  Al21  1  0.44600031  0.42646519  0.81477097  1
  Al  Al22  1  0.55534878  0.53847890  0.56074792  1
  Al  Al23  1  0.10781157  0.76529807  0.31203560  1
  Al  Al24  1  0.22638321  0.87451361  0.06309859  1
  Al  Al25  1  0.78143213  0.76076906  0.80934543  1
  Al  Al26  1  0.88770303  0.87728923  0.55740487  1
  Al  Al27  1  0.44690061  0.76341941  0.31720862  1
  Al  Al28  1  0.10933434  0.76283716  0.81378194  1
  Al  Al29  1  0.22139854  0.87170205  0.56112915  1
  Al  Al30  1  0.77086254  0.76912056  0.31705492  1
  Al  Al31  1  0.88084647  0.87717899  0.07016326  1
  Al  Al32  1  0.44349030  0.75978861  0.80909379  1
  Al  Al33  1  0.55752209  0.86943992  0.58628320  1
  B  B34  1  0.77859957  0.09486839  0.30922508  1
  B  B35  1  0.55322096  0.87566192  0.10409163  1
  N  N36  1  0.21558087  0.20719998  0.36998941  1
  N  N37  1  0.10941939  0.09403024  0.12333906  1
  N  N38  1  0.88817723  0.20490644  0.87649330  1
  N  N39  1  0.77976529  0.09339078  0.62738522  1
  N  N40  1  0.58371678  0.19456981  0.36449355  1
  N  N41  1  0.45980688  0.06211543  0.10167662  1
  N  N42  1  0.22042961  0.20610509  0.87439573  1
  N  N43  1  0.10895942  0.09463866  0.62178112  1
  N  N44  1  0.87654832  0.19259101  0.36596038  1
  N  N45  1  0.77890139  0.09472102  0.14503212  1
  N  N46  1  0.55904017  0.20593953  0.88070674  1
  N  N47  1  0.44306503  0.10223393  0.59000492  1
  N  N48  1  0.22293217  0.53800928  0.37260576  1
  N  N49  1  0.10971401  0.42892204  0.12077720  1
  N  N50  1  0.88843942  0.53962692  0.87331629  1
  N  N51  1  0.77897657  0.42628016  0.62005133  1
  N  N52  1  0.55513797  0.53884530  0.37017511  1
  N  N53  1  0.44433136  0.42900169  0.12234397  1
  N  N54  1  0.22264570  0.53896074  0.87141750  1
  N  N55  1  0.11013210  0.42853518  0.62363957  1
  N  N56  1  0.88827376  0.53933608  0.36876585  1
  N  N57  1  0.77751556  0.42770579  0.12308925  1
  N  N58  1  0.55563091  0.53915848  0.87345507  1
  N  N59  1  0.44622722  0.42659458  0.62284088  1
  N  N60  1  0.22273168  0.87128010  0.37036540  1
  N  N61  1  0.11103464  0.76162619  0.12206764  1
  N  N62  1  0.88812541  0.87292555  0.87907072  1
  N  N63  1  0.78877561  0.75761237  0.61761918  1
  N  N64  1  0.55871127  0.86442094  0.38495207  1
  N  N65  1  0.45890413  0.77646506  0.12089991  1
  N  N66  1  0.22305669  0.87151744  0.87345606  1
  N  N67  1  0.10888317  0.76263056  0.62121374  1
  N  N68  1  0.87649116  0.89696173  0.36325215  1
  N  N69  1  0.74650042  0.77702600  0.12171742  1
  N  N70  1  0.55750062  0.86975388  0.82856649  1
  N  N71  1  0.43985261  0.75633378  0.61928371  1
