# generated using pymatgen
data_Al17BN18
_symmetry_space_group_name_H-M   'P 1'
_cell_length_a   9.33909114
_cell_length_b   9.33131364
_cell_length_c   10.11921067
_cell_angle_alpha   89.64790991
_cell_angle_beta   89.74925917
_cell_angle_gamma   60.00284692
_symmetry_Int_Tables_number   1
_chemical_formula_structural   Al17BN18
_chemical_formula_sum   'Al34 B2 N36'
_cell_volume   763.70992645
_cell_formula_units_Z   2
loop_
 _symmetry_equiv_pos_site_id
 _symmetry_equiv_pos_as_xyz
  1  'x, y, z'
loop_
 _atom_site_type_symbol
 _atom_site_label
 _atom_site_symmetry_multiplicity
 _atom_site_fract_x
 _atom_site_fract_y
 _atom_site_fract_z
 _atom_site_occupancy
  Al  Al0  1  0.11382138  0.08882243  0.38516262  1
  Al  Al1  1  0.22592508  0.20133601  0.13954496  1
  Al  Al2  1  0.77584705  0.09301729  0.82150773  1
  Al  Al3  1  0.88073736  0.20511079  0.56742821  1
  Al  Al4  1  0.44978760  0.08744585  0.37559394  1
  Al  Al5  1  0.56169443  0.20026319  0.08122966  1
  Al  Al6  1  0.11665169  0.08998840  0.88972210  1
  Al  Al7  1  0.22403091  0.20465534  0.63655608  1
  Al  Al8  1  0.88523352  0.20330908  0.07824007  1
  Al  Al9  1  0.44499874  0.08578252  0.89423906  1
  Al  Al10  1  0.56241317  0.20529625  0.56269039  1
  Al  Al11  1  0.10913467  0.42443352  0.38965669  1
  Al  Al12  1  0.22506390  0.54175419  0.06800855  1
  Al  Al13  1  0.77650639  0.42891450  0.86492831  1
  Al  Al14  1  0.88860874  0.54267228  0.63565101  1
  Al  Al15  1  0.44576502  0.42089632  0.31857364  1
  Al  Al16  1  0.55551449  0.54854635  0.13736059  1
  Al  Al17  1  0.10860848  0.42416130  0.88708295  1
  Al  Al18  1  0.22510460  0.54250420  0.57005590  1
  Al  Al19  1  0.77839289  0.42215121  0.35105968  1
  Al  Al20  1  0.88745017  0.54426530  0.13811577  1
  Al  Al21  1  0.44212285  0.42118901  0.82090191  1
  Al  Al22  1  0.55645279  0.54352621  0.63619064  1
  Al  Al23  1  0.10480374  0.76316077  0.31847307  1
  Al  Al24  1  0.23108349  0.87527225  0.13941356  1
  Al  Al25  1  0.76859527  0.76300356  0.89476698  1
  Al  Al26  1  0.88828650  0.88056503  0.56256939  1
  Al  Al27  1  0.44603697  0.76167252  0.38519385  1
  Al  Al28  1  0.10425931  0.76030924  0.82053317  1
  Al  Al29  1  0.22495160  0.87641599  0.63759987  1
  Al  Al30  1  0.77113578  0.76652760  0.37637755  1
  Al  Al31  1  0.88439526  0.87844624  0.08102470  1
  Al  Al32  1  0.44568553  0.76379701  0.89174202  1
  Al  Al33  1  0.55702055  0.87416792  0.63486733  1
  B  B34  1  0.78008305  0.09469639  0.31530230  1
  B  B35  1  0.55539669  0.87218653  0.14144723  1
  N  N36  1  0.22231726  0.20622962  0.32623214  1
  N  N37  1  0.11720633  0.09137617  0.07976757  1
  N  N38  1  0.88479129  0.20208716  0.88262026  1
  N  N39  1  0.77583502  0.09337582  0.63489444  1
  N  N40  1  0.58407240  0.19377081  0.36997209  1
  N  N41  1  0.45596915  0.06555811  0.08811818  1
  N  N42  1  0.22548044  0.20349815  0.82696452  1
  N  N43  1  0.11312202  0.09403787  0.57562959  1
  N  N44  1  0.87600360  0.19021693  0.37020868  1
  N  N45  1  0.77858369  0.09438867  0.15389443  1
  N  N46  1  0.55865027  0.20531916  0.88908790  1
  N  N47  1  0.44261715  0.09145739  0.56826535  1
  N  N48  1  0.22544243  0.54207140  0.38014695  1
  N  N49  1  0.10900861  0.42361100  0.07731099  1
  N  N50  1  0.88851095  0.54481785  0.82803605  1
  N  N51  1  0.77814882  0.42865667  0.59471798  1
  N  N52  1  0.55357609  0.54396597  0.32891063  1
  N  N53  1  0.44158030  0.42497586  0.12934284  1
  N  N54  1  0.22414630  0.54171584  0.87829273  1
  N  N55  1  0.10884305  0.42516707  0.57968983  1
  N  N56  1  0.89243566  0.54093987  0.32605866  1
  N  N57  1  0.77829952  0.42882758  0.10100015  1
  N  N58  1  0.55237565  0.54492678  0.83132101  1
  N  N59  1  0.44356993  0.42153551  0.62929728  1
  N  N60  1  0.22720514  0.87285782  0.32780668  1
  N  N61  1  0.10915376  0.75866857  0.12949405  1
  N  N62  1  0.88898644  0.87599368  0.88917719  1
  N  N63  1  0.77396519  0.76131062  0.56836974  1
  N  N64  1  0.55499741  0.87071841  0.30405115  1
  N  N65  1  0.45633664  0.77376584  0.08230136  1
  N  N66  1  0.22640347  0.87321853  0.82887624  1
  N  N67  1  0.10456826  0.76154171  0.62890326  1
  N  N68  1  0.87800986  0.90060489  0.36997539  1
  N  N69  1  0.74888748  0.77344004  0.08758857  1
  N  N70  1  0.55606285  0.87292858  0.82250721  1
  N  N71  1  0.44434104  0.76340609  0.57390341  1
