# generated using pymatgen
data_Al17BN18
_symmetry_space_group_name_H-M   'P 1'
_cell_length_a   9.33434861
_cell_length_b   9.32194704
_cell_length_c   10.03755026
_cell_angle_alpha   89.70397557
_cell_angle_beta   89.91931620
_cell_angle_gamma   59.94648342
_symmetry_Int_Tables_number   1
_chemical_formula_structural   Al17BN18
_chemical_formula_sum   'Al34 B2 N36'
_cell_volume   755.97660961
_cell_formula_units_Z   2
loop_
 _symmetry_equiv_pos_site_id
 _symmetry_equiv_pos_as_xyz
  1  'x, y, z'
loop_
 _atom_site_type_symbol
 _atom_site_label
 _atom_site_symmetry_multiplicity
 _atom_site_fract_x
 _atom_site_fract_y
 _atom_site_fract_z
 _atom_site_occupancy
  Al  Al0  1  0.10635012  0.09367261  0.38648952  1
  Al  Al1  1  0.22427416  0.20086029  0.13590786  1
  Al  Al2  1  0.77746496  0.08857025  0.81906590  1
  Al  Al3  1  0.89276056  0.20943024  0.63593319  1
  Al  Al4  1  0.44937967  0.09002569  0.37492115  1
  Al  Al5  1  0.55370929  0.20066185  0.13365995  1
  Al  Al6  1  0.11115617  0.09466272  0.88639923  1
  Al  Al7  1  0.22491197  0.20424163  0.63540179  1
  Al  Al8  1  0.89187526  0.20649677  0.13925575  1
  Al  Al9  1  0.44685144  0.08904159  0.89143514  1
  Al  Al10  1  0.55219998  0.20651496  0.61564707  1
  Al  Al11  1  0.11094160  0.42703683  0.38652804  1
  Al  Al12  1  0.22278717  0.53742173  0.13746302  1
  Al  Al13  1  0.77787637  0.42692039  0.88638437  1
  Al  Al14  1  0.88740573  0.54348085  0.63398543  1
  Al  Al15  1  0.45035442  0.42472838  0.38181551  1
  Al  Al16  1  0.55752929  0.54318794  0.13612903  1
  Al  Al17  1  0.11148783  0.42809627  0.88403204  1
  Al  Al18  1  0.22088523  0.54131209  0.63442929  1
  Al  Al19  1  0.77660628  0.42265604  0.38671505  1
  Al  Al20  1  0.88426533  0.54052544  0.13609422  1
  Al  Al21  1  0.44488513  0.42720844  0.88845806  1
  Al  Al22  1  0.55496451  0.54056203  0.63584170  1
  Al  Al23  1  0.11388420  0.76391378  0.37764870  1
  Al  Al24  1  0.22818115  0.87375009  0.13642018  1
  Al  Al25  1  0.76832597  0.76066332  0.89004256  1
  Al  Al26  1  0.88139083  0.88573808  0.55755553  1
  Al  Al27  1  0.44631798  0.76223534  0.38108343  1
  Al  Al28  1  0.11687415  0.75852791  0.88789012  1
  Al  Al29  1  0.22285761  0.87148254  0.63475812  1
  Al  Al30  1  0.77160562  0.76503951  0.36998278  1
  Al  Al31  1  0.88315428  0.87471860  0.07803526  1
  Al  Al32  1  0.44676510  0.76382366  0.88831349  1
  Al  Al33  1  0.55670833  0.87213763  0.63239305  1
  B  B34  1  0.78050835  0.08895734  0.30328924  1
  B  B35  1  0.55425231  0.86987729  0.13922935  1
  N  N36  1  0.22041657  0.20565483  0.32519620  1
  N  N37  1  0.11039008  0.09462476  0.07584580  1
  N  N38  1  0.89189324  0.20786033  0.82841507  1
  N  N39  1  0.77892398  0.09241861  0.62764813  1
  N  N40  1  0.57522356  0.19559546  0.33149615  1
  N  N41  1  0.45527944  0.06824800  0.08496800  1
  N  N42  1  0.22490489  0.20395351  0.82704677  1
  N  N43  1  0.11234257  0.09458562  0.57603469  1
  N  N44  1  0.87950973  0.19633071  0.33098850  1
  N  N45  1  0.78237094  0.08656025  0.14108298  1
  N  N46  1  0.55040289  0.20630170  0.84042180  1
  N  N47  1  0.44415926  0.09179167  0.56678942  1
  N  N48  1  0.22293772  0.53725110  0.32623324  1
  N  N49  1  0.11057509  0.42799829  0.07503886  1
  N  N50  1  0.88723284  0.54163350  0.82591199  1
  N  N51  1  0.77730838  0.42968279  0.57633656  1
  N  N52  1  0.55655397  0.54000589  0.32479237  1
  N  N53  1  0.44543871  0.42818673  0.07976267  1
  N  N54  1  0.22271281  0.53977776  0.82494082  1
  N  N55  1  0.11116159  0.42797000  0.57686113  1
  N  N56  1  0.88945005  0.53609359  0.32493683  1
  N  N57  1  0.77829174  0.42575872  0.07597459  1
  N  N58  1  0.55433929  0.54084403  0.82771486  1
  N  N59  1  0.44354380  0.43087566  0.57271888  1
  N  N60  1  0.22444002  0.87408760  0.32437125  1
  N  N61  1  0.11987686  0.75791577  0.08125821  1
  N  N62  1  0.88553751  0.87447221  0.88335970  1
  N  N63  1  0.77363840  0.76125754  0.56518947  1
  N  N64  1  0.55328513  0.87160929  0.30216642  1
  N  N65  1  0.45674627  0.77344115  0.08148497  1
  N  N66  1  0.22401582  0.87169235  0.82643289  1
  N  N67  1  0.11327514  0.76125084  0.57150599  1
  N  N68  1  0.87450635  0.90221851  0.36117368  1
  N  N69  1  0.74894044  0.76980149  0.08614089  1
  N  N70  1  0.55467136  0.87315340  0.82062012  1
  N  N71  1  0.44501005  0.76240923  0.57218608  1
