# generated using pymatgen
data_Al17BN18
_symmetry_space_group_name_H-M   'P 1'
_cell_length_a   9.29940686
_cell_length_b   9.29940798
_cell_length_c   9.93903306
_cell_angle_alpha   90.02505648
_cell_angle_beta   90.02507832
_cell_angle_gamma   60.01363689
_symmetry_Int_Tables_number   1
_chemical_formula_structural   Al17BN18
_chemical_formula_sum   'Al34 B2 N36'
_cell_volume   744.46609462
_cell_formula_units_Z   2
loop_
 _symmetry_equiv_pos_site_id
 _symmetry_equiv_pos_as_xyz
  1  'x, y, z'
loop_
 _atom_site_type_symbol
 _atom_site_label
 _atom_site_symmetry_multiplicity
 _atom_site_fract_x
 _atom_site_fract_y
 _atom_site_fract_z
 _atom_site_occupancy
  Al  Al0  1  0.10783099  0.09268362  0.30201232  1
  Al  Al1  1  0.22590248  0.20005463  0.05184847  1
  Al  Al2  1  0.77769889  0.09436615  0.80328168  1
  Al  Al3  1  0.88598411  0.20264924  0.54743415  1
  Al  Al4  1  0.45218753  0.08743709  0.29736109  1
  Al  Al5  1  0.55942462  0.19934129  0.05815290  1
  Al  Al6  1  0.10930051  0.09520044  0.80150668  1
  Al  Al7  1  0.22398568  0.20474996  0.55205818  1
  Al  Al8  1  0.88755247  0.20421863  0.05797113  1
  Al  Al9  1  0.44671407  0.09250581  0.80888433  1
  Al  Al10  1  0.56026369  0.20175342  0.54792260  1
  Al  Al11  1  0.11131325  0.42797858  0.30096861  1
  Al  Al12  1  0.22242187  0.53908901  0.05112791  1
  Al  Al13  1  0.77853450  0.42596651  0.80150677  1
  Al  Al14  1  0.88808449  0.54065093  0.55205829  1
  Al  Al15  1  0.44937481  0.42450772  0.30158568  1
  Al  Al16  1  0.55720942  0.54237048  0.05127316  1
  Al  Al17  1  0.11091262  0.42757840  0.80189891  1
  Al  Al18  1  0.22215629  0.53882300  0.55165633  1
  Al  Al19  1  0.77601646  0.42449820  0.30201222  1
  Al  Al20  1  0.88338887  0.54256831  0.05184828  1
  Al  Al21  1  0.44578946  0.42580062  0.80207224  1
  Al  Al22  1  0.55494510  0.54044555  0.55216664  1
  Al  Al23  1  0.10784085  0.76604125  0.30158550  1
  Al  Al24  1  0.22570427  0.87387561  0.05127347  1
  Al  Al25  1  0.77583902  0.76338066  0.80888431  1
  Al  Al26  1  0.88508739  0.87693026  0.54792255  1
  Al  Al27  1  0.44726823  0.76393509  0.29741268  1
  Al  Al28  1  0.10913333  0.76245688  0.80207237  1
  Al  Al29  1  0.22378063  0.87161011  0.55216633  1
  Al  Al30  1  0.77077162  0.76885305  0.29736105  1
  Al  Al31  1  0.88267369  0.87609210  0.05815276  1
  Al  Al32  1  0.44573090  0.76239796  0.80836431  1
  Al  Al33  1  0.55576926  0.87243410  0.55390170  1
  B  B34  1  0.77747069  0.09413767  0.29735288  1
  B  B35  1  0.55557563  0.87224192  0.04810720  1
  N  N36  1  0.22510536  0.20399971  0.35903132  1
  N  N37  1  0.11095327  0.09429372  0.11212523  1
  N  N38  1  0.88802637  0.20469253  0.86524619  1
  N  N39  1  0.77754177  0.09420825  0.61422997  1
  N  N40  1  0.57938867  0.19214871  0.35217925  1
  N  N41  1  0.45702475  0.06883407  0.10407828  1
  N  N42  1  0.22189800  0.20514719  0.86094527  1
  N  N43  1  0.10900097  0.09563080  0.60862688  1
  N  N44  1  0.87615659  0.19282353  0.35387726  1
  N  N45  1  0.77789252  0.09455974  0.13290980  1
  N  N46  1  0.55773041  0.20477667  0.86646509  1
  N  N47  1  0.44640361  0.09399984  0.61471761  1
  N  N48  1  0.22263413  0.53930062  0.36031924  1
  N  N49  1  0.11081982  0.42748570  0.10977385  1
  N  N50  1  0.88848106  0.53856429  0.86094508  1
  N  N51  1  0.77896561  0.42566611  0.60862699  1
  N  N52  1  0.55400780  0.54199697  0.36015373  1
  N  N53  1  0.44506469  0.42799762  0.11083674  1
  N  N54  1  0.22244053  0.53910776  0.85974854  1
  N  N55  1  0.11092863  0.42759413  0.61040080  1
  N  N56  1  0.88733407  0.54177101  0.35903129  1
  N  N57  1  0.77762741  0.42761958  0.11212510  1
  N  N58  1  0.55624648  0.53799016  0.86067780  1
  N  N59  1  0.44597782  0.42520761  0.60895121  1
  N  N60  1  0.22533013  0.87067450  0.36015349  1
  N  N61  1  0.11133029  0.76173175  0.11083664  1
  N  N62  1  0.88810931  0.87439766  0.86646500  1
  N  N63  1  0.77733464  0.76306908  0.61471756  1
  N  N64  1  0.55538539  0.87205099  0.36539336  1
  N  N65  1  0.45691389  0.77358015  0.10323447  1
  N  N66  1  0.22132352  0.87291296  0.86067815  1
  N  N67  1  0.10854145  0.76264432  0.60895134  1
  N  N68  1  0.87548202  0.89605537  0.35217930  1
  N  N69  1  0.75216785  0.77369084  0.10407819  1
  N  N70  1  0.55564707  0.87231380  0.88228421  1
  N  N71  1  0.44538641  0.76205172  0.61605479  1
