# generated using pymatgen
data_Al17BN18
_symmetry_space_group_name_H-M   'P 1'
_cell_length_a   9.31879441
_cell_length_b   9.31878471
_cell_length_c   10.13028595
_cell_angle_alpha   89.67706482
_cell_angle_beta   89.68096111
_cell_angle_gamma   60.07058765
_symmetry_Int_Tables_number   1
_chemical_formula_structural   Al17BN18
_chemical_formula_sum   'Al34 B2 N36'
_cell_volume   762.37863945
_cell_formula_units_Z   2
loop_
 _symmetry_equiv_pos_site_id
 _symmetry_equiv_pos_as_xyz
  1  'x, y, z'
loop_
 _atom_site_type_symbol
 _atom_site_label
 _atom_site_symmetry_multiplicity
 _atom_site_fract_x
 _atom_site_fract_y
 _atom_site_fract_z
 _atom_site_occupancy
  Al  Al0  1  0.10204133  0.09172514  0.32014793  1
  Al  Al1  1  0.22878049  0.20345015  0.14120462  1
  Al  Al2  1  0.77582262  0.09248951  0.82484135  1
  Al  Al3  1  0.88698838  0.20365008  0.56814600  1
  Al  Al4  1  0.44913220  0.08895447  0.37879184  1
  Al  Al5  1  0.56212437  0.20051384  0.08406836  1
  Al  Al6  1  0.10671164  0.09181035  0.82129488  1
  Al  Al7  1  0.22878478  0.20683866  0.63874603  1
  Al  Al8  1  0.88777257  0.20443777  0.07501887  1
  Al  Al9  1  0.44456104  0.08721662  0.89738609  1
  Al  Al10  1  0.56426288  0.20489661  0.56534986  1
  Al  Al11  1  0.10843077  0.42508941  0.39143607  1
  Al  Al12  1  0.22536528  0.54203232  0.07057715  1
  Al  Al13  1  0.77514134  0.42338109  0.82129509  1
  Al  Al14  1  0.89017625  0.54544654  0.63874450  1
  Al  Al15  1  0.44842143  0.42396935  0.31971027  1
  Al  Al16  1  0.55982853  0.53882022  0.07440822  1
  Al  Al17  1  0.10796337  0.42462763  0.88966413  1
  Al  Al18  1  0.22584553  0.54250962  0.57267531  1
  Al  Al19  1  0.77505981  0.41870578  0.32014809  1
  Al  Al20  1  0.88678811  0.54544408  0.14120545  1
  Al  Al21  1  0.44541733  0.42461560  0.82233947  1
  Al  Al22  1  0.55933464  0.53477291  0.57019479  1
  Al  Al23  1  0.10730621  0.76508512  0.31971082  1
  Al  Al24  1  0.22215716  0.87649272  0.07440798  1
  Al  Al25  1  0.77055428  0.76122401  0.89738531  1
  Al  Al26  1  0.88823190  0.88092839  0.56534914  1
  Al  Al27  1  0.44701076  0.76367289  0.37289676  1
  Al  Al28  1  0.10794852  0.76208404  0.82233775  1
  Al  Al29  1  0.21811532  0.87599563  0.57019479  1
  Al  Al30  1  0.77229497  0.76579188  0.37879080  1
  Al  Al31  1  0.88384937  0.87879000  0.08406701  1
  Al  Al32  1  0.44861521  0.76528240  0.88194387  1
  Al  Al33  1  0.55708072  0.87374131  0.63692802  1
  B  B34  1  0.77798952  0.09464792  0.31842298  1
  B  B35  1  0.55365165  0.87031753  0.14352774  1
  N  N36  1  0.22441709  0.20800608  0.32995783  1
  N  N37  1  0.10663598  0.09321331  0.13171664  1
  N  N38  1  0.88774246  0.20440555  0.88607459  1
  N  N39  1  0.77698026  0.09363877  0.63738136  1
  N  N40  1  0.58446545  0.19425599  0.37178298  1
  N  N41  1  0.45541043  0.06603651  0.08929291  1
  N  N42  1  0.22842911  0.20558885  0.83033175  1
  N  N43  1  0.10625395  0.09400985  0.63029958  1
  N  N44  1  0.87680281  0.19346148  0.37723478  1
  N  N45  1  0.77863034  0.09529140  0.15584195  1
  N  N46  1  0.55883265  0.20677781  0.89158629  1
  N  N47  1  0.44423235  0.09135704  0.57013683  1
  N  N48  1  0.22600111  0.54265806  0.38189075  1
  N  N49  1  0.10796436  0.42463336  0.07940848  1
  N  N50  1  0.88891911  0.54509909  0.83033015  1
  N  N51  1  0.77735324  0.42290979  0.63030010  1
  N  N52  1  0.55836401  0.53326560  0.37955038  1
  N  N53  1  0.44382578  0.42787379  0.13323023  1
  N  N54  1  0.22522965  0.54189062  0.88004369  1
  N  N55  1  0.10883768  0.42550552  0.58101940  1
  N  N56  1  0.89134102  0.54108172  0.32995861  1
  N  N57  1  0.77655484  0.42329535  0.13171691  1
  N  N58  1  0.55708848  0.53513017  0.88296078  1
  N  N59  1  0.44669610  0.42387153  0.63243524  1
  N  N60  1  0.21660435  0.87502444  0.37955127  1
  N  N61  1  0.11121299  0.76048700  0.13323104  1
  N  N62  1  0.89011804  0.87549183  0.89158528  1
  N  N63  1  0.77468843  0.76090097  0.57013574  1
  N  N64  1  0.55602150  0.87268613  0.30539089  1
  N  N65  1  0.45784372  0.77450480  0.09213600  1
  N  N66  1  0.21846374  0.87375227  0.88296174  1
  N  N67  1  0.10721320  0.76335557  0.63243353  1
  N  N68  1  0.87759845  0.90112440  0.37178314  1
  N  N69  1  0.74937011  0.77207949  0.08929285  1
  N  N70  1  0.55810465  0.87477491  0.82384994  1
  N  N71  1  0.44716683  0.76382197  0.58368306  1
