# generated using pymatgen
data_Al17BN18
_symmetry_space_group_name_H-M   'P 1'
_cell_length_a   9.34232943
_cell_length_b   9.33126252
_cell_length_c   10.12472964
_cell_angle_alpha   89.64149247
_cell_angle_beta   89.75459360
_cell_angle_gamma   59.98249553
_symmetry_Int_Tables_number   1
_chemical_formula_structural   Al17BN18
_chemical_formula_sum   'Al34 B2 N36'
_cell_volume   764.23009174
_cell_formula_units_Z   2
loop_
 _symmetry_equiv_pos_site_id
 _symmetry_equiv_pos_as_xyz
  1  'x, y, z'
loop_
 _atom_site_type_symbol
 _atom_site_label
 _atom_site_symmetry_multiplicity
 _atom_site_fract_x
 _atom_site_fract_y
 _atom_site_fract_z
 _atom_site_occupancy
  Al  Al0  1  0.11383098  0.08888924  0.38543908  1
  Al  Al1  1  0.22589864  0.20122842  0.13960467  1
  Al  Al2  1  0.77575897  0.09298424  0.82161847  1
  Al  Al3  1  0.88001731  0.20637728  0.56672122  1
  Al  Al4  1  0.44975543  0.08742798  0.37561617  1
  Al  Al5  1  0.56178715  0.20019419  0.08127773  1
  Al  Al6  1  0.11666335  0.09005735  0.88995127  1
  Al  Al7  1  0.22402169  0.20458682  0.63658763  1
  Al  Al8  1  0.88464754  0.20435924  0.07734615  1
  Al  Al9  1  0.44496027  0.08576432  0.89428153  1
  Al  Al10  1  0.56249665  0.20519220  0.56269755  1
  Al  Al11  1  0.10908662  0.42448162  0.38977376  1
  Al  Al12  1  0.22507607  0.54177854  0.06798617  1
  Al  Al13  1  0.77836078  0.42583614  0.84423864  1
  Al  Al14  1  0.88960146  0.54370131  0.63563311  1
  Al  Al15  1  0.44567058  0.42106052  0.31888959  1
  Al  Al16  1  0.55431200  0.54899634  0.13699180  1
  Al  Al17  1  0.10862886  0.42419294  0.88737902  1
  Al  Al18  1  0.22507590  0.54253434  0.56993350  1
  Al  Al19  1  0.78002312  0.41933667  0.33306258  1
  Al  Al20  1  0.88829426  0.54489085  0.13813346  1
  Al  Al21  1  0.44189766  0.42128478  0.82119408  1
  Al  Al22  1  0.55455092  0.54442418  0.63586392  1
  Al  Al23  1  0.10480116  0.76316506  0.31849472  1
  Al  Al24  1  0.23091466  0.87543666  0.13952369  1
  Al  Al25  1  0.76852774  0.76296735  0.89503705  1
  Al  Al26  1  0.88827298  0.88081378  0.56253906  1
  Al  Al27  1  0.44612949  0.76150742  0.38525552  1
  Al  Al28  1  0.10424044  0.76030859  0.82056910  1
  Al  Al29  1  0.22468435  0.87670032  0.63768412  1
  Al  Al30  1  0.77112746  0.76642087  0.37654189  1
  Al  Al31  1  0.88442557  0.87861109  0.08106548  1
  Al  Al32  1  0.44572160  0.76373552  0.89195276  1
  Al  Al33  1  0.55696420  0.87427180  0.63501410  1
  B  B34  1  0.77986191  0.09466320  0.31553148  1
  B  B35  1  0.55536105  0.87225791  0.14158716  1
  N  N36  1  0.22226072  0.20622549  0.32621902  1
  N  N37  1  0.11709154  0.09142965  0.07964513  1
  N  N38  1  0.88402341  0.20325336  0.88373760  1
  N  N39  1  0.77594316  0.09353742  0.63497961  1
  N  N40  1  0.58404680  0.19364842  0.37001073  1
  N  N41  1  0.45597264  0.06554742  0.08812744  1
  N  N42  1  0.22534292  0.20356130  0.82696794  1
  N  N43  1  0.11293249  0.09425707  0.57562260  1
  N  N44  1  0.87561880  0.19099782  0.37142550  1
  N  N45  1  0.77874346  0.09447312  0.15396934  1
  N  N46  1  0.55860219  0.20523540  0.88913946  1
  N  N47  1  0.44258980  0.09150015  0.56827038  1
  N  N48  1  0.22538986  0.54206967  0.38021917  1
  N  N49  1  0.10922455  0.42350192  0.07734054  1
  N  N50  1  0.88927909  0.54567488  0.82876253  1
  N  N51  1  0.77948709  0.42623638  0.61012762  1
  N  N52  1  0.55294352  0.54399016  0.33044258  1
  N  N53  1  0.44148842  0.42494332  0.12945568  1
  N  N54  1  0.22405788  0.54172774  0.87840750  1
  N  N55  1  0.10907307  0.42506540  0.57964446  1
  N  N56  1  0.89291384  0.54150241  0.32697621  1
  N  N57  1  0.77995975  0.42591775  0.11558274  1
  N  N58  1  0.55103837  0.54538738  0.83262648  1
  N  N59  1  0.44338381  0.42146979  0.62936531  1
  N  N60  1  0.22709591  0.87299770  0.32780690  1
  N  N61  1  0.10916256  0.75864418  0.12956739  1
  N  N62  1  0.88896824  0.87614826  0.88931581  1
  N  N63  1  0.77378524  0.76156196  0.56837276  1
  N  N64  1  0.55501109  0.87069688  0.30406602  1
  N  N65  1  0.45639023  0.77383903  0.08238313  1
  N  N66  1  0.22621860  0.87341351  0.82887189  1
  N  N67  1  0.10455021  0.76152990  0.62896550  1
  N  N68  1  0.87795932  0.90077364  0.37005087  1
  N  N69  1  0.74885424  0.77342565  0.08756884  1
  N  N70  1  0.55605765  0.87287134  0.82256061  1
  N  N71  1  0.44419379  0.76375009  0.57393349  1
