# generated using pymatgen
data_Al17BN18
_symmetry_space_group_name_H-M   'P 1'
_cell_length_a   9.33550177
_cell_length_b   9.32643128
_cell_length_c   10.03409251
_cell_angle_alpha   89.70841130
_cell_angle_beta   89.90645635
_cell_angle_gamma   59.95082800
_symmetry_Int_Tables_number   1
_chemical_formula_structural   Al17BN18
_chemical_formula_sum   'Al34 B2 N36'
_cell_volume   756.20687930
_cell_formula_units_Z   2
loop_
 _symmetry_equiv_pos_site_id
 _symmetry_equiv_pos_as_xyz
  1  'x, y, z'
loop_
 _atom_site_type_symbol
 _atom_site_label
 _atom_site_symmetry_multiplicity
 _atom_site_fract_x
 _atom_site_fract_y
 _atom_site_fract_z
 _atom_site_occupancy
  Al  Al0  1  0.10528015  0.09291534  0.32262449  1
  Al  Al1  1  0.21970363  0.20246684  0.08116464  1
  Al  Al2  1  0.77661322  0.09454242  0.82643814  1
  Al  Al3  1  0.88654096  0.20290903  0.57068325  1
  Al  Al4  1  0.45053374  0.09156108  0.38107569  1
  Al  Al5  1  0.56158721  0.20170387  0.08885841  1
  Al  Al6  1  0.11033884  0.09524276  0.82403936  1
  Al  Al7  1  0.21659054  0.20810597  0.57117212  1
  Al  Al8  1  0.88703724  0.20435517  0.07763633  1
  Al  Al9  1  0.45115719  0.08199430  0.90059603  1
  Al  Al10  1  0.56489219  0.20591711  0.56901219  1
  Al  Al11  1  0.11133244  0.42857458  0.32131876  1
  Al  Al12  1  0.22264305  0.53955949  0.07234718  1
  Al  Al13  1  0.77834652  0.42623185  0.82297286  1
  Al  Al14  1  0.88842641  0.53910792  0.56954025  1
  Al  Al15  1  0.44917031  0.42609026  0.32298285  1
  Al  Al16  1  0.55659222  0.54396606  0.07220632  1
  Al  Al17  1  0.11201698  0.42594789  0.82432489  1
  Al  Al18  1  0.22165460  0.53873506  0.57494894  1
  Al  Al19  1  0.77584233  0.42288015  0.32270005  1
  Al  Al20  1  0.88422138  0.53960256  0.07924803  1
  Al  Al21  1  0.44591192  0.42338277  0.82482885  1
  Al  Al22  1  0.55544980  0.54004720  0.57263319  1
  Al  Al23  1  0.10967753  0.76577591  0.32299089  1
  Al  Al24  1  0.22712478  0.87300646  0.07232127  1
  Al  Al25  1  0.77664109  0.76224562  0.86511748  1
  Al  Al26  1  0.88650869  0.87816385  0.56681802  1
  Al  Al27  1  0.44183905  0.76019744  0.31939428  1
  Al  Al28  1  0.10811287  0.76243299  0.82341896  1
  Al  Al29  1  0.22239894  0.87205602  0.57267734  1
  Al  Al30  1  0.77903206  0.76623000  0.33415749  1
  Al  Al31  1  0.88483025  0.87748387  0.08611274  1
  Al  Al32  1  0.44044395  0.75725762  0.82261899  1
  Al  Al33  1  0.55832451  0.87693506  0.63951917  1
  B  B34  1  0.77960492  0.09679203  0.31956087  1
  B  B35  1  0.55329707  0.87758234  0.15490183  1
  N  N36  1  0.21404381  0.20830299  0.37761624  1
  N  N37  1  0.10887291  0.09258630  0.13449515  1
  N  N38  1  0.88823981  0.20439557  0.88660534  1
  N  N39  1  0.77867255  0.09356006  0.63835269  1
  N  N40  1  0.58445091  0.19681634  0.37285568  1
  N  N41  1  0.45871162  0.06454610  0.09707590  1
  N  N42  1  0.21969215  0.20575221  0.88712550  1
  N  N43  1  0.10924115  0.09505106  0.63242881  1
  N  N44  1  0.87668903  0.19324131  0.37749291  1
  N  N45  1  0.77973962  0.09576322  0.15672038  1
  N  N46  1  0.55962942  0.20560442  0.89354938  1
  N  N47  1  0.44762870  0.09216167  0.57603275  1
  N  N48  1  0.22270906  0.53876771  0.38389206  1
  N  N49  1  0.11126558  0.42886436  0.13262877  1
  N  N50  1  0.89002799  0.53511130  0.88710693  1
  N  N51  1  0.77903340  0.42582376  0.63125454  1
  N  N52  1  0.55508822  0.54106138  0.38292747  1
  N  N53  1  0.44392440  0.43050724  0.13400897  1
  N  N54  1  0.22209757  0.53882695  0.88202609  1
  N  N55  1  0.11026442  0.42716269  0.63392796  1
  N  N56  1  0.88917332  0.53593028  0.37728688  1
  N  N57  1  0.77643184  0.42613786  0.13416809  1
  N  N58  1  0.55603417  0.53720427  0.88255829  1
  N  N59  1  0.44605101  0.42517210  0.63295392  1
  N  N60  1  0.22347797  0.87203872  0.38310819  1
  N  N61  1  0.11357246  0.76073060  0.13380020  1
  N  N62  1  0.88965387  0.87565484  0.89317266  1
  N  N63  1  0.77964587  0.76206459  0.60226315  1
  N  N64  1  0.55185262  0.88004362  0.31609724  1
  N  N65  1  0.45374069  0.77023611  0.12762966  1
  N  N66  1  0.22096049  0.87218412  0.88276842  1
  N  N67  1  0.10819230  0.76290039  0.63189835  1
  N  N68  1  0.87915318  0.89956504  0.37247222  1
  N  N69  1  0.75661026  0.77168017  0.12173238  1
  N  N70  1  0.55516612  0.87422831  0.83092843  1
  N  N71  1  0.44153397  0.75905628  0.63080436  1
