# generated using pymatgen
data_Al17BN18
_symmetry_space_group_name_H-M   'P 1'
_cell_length_a   9.32693145
_cell_length_b   9.30722163
_cell_length_c   10.06619033
_cell_angle_alpha   89.68462377
_cell_angle_beta   89.96040691
_cell_angle_gamma   59.92612011
_symmetry_Int_Tables_number   1
_chemical_formula_structural   Al17BN18
_chemical_formula_sum   'Al34 B2 N36'
_cell_volume   756.17618222
_cell_formula_units_Z   2
loop_
 _symmetry_equiv_pos_site_id
 _symmetry_equiv_pos_as_xyz
  1  'x, y, z'
loop_
 _atom_site_type_symbol
 _atom_site_label
 _atom_site_symmetry_multiplicity
 _atom_site_fract_x
 _atom_site_fract_y
 _atom_site_fract_z
 _atom_site_occupancy
  Al  Al0  1  0.10418891  0.09356305  0.31415333  1
  Al  Al1  1  0.21854802  0.20391258  0.07345700  1
  Al  Al2  1  0.77733974  0.09395737  0.81842306  1
  Al  Al3  1  0.88683788  0.20285711  0.56233660  1
  Al  Al4  1  0.44894480  0.09307558  0.37180916  1
  Al  Al5  1  0.56193013  0.20184744  0.08151200  1
  Al  Al6  1  0.11150908  0.09466928  0.81653552  1
  Al  Al7  1  0.21638535  0.20812094  0.56226710  1
  Al  Al8  1  0.88670862  0.20497549  0.07025120  1
  Al  Al9  1  0.45458168  0.07770882  0.89565016  1
  Al  Al10  1  0.56545649  0.20587755  0.55992770  1
  Al  Al11  1  0.10813777  0.43137824  0.31319302  1
  Al  Al12  1  0.22173331  0.54010802  0.06434798  1
  Al  Al13  1  0.77915526  0.42559072  0.81505456  1
  Al  Al14  1  0.88925872  0.53924735  0.56386624  1
  Al  Al15  1  0.44850463  0.42677537  0.31435468  1
  Al  Al16  1  0.55672363  0.54449333  0.06428757  1
  Al  Al17  1  0.11457884  0.42355130  0.81659621  1
  Al  Al18  1  0.22286575  0.53789348  0.56652263  1
  Al  Al19  1  0.77556373  0.42538858  0.31465167  1
  Al  Al20  1  0.88088624  0.54557085  0.06460509  1
  Al  Al21  1  0.44707193  0.42188071  0.81743213  1
  Al  Al22  1  0.55581568  0.53903813  0.56434240  1
  Al  Al23  1  0.10691674  0.76660500  0.31450360  1
  Al  Al24  1  0.22626061  0.87329516  0.06468364  1
  Al  Al25  1  0.78659248  0.75753726  0.81593308  1
  Al  Al26  1  0.88723664  0.87713242  0.56033370  1
  Al  Al27  1  0.44014627  0.76046749  0.31223555  1
  Al  Al28  1  0.11025505  0.76154473  0.81550651  1
  Al  Al29  1  0.22198538  0.87181095  0.56417170  1
  Al  Al30  1  0.77919082  0.76688103  0.31250852  1
  Al  Al31  1  0.88221936  0.87604192  0.07160755  1
  Al  Al32  1  0.44203491  0.75666446  0.81528917  1
  Al  Al33  1  0.55307316  0.87964770  0.63189473  1
  B  B34  1  0.77820840  0.09680153  0.31191104  1
  B  B35  1  0.55141299  0.87816870  0.14891746  1
  N  N36  1  0.21160619  0.21031105  0.36956682  1
  N  N37  1  0.10866008  0.09299556  0.12689096  1
  N  N38  1  0.88916907  0.20361469  0.87925260  1
  N  N39  1  0.77880021  0.09352457  0.63027165  1
  N  N40  1  0.58391284  0.19734127  0.36425681  1
  N  N41  1  0.45836157  0.06491225  0.09143002  1
  N  N42  1  0.22186698  0.20395982  0.88039707  1
  N  N43  1  0.10977013  0.09474725  0.62490659  1
  N  N44  1  0.87585141  0.19400825  0.36937028  1
  N  N45  1  0.78054452  0.09395172  0.14876359  1
  N  N46  1  0.56093581  0.20405701  0.88693845  1
  N  N47  1  0.44808824  0.09210958  0.56561424  1
  N  N48  1  0.22235961  0.53899541  0.37579544  1
  N  N49  1  0.10803015  0.43135373  0.12449907  1
  N  N50  1  0.89052833  0.53659506  0.87503752  1
  N  N51  1  0.77925035  0.42579308  0.62342653  1
  N  N52  1  0.55474996  0.54094100  0.37523337  1
  N  N53  1  0.44352314  0.43121250  0.12615929  1
  N  N54  1  0.22346606  0.53770612  0.87444791  1
  N  N55  1  0.11192965  0.42619204  0.62632392  1
  N  N56  1  0.88594888  0.54210432  0.37388523  1
  N  N57  1  0.77723658  0.42827092  0.12591278  1
  N  N58  1  0.55690323  0.53618260  0.87503744  1
  N  N59  1  0.44685975  0.42424147  0.62548925  1
  N  N60  1  0.22131118  0.87246951  0.37517284  1
  N  N61  1  0.11086327  0.76200867  0.12529066  1
  N  N62  1  0.88972096  0.87273849  0.88088839  1
  N  N63  1  0.78583553  0.75915253  0.62078594  1
  N  N64  1  0.54982831  0.88017260  0.31123515  1
  N  N65  1  0.45309391  0.77077667  0.12097011  1
  N  N66  1  0.22229735  0.87134645  0.87543550  1
  N  N67  1  0.10938056  0.76188136  0.62411615  1
  N  N68  1  0.87620395  0.89795735  0.36802630  1
  N  N69  1  0.75784719  0.77161898  0.12169243  1
  N  N70  1  0.55628613  0.87304619  0.82237210  1
  N  N71  1  0.44150981  0.75825746  0.62226702  1
