# generated using pymatgen
data_Al17BN18
_symmetry_space_group_name_H-M   'P 1'
_cell_length_a   9.29942735
_cell_length_b   9.29942761
_cell_length_c   9.93899535
_cell_angle_alpha   90.02495305
_cell_angle_beta   90.02503207
_cell_angle_gamma   60.01363190
_symmetry_Int_Tables_number   1
_chemical_formula_structural   Al17BN18
_chemical_formula_sum   'Al34 B2 N36'
_cell_volume   744.46644533
_cell_formula_units_Z   2
loop_
 _symmetry_equiv_pos_site_id
 _symmetry_equiv_pos_as_xyz
  1  'x, y, z'
loop_
 _atom_site_type_symbol
 _atom_site_label
 _atom_site_symmetry_multiplicity
 _atom_site_fract_x
 _atom_site_fract_y
 _atom_site_fract_z
 _atom_site_occupancy
  Al  Al0  1  0.10765157  0.09281439  0.39998130  1
  Al  Al1  1  0.22551441  0.20064849  0.14966824  1
  Al  Al2  1  0.77758669  0.09425484  0.89735725  1
  Al  Al3  1  0.88762489  0.20429177  0.64289069  1
  Al  Al4  1  0.45068105  0.09059701  0.39310421  1
  Al  Al5  1  0.56258393  0.19783725  0.15389872  1
  Al  Al6  1  0.10957589  0.09507867  0.89908735  1
  Al  Al7  1  0.22422272  0.20423279  0.64918190  1
  Al  Al8  1  0.88608749  0.20275437  0.15384535  1
  Al  Al9  1  0.44826929  0.08975949  0.90333588  1
  Al  Al10  1  0.55751638  0.20330903  0.64237148  1
  Al  Al11  1  0.11093462  0.42760099  0.40012525  1
  Al  Al12  1  0.22204281  0.53871143  0.15028406  1
  Al  Al13  1  0.77841171  0.42624276  0.89908751  1
  Al  Al14  1  0.88756639  0.54088901  0.64918186  1
  Al  Al15  1  0.44996633  0.42412225  0.39940663  1
  Al  Al16  1  0.55733884  0.54219134  0.14924272  1
  Al  Al17  1  0.11120022  0.42786679  0.89959579  1
  Al  Al18  1  0.22244374  0.53911155  0.64935395  1
  Al  Al19  1  0.77614563  0.42432029  0.39998119  1
  Al  Al20  1  0.88398195  0.54218088  0.14966830  1
  Al  Al21  1  0.44527145  0.42603810  0.89919542  1
  Al  Al22  1  0.55482184  0.54072290  0.64974753  1
  Al  Al23  1  0.10745361  0.76663433  0.39940658  1
  Al  Al24  1  0.22552370  0.87400638  0.14924287  1
  Al  Al25  1  0.77309257  0.76493607  0.90333584  1
  Al  Al26  1  0.88664177  0.87418412  0.64237155  1
  Al  Al27  1  0.44580246  0.76247168  0.39328511  1
  Al  Al28  1  0.10936989  0.76194006  0.89919541  1
  Al  Al29  1  0.22405633  0.87148850  0.64974732  1
  Al  Al30  1  0.77392991  0.76734768  0.39310424  1
  Al  Al31  1  0.88116838  0.87925207  0.15389867  1
  Al  Al32  1  0.44737193  0.76403956  0.90382355  1
  Al  Al33  1  0.55565696  0.87232306  0.64797741  1
  B  B34  1  0.77777950  0.09444789  0.40315215  1
  B  B35  1  0.55588468  0.87255227  0.15390515  1
  N  N36  1  0.22202535  0.20495824  0.34041944  1
  N  N37  1  0.10802493  0.09601544  0.09110256  1
  N  N38  1  0.88796953  0.20463679  0.83520184  1
  N  N39  1  0.77770837  0.09437619  0.56897415  1
  N  N40  1  0.58118715  0.19299902  0.34718226  1
  N  N41  1  0.45787397  0.07063483  0.09907957  1
  N  N42  1  0.22481530  0.20404497  0.84230489  1
  N  N43  1  0.11203244  0.09377667  0.59057816  1
  N  N44  1  0.87644142  0.19310994  0.34802451  1
  N  N45  1  0.77796997  0.09463828  0.08586751  1
  N  N46  1  0.55602184  0.20361991  0.83653984  1
  N  N47  1  0.44524698  0.09229099  0.58479326  1
  N  N48  1  0.22253626  0.53920439  0.34148148  1
  N  N49  1  0.11072224  0.42738923  0.09093517  1
  N  N50  1  0.88737804  0.54148215  0.84230491  1
  N  N51  1  0.77710946  0.42869959  0.59057803  1
  N  N52  1  0.55572759  0.53907093  0.33913179  1
  N  N53  1  0.44602214  0.42491805  0.09222475  1
  N  N54  1  0.22242754  0.53909607  0.84085361  1
  N  N55  1  0.11091568  0.42758233  0.59150674  1
  N  N56  1  0.88829126  0.53869228  0.34041949  1
  N  N57  1  0.77934797  0.42469224  0.09110275  1
  N  N58  1  0.55439058  0.54102336  0.84262932  1
  N  N59  1  0.44487506  0.42812552  0.59031105  1
  N  N60  1  0.22240183  0.87239633  0.33913191  1
  N  N61  1  0.10824931  0.76269076  0.09222477  1
  N  N62  1  0.88695174  0.87269008  0.83653988  1
  N  N63  1  0.77562450  0.76191366  0.58479333  1
  N  N64  1  0.55546261  0.87213017  0.31834836  1
  N  N65  1  0.45719835  0.77386628  0.09738110  1
  N  N66  1  0.22435586  0.87105808  0.84262910  1
  N  N67  1  0.11145789  0.76154282  0.59031096  1
  N  N68  1  0.87633039  0.89785535  0.34718218  1
  N  N69  1  0.75396731  0.77454106  0.09907960  1
  N  N70  1  0.55581411  0.87248128  0.83703036  1
  N  N71  1  0.44533032  0.76199734  0.58601102  1
