# generated using pymatgen
data_Al17BN18
_symmetry_space_group_name_H-M   'P 1'
_cell_length_a   9.33552826
_cell_length_b   9.32639649
_cell_length_c   10.03414827
_cell_angle_alpha   89.70670639
_cell_angle_beta   89.90660275
_cell_angle_gamma   59.94841080
_symmetry_Int_Tables_number   1
_chemical_formula_structural   Al17BN18
_chemical_formula_sum   'Al34 B2 N36'
_cell_volume   756.19181891
_cell_formula_units_Z   2
loop_
 _symmetry_equiv_pos_site_id
 _symmetry_equiv_pos_as_xyz
  1  'x, y, z'
loop_
 _atom_site_type_symbol
 _atom_site_label
 _atom_site_symmetry_multiplicity
 _atom_site_fract_x
 _atom_site_fract_y
 _atom_site_fract_z
 _atom_site_occupancy
  Al  Al0  1  0.10623929  0.09369254  0.38665152  1
  Al  Al1  1  0.22370405  0.20091484  0.13598732  1
  Al  Al2  1  0.77509222  0.08973468  0.81946732  1
  Al  Al3  1  0.89291217  0.20943945  0.63635635  1
  Al  Al4  1  0.44856625  0.08923591  0.37290500  1
  Al  Al5  1  0.55431484  0.20047374  0.12501239  1
  Al  Al6  1  0.11096756  0.09464217  0.88630584  1
  Al  Al7  1  0.22522870  0.20426736  0.63555522  1
  Al  Al8  1  0.89153346  0.20649901  0.13957771  1
  Al  Al9  1  0.44684866  0.08853998  0.89213941  1
  Al  Al10  1  0.55660315  0.20450239  0.59439653  1
  Al  Al11  1  0.11073065  0.42713247  0.38662808  1
  Al  Al12  1  0.22205259  0.53810345  0.13766014  1
  Al  Al13  1  0.77791194  0.42665741  0.88634717  1
  Al  Al14  1  0.88744488  0.54332010  0.63414429  1
  Al  Al15  1  0.44918446  0.42702440  0.37977460  1
  Al  Al16  1  0.55752114  0.54380326  0.13627701  1
  Al  Al17  1  0.11170396  0.42796650  0.88402792  1
  Al  Al18  1  0.22132174  0.54077091  0.63464728  1
  Al  Al19  1  0.77677008  0.42272850  0.38677031  1
  Al  Al20  1  0.88419887  0.54059913  0.13599749  1
  Al  Al21  1  0.44492944  0.42759162  0.88941286  1
  Al  Al22  1  0.55501439  0.54047222  0.63600245  1
  Al  Al23  1  0.11366400  0.76422399  0.37780582  1
  Al  Al24  1  0.22808556  0.87378079  0.13635676  1
  Al  Al25  1  0.76846921  0.76077847  0.88997024  1
  Al  Al26  1  0.88217891  0.88472866  0.55835319  1
  Al  Al27  1  0.44632440  0.76234164  0.38133369  1
  Al  Al28  1  0.11677574  0.75859002  0.88781533  1
  Al  Al29  1  0.22301396  0.87145560  0.63493468  1
  Al  Al30  1  0.77177294  0.76499154  0.37011127  1
  Al  Al31  1  0.88283832  0.87512066  0.07791331  1
  Al  Al32  1  0.44682096  0.76378809  0.88829668  1
  Al  Al33  1  0.55674549  0.87214734  0.63253577  1
  B  B34  1  0.78005342  0.08912115  0.30404798  1
  B  B35  1  0.55376788  0.86990501  0.13941119  1
  N  N36  1  0.21981152  0.20595565  0.32518076  1
  N  N37  1  0.10989936  0.09466014  0.07587113  1
  N  N38  1  0.89182711  0.20764503  0.82818211  1
  N  N39  1  0.77822011  0.09246060  0.62804952  1
  N  N40  1  0.57671791  0.19502927  0.33706201  1
  N  N41  1  0.45423348  0.06714961  0.08646211  1
  N  N42  1  0.22515672  0.20380178  0.82707440  1
  N  N43  1  0.11239502  0.09451801  0.57620504  1
  N  N44  1  0.87961627  0.19646126  0.33133813  1
  N  N45  1  0.78153661  0.08665252  0.14282627  1
  N  N46  1  0.55364239  0.20466883  0.85637396  1
  N  N47  1  0.44371280  0.09105996  0.56582594  1
  N  N48  1  0.22212395  0.53781369  0.32635171  1
  N  N49  1  0.11065916  0.42792987  0.07508502  1
  N  N50  1  0.88730767  0.54152815  0.82602035  1
  N  N51  1  0.77732656  0.42949841  0.57641842  1
  N  N52  1  0.55692180  0.54054646  0.32481267  1
  N  N53  1  0.44421580  0.43072338  0.08163924  1
  N  N54  1  0.22308210  0.53954598  0.82504347  1
  N  N55  1  0.11125972  0.42787688  0.57694865  1
  N  N56  1  0.88944236  0.53618368  0.32496850  1
  N  N57  1  0.77827688  0.42564087  0.07604932  1
  N  N58  1  0.55432833  0.54087596  0.82771941  1
  N  N59  1  0.44333503  0.43157799  0.57189190  1
  N  N60  1  0.22448603  0.87411191  0.32448084  1
  N  N61  1  0.11933497  0.75838339  0.08136715  1
  N  N62  1  0.88573252  0.87452783  0.88296281  1
  N  N63  1  0.77372571  0.76110030  0.56541817  1
  N  N64  1  0.55361342  0.87094977  0.30225517  1
  N  N65  1  0.45667655  0.77345526  0.08148568  1
  N  N66  1  0.22411648  0.87164711  0.82654768  1
  N  N67  1  0.11365481  0.76095929  0.57184114  1
  N  N68  1  0.87464225  0.90215226  0.36187815  1
  N  N69  1  0.74891404  0.76987650  0.08612540  1
  N  N70  1  0.55468937  0.87313241  0.82062172  1
  N  N71  1  0.44511470  0.76230802  0.57236604  1
