# generated using pymatgen
data_Al17BN18
_symmetry_space_group_name_H-M   'P 1'
_cell_length_a   9.29942904
_cell_length_b   9.29943022
_cell_length_c   9.93898642
_cell_angle_alpha   90.02511610
_cell_angle_beta   90.02510079
_cell_angle_gamma   60.01364252
_symmetry_Int_Tables_number   1
_chemical_formula_structural   Al17BN18
_chemical_formula_sum   'Al34 B2 N36'
_cell_volume   744.46619978
_cell_formula_units_Z   2
loop_
 _symmetry_equiv_pos_site_id
 _symmetry_equiv_pos_as_xyz
  1  'x, y, z'
loop_
 _atom_site_type_symbol
 _atom_site_label
 _atom_site_symmetry_multiplicity
 _atom_site_fract_x
 _atom_site_fract_y
 _atom_site_fract_z
 _atom_site_occupancy
  Al  Al0  1  0.10783073  0.09268310  0.30060510  1
  Al  Al1  1  0.22590100  0.20005464  0.05044204  1
  Al  Al2  1  0.77769832  0.09436556  0.80186935  1
  Al  Al3  1  0.88598356  0.20264873  0.54602290  1
  Al  Al4  1  0.45218612  0.08743684  0.29594875  1
  Al  Al5  1  0.55942452  0.19934116  0.05674448  1
  Al  Al6  1  0.10929925  0.09520004  0.80010017  1
  Al  Al7  1  0.22398519  0.20474906  0.55065161  1
  Al  Al8  1  0.88755171  0.20421793  0.05656328  1
  Al  Al9  1  0.44671354  0.09250512  0.80747612  1
  Al  Al10  1  0.56026270  0.20175243  0.54651052  1
  Al  Al11  1  0.11131249  0.42797789  0.29956391  1
  Al  Al12  1  0.22242121  0.53908831  0.04972370  1
  Al  Al13  1  0.77853407  0.42596530  0.80010024  1
  Al  Al14  1  0.88808354  0.54065051  0.55065176  1
  Al  Al15  1  0.44937362  0.42450758  0.30017987  1
  Al  Al16  1  0.55720903  0.54236899  0.04986717  1
  Al  Al17  1  0.11091190  0.42757771  0.80049369  1
  Al  Al18  1  0.22215552  0.53882226  0.55025130  1
  Al  Al19  1  0.77601592  0.42449799  0.30060501  1
  Al  Al20  1  0.88338883  0.54256688  0.05044185  1
  Al  Al21  1  0.44578896  0.42579956  0.80066579  1
  Al  Al22  1  0.55494447  0.54044499  0.55075987  1
  Al  Al23  1  0.10784067  0.76604013  0.30017968  1
  Al  Al24  1  0.22570276  0.87387523  0.04986749  1
  Al  Al25  1  0.77583831  0.76338014  0.80747614  1
  Al  Al26  1  0.88508640  0.87692927  0.54651051  1
  Al  Al27  1  0.44726726  0.76393415  0.29600199  1
  Al  Al28  1  0.10913231  0.76245634  0.80066595  1
  Al  Al29  1  0.22378002  0.87160953  0.55075958  1
  Al  Al30  1  0.77077137  0.76885167  0.29594872  1
  Al  Al31  1  0.88267358  0.87609199  0.05674438  1
  Al  Al32  1  0.44573027  0.76239731  0.80695739  1
  Al  Al33  1  0.55576863  0.87243349  0.55248828  1
  B  B34  1  0.77747001  0.09413705  0.29594193  1
  B  B35  1  0.55557511  0.87224150  0.04669638  1
  N  N36  1  0.22510541  0.20399868  0.35762285  1
  N  N37  1  0.11095262  0.09429305  0.11071658  1
  N  N38  1  0.88802525  0.20469147  0.86383681  1
  N  N39  1  0.77754084  0.09420744  0.61281714  1
  N  N40  1  0.57938741  0.19214793  0.35076715  1
  N  N41  1  0.45702409  0.06883389  0.10266591  1
  N  N42  1  0.22189776  0.20514613  0.85953698  1
  N  N43  1  0.10899993  0.09563028  0.60721816  1
  N  N44  1  0.87615611  0.19282316  0.35246608  1
  N  N45  1  0.77789180  0.09455908  0.13149964  1
  N  N46  1  0.55773034  0.20477548  0.86505499  1
  N  N47  1  0.44640362  0.09399840  0.61330741  1
  N  N48  1  0.22263349  0.53930008  0.35891280  1
  N  N49  1  0.11081926  0.42748521  0.10836704  1
  N  N50  1  0.88847996  0.53856410  0.85953681  1
  N  N51  1  0.77896497  0.42566517  0.60721827  1
  N  N52  1  0.55400684  0.54199696  0.35874541  1
  N  N53  1  0.44506416  0.42799685  0.10942928  1
  N  N54  1  0.22244005  0.53910728  0.85834181  1
  N  N55  1  0.11092783  0.42759341  0.60899397  1
  N  N56  1  0.88733294  0.54177114  0.35762288  1
  N  N57  1  0.77762665  0.42761902  0.11071647  1
  N  N58  1  0.55624560  0.53798975  0.85926979  1
  N  N59  1  0.44597754  0.42520635  0.60754262  1
  N  N60  1  0.22533004  0.87067364  0.35874514  1
  N  N61  1  0.11132950  0.76173122  0.10942913  1
  N  N62  1  0.88810809  0.87439766  0.86505491  1
  N  N63  1  0.77733308  0.76306922  0.61330738  1
  N  N64  1  0.55538477  0.87205048  0.36398007  1
  N  N65  1  0.45691290  0.77357923  0.10182341  1
  N  N66  1  0.22132307  0.87291214  0.85927013  1
  N  N67  1  0.10854015  0.76264410  0.60754275  1
  N  N68  1  0.87548116  0.89605418  0.35076720  1
  N  N69  1  0.75216761  0.77369028  0.10266582  1
  N  N70  1  0.55564633  0.87231316  0.88087458  1
  N  N71  1  0.44538619  0.76205159  0.61464608  1
