# generated using pymatgen
data_Al17BN18
_symmetry_space_group_name_H-M   'P 1'
_cell_length_a   9.29732988
_cell_length_b   9.29598359
_cell_length_c   9.95896359
_cell_angle_alpha   89.90943219
_cell_angle_beta   89.97846573
_cell_angle_gamma   59.99979286
_symmetry_Int_Tables_number   1
_chemical_formula_structural   Al17BN18
_chemical_formula_sum   'Al34 B2 N36'
_cell_volume   745.41283426
_cell_formula_units_Z   2
loop_
 _symmetry_equiv_pos_site_id
 _symmetry_equiv_pos_as_xyz
  1  'x, y, z'
loop_
 _atom_site_type_symbol
 _atom_site_label
 _atom_site_symmetry_multiplicity
 _atom_site_fract_x
 _atom_site_fract_y
 _atom_site_fract_z
 _atom_site_occupancy
  Al  Al0  1  0.10728962  0.09283288  0.31332286  1
  Al  Al1  1  0.22664586  0.19946528  0.06391073  1
  Al  Al2  1  0.77755290  0.09416906  0.81557311  1
  Al  Al3  1  0.88616759  0.20275414  0.55972028  1
  Al  Al4  1  0.45192599  0.08773414  0.31267986  1
  Al  Al5  1  0.55931051  0.19871790  0.07048939  1
  Al  Al6  1  0.10988755  0.09496300  0.81376680  1
  Al  Al7  1  0.22300373  0.20543848  0.56354701  1
  Al  Al8  1  0.88740897  0.20439925  0.06921800  1
  Al  Al9  1  0.44685713  0.09248394  0.81847258  1
  Al  Al10  1  0.56065826  0.20255930  0.55969287  1
  Al  Al11  1  0.11126457  0.42801871  0.31224400  1
  Al  Al12  1  0.22232390  0.53918826  0.06252543  1
  Al  Al13  1  0.77834774  0.42656163  0.81358899  1
  Al  Al14  1  0.88883293  0.53974722  0.56326765  1
  Al  Al15  1  0.44915700  0.42449191  0.31297417  1
  Al  Al16  1  0.55704061  0.54329317  0.06327386  1
  Al  Al17  1  0.11095153  0.42754590  0.81412456  1
  Al  Al18  1  0.22227788  0.53875441  0.56389460  1
  Al  Al19  1  0.77612411  0.42409010  0.31329132  1
  Al  Al20  1  0.88259817  0.54353795  0.06371967  1
  Al  Al21  1  0.44600075  0.42580587  0.81450750  1
  Al  Al22  1  0.55527228  0.53950043  0.56350034  1
  Al  Al23  1  0.10782928  0.76579430  0.31294215  1
  Al  Al24  1  0.22637720  0.87388621  0.06327838  1
  Al  Al25  1  0.77591833  0.76346434  0.81834554  1
  Al  Al26  1  0.88590867  0.87725873  0.55947303  1
  Al  Al27  1  0.44711773  0.76387414  0.31218017  1
  Al  Al28  1  0.10924860  0.76254512  0.81426916  1
  Al  Al29  1  0.22289355  0.87187421  0.56351977  1
  Al  Al30  1  0.77088390  0.76885228  0.31215074  1
  Al  Al31  1  0.88190996  0.87625274  0.07021164  1
  Al  Al32  1  0.44583648  0.76247590  0.81786192  1
  Al  Al33  1  0.55588071  0.87236898  0.56766164  1
  B  B34  1  0.77775514  0.09428538  0.30942622  1
  B  B35  1  0.55544258  0.87240860  0.06793469  1
  N  N36  1  0.22387842  0.20435307  0.37109665  1
  N  N37  1  0.11080056  0.09436501  0.12381900  1
  N  N38  1  0.88806835  0.20468555  0.87699168  1
  N  N39  1  0.77771108  0.09415050  0.62659547  1
  N  N40  1  0.57967424  0.19252609  0.36454001  1
  N  N41  1  0.45753669  0.06762193  0.11916336  1
  N  N42  1  0.22262278  0.20488632  0.87321843  1
  N  N43  1  0.10916912  0.09547630  0.62101787  1
  N  N44  1  0.87615821  0.19276407  0.36603899  1
  N  N45  1  0.77791821  0.09472497  0.14499360  1
  N  N46  1  0.55739523  0.20446965  0.87889857  1
  N  N47  1  0.44571912  0.09553695  0.62464973  1
  N  N48  1  0.22257699  0.53907062  0.37253377  1
  N  N49  1  0.11071004  0.42756448  0.12146210  1
  N  N50  1  0.88838853  0.53912904  0.87308359  1
  N  N51  1  0.77900889  0.42576368  0.62082445  1
  N  N52  1  0.55437024  0.54095200  0.37203438  1
  N  N53  1  0.44496318  0.42807462  0.12262647  1
  N  N54  1  0.22252050  0.53902877  0.87168850  1
  N  N55  1  0.11096135  0.42755341  0.62280673  1
  N  N56  1  0.88767165  0.54077038  0.37081888  1
  N  N57  1  0.77757249  0.42769854  0.12380149  1
  N  N58  1  0.55592531  0.53858615  0.87294914  1
  N  N59  1  0.44608766  0.42523810  0.62155053  1
  N  N60  1  0.22434554  0.87095132  0.37205945  1
  N  N61  1  0.11122790  0.76175500  0.12260217  1
  N  N62  1  0.88808386  0.87383038  0.87868906  1
  N  N63  1  0.77907493  0.76223820  0.62460017  1
  N  N64  1  0.55537473  0.87182491  0.37971949  1
  N  N65  1  0.45749304  0.77436674  0.11792461  1
  N  N66  1  0.22206092  0.87235994  0.87294715  1
  N  N67  1  0.10870184  0.76255284  0.62133391  1
  N  N68  1  0.87588542  0.89631396  0.36433427  1
  N  N69  1  0.75072378  0.77451420  0.11877595  1
  N  N70  1  0.55576391  0.87229772  0.88823686  1
  N  N71  1  0.44464273  0.76115750  0.62601207  1
