# generated using pymatgen
data_Al17BN18
_symmetry_space_group_name_H-M   'P 1'
_cell_length_a   9.34763382
_cell_length_b   9.33418733
_cell_length_c   10.13397835
_cell_angle_alpha   89.66927731
_cell_angle_beta   89.70788049
_cell_angle_gamma   59.92753378
_symmetry_Int_Tables_number   1
_chemical_formula_structural   Al17BN18
_chemical_formula_sum   'Al34 B2 N36'
_cell_volume   765.17816544
_cell_formula_units_Z   2
loop_
 _symmetry_equiv_pos_site_id
 _symmetry_equiv_pos_as_xyz
  1  'x, y, z'
loop_
 _atom_site_type_symbol
 _atom_site_label
 _atom_site_symmetry_multiplicity
 _atom_site_fract_x
 _atom_site_fract_y
 _atom_site_fract_z
 _atom_site_occupancy
  Al  Al0  1  0.10320466  0.09129985  0.31983418  1
  Al  Al1  1  0.22908630  0.20355077  0.14033204  1
  Al  Al2  1  0.77643664  0.09226657  0.82285329  1
  Al  Al3  1  0.88658294  0.20462319  0.56646028  1
  Al  Al4  1  0.44938356  0.08750589  0.37745480  1
  Al  Al5  1  0.56265340  0.20019908  0.08179329  1
  Al  Al6  1  0.10909748  0.08976238  0.82085905  1
  Al  Al7  1  0.22911748  0.20689139  0.63762756  1
  Al  Al8  1  0.88771270  0.20512452  0.07341723  1
  Al  Al9  1  0.44502880  0.08525066  0.89620652  1
  Al  Al10  1  0.56461611  0.20481913  0.56305438  1
  Al  Al11  1  0.10829993  0.42500154  0.39052232  1
  Al  Al12  1  0.22462441  0.54188518  0.06883008  1
  Al  Al13  1  0.78151946  0.42107998  0.82357114  1
  Al  Al14  1  0.89102378  0.54545814  0.63688832  1
  Al  Al15  1  0.44458561  0.42123622  0.31976602  1
  Al  Al16  1  0.55260633  0.54954363  0.13752401  1
  Al  Al17  1  0.10815891  0.42419323  0.88895260  1
  Al  Al18  1  0.22517666  0.54223545  0.57068047  1
  Al  Al19  1  0.78000551  0.41761116  0.32169844  1
  Al  Al20  1  0.88788875  0.54537460  0.13897002  1
  Al  Al21  1  0.44162579  0.42080101  0.82268497  1
  Al  Al22  1  0.55221451  0.54512663  0.63707985  1
  Al  Al23  1  0.10733452  0.76535793  0.31944807  1
  Al  Al24  1  0.22096557  0.87659700  0.07649844  1
  Al  Al25  1  0.77010428  0.76193207  0.89595600  1
  Al  Al26  1  0.88795294  0.88145841  0.56387271  1
  Al  Al27  1  0.44996589  0.76015558  0.38389016  1
  Al  Al28  1  0.10865536  0.76224718  0.82198788  1
  Al  Al29  1  0.21727559  0.87611099  0.57042100  1
  Al  Al30  1  0.77147122  0.76647978  0.37720707  1
  Al  Al31  1  0.88379568  0.87928770  0.08255495  1
  Al  Al32  1  0.45252643  0.75992209  0.89261919  1
  Al  Al33  1  0.55740184  0.87382369  0.63672133  1
  B  B34  1  0.77802578  0.09445554  0.31647027  1
  B  B35  1  0.55464723  0.87136589  0.14295783  1
  N  N36  1  0.22476386  0.20815272  0.32907017  1
  N  N37  1  0.10680485  0.09388550  0.13118382  1
  N  N38  1  0.88911512  0.20245291  0.88473257  1
  N  N39  1  0.77713142  0.09442697  0.63555965  1
  N  N40  1  0.58455330  0.19347147  0.37052579  1
  N  N41  1  0.45606464  0.06532741  0.08858579  1
  N  N42  1  0.22892667  0.20533564  0.82939018  1
  N  N43  1  0.10691538  0.09404604  0.62925923  1
  N  N44  1  0.87681593  0.19322891  0.37589253  1
  N  N45  1  0.77876171  0.09595237  0.15421418  1
  N  N46  1  0.55979609  0.20447808  0.89017215  1
  N  N47  1  0.44474251  0.09052078  0.56898460  1
  N  N48  1  0.22431259  0.54287796  0.38094384  1
  N  N49  1  0.10844628  0.42437625  0.07834170  1
  N  N50  1  0.89000545  0.54553668  0.82958822  1
  N  N51  1  0.78196053  0.42224819  0.62573581  1
  N  N52  1  0.55212538  0.54318575  0.33189184  1
  N  N53  1  0.44070342  0.42493599  0.13017641  1
  N  N54  1  0.22355075  0.54194188  0.87925187  1
  N  N55  1  0.10904036  0.42541846  0.57982639  1
  N  N56  1  0.89206540  0.54167141  0.32860934  1
  N  N57  1  0.78055906  0.42329299  0.12577003  1
  N  N58  1  0.55165241  0.54346890  0.83380061  1
  N  N59  1  0.44317261  0.42083339  0.62997921  1
  N  N60  1  0.21748503  0.87442594  0.37820026  1
  N  N61  1  0.11087719  0.76000252  0.13278551  1
  N  N62  1  0.89004228  0.87534904  0.89001604  1
  N  N63  1  0.77465876  0.76178359  0.56925296  1
  N  N64  1  0.55457248  0.87131846  0.30479756  1
  N  N65  1  0.45916313  0.77382275  0.08563614  1
  N  N66  1  0.22033236  0.87198601  0.88254301  1
  N  N67  1  0.10747799  0.76299218  0.63143176  1
  N  N68  1  0.87705947  0.90135793  0.37026080  1
  N  N69  1  0.74953478  0.77322121  0.08859588  1
  N  N70  1  0.55683950  0.87256253  0.82357749  1
  N  N71  1  0.45030193  0.76132048  0.57535397  1
