# generated using pymatgen
data_Al17BN18
_symmetry_space_group_name_H-M   'P 1'
_cell_length_a   9.32828970
_cell_length_b   9.33808186
_cell_length_c   10.06162041
_cell_angle_alpha   89.71468988
_cell_angle_beta   89.62684624
_cell_angle_gamma   59.95924795
_symmetry_Int_Tables_number   1
_chemical_formula_structural   Al17BN18
_chemical_formula_sum   'Al34 B2 N36'
_cell_volume   758.69934334
_cell_formula_units_Z   2
loop_
 _symmetry_equiv_pos_site_id
 _symmetry_equiv_pos_as_xyz
  1  'x, y, z'
loop_
 _atom_site_type_symbol
 _atom_site_label
 _atom_site_symmetry_multiplicity
 _atom_site_fract_x
 _atom_site_fract_y
 _atom_site_fract_z
 _atom_site_occupancy
  Al  Al0  1  0.10391161  0.09010628  0.32359386  1
  Al  Al1  1  0.22915366  0.19756055  0.12746246  1
  Al  Al2  1  0.77515947  0.09381790  0.82713631  1
  Al  Al3  1  0.88499343  0.20372516  0.56986034  1
  Al  Al4  1  0.45095538  0.08978494  0.37883649  1
  Al  Al5  1  0.56234280  0.20166797  0.08656215  1
  Al  Al6  1  0.10828754  0.09419116  0.82449663  1
  Al  Al7  1  0.22332664  0.20515542  0.60769970  1
  Al  Al8  1  0.88758318  0.20348909  0.07634279  1
  Al  Al9  1  0.44368849  0.08585486  0.90079138  1
  Al  Al10  1  0.56402485  0.20641818  0.56711409  1
  Al  Al11  1  0.11061380  0.43250947  0.32181280  1
  Al  Al12  1  0.22312108  0.53982403  0.07104670  1
  Al  Al13  1  0.77840082  0.42691358  0.82343539  1
  Al  Al14  1  0.88946793  0.53484549  0.56905864  1
  Al  Al15  1  0.44981206  0.42578383  0.32227147  1
  Al  Al16  1  0.55663570  0.54337806  0.07138529  1
  Al  Al17  1  0.10893848  0.43040739  0.82555241  1
  Al  Al18  1  0.22171651  0.54038127  0.57386082  1
  Al  Al19  1  0.77621408  0.42217079  0.32150862  1
  Al  Al20  1  0.88617151  0.53564821  0.07894966  1
  Al  Al21  1  0.44561480  0.42338795  0.82449540  1
  Al  Al22  1  0.55502285  0.54015070  0.57202958  1
  Al  Al23  1  0.11013459  0.76590014  0.32172934  1
  Al  Al24  1  0.22775977  0.87250924  0.07075030  1
  Al  Al25  1  0.76511811  0.76836746  0.89913748  1
  Al  Al26  1  0.88905155  0.88135553  0.56771045  1
  Al  Al27  1  0.44447644  0.75982940  0.31702550  1
  Al  Al28  1  0.10664768  0.76310534  0.82420175  1
  Al  Al29  1  0.22357837  0.87126157  0.57151981  1
  Al  Al30  1  0.77388453  0.76855557  0.37735796  1
  Al  Al31  1  0.88549296  0.87781524  0.08789416  1
  Al  Al32  1  0.44108397  0.75791980  0.82186308  1
  Al  Al33  1  0.56028521  0.87622201  0.63998645  1
  B  B34  1  0.77925074  0.09671960  0.31932466  1
  B  B35  1  0.56055675  0.87289713  0.15125426  1
  N  N36  1  0.22275122  0.20393036  0.34662754  1
  N  N37  1  0.10751179  0.09004032  0.13336210  1
  N  N38  1  0.88637315  0.20491162  0.88612967  1
  N  N39  1  0.77641794  0.09460155  0.63881787  1
  N  N40  1  0.58465877  0.19652031  0.37283064  1
  N  N41  1  0.45972007  0.06371913  0.09527411  1
  N  N42  1  0.22323392  0.20446086  0.85721459  1
  N  N43  1  0.10644589  0.09348859  0.62964589  1
  N  N44  1  0.87583321  0.19397306  0.37766460  1
  N  N45  1  0.77920703  0.09580032  0.15697101  1
  N  N46  1  0.55773524  0.20634444  0.89342538  1
  N  N47  1  0.44685519  0.09068958  0.57158911  1
  N  N48  1  0.22297867  0.54019317  0.38400085  1
  N  N49  1  0.11054811  0.43196346  0.13141805  1
  N  N50  1  0.88808592  0.53701618  0.88591465  1
  N  N51  1  0.77814151  0.42601305  0.63179116  1
  N  N52  1  0.55537622  0.54125974  0.38261317  1
  N  N53  1  0.44404910  0.42981347  0.13384826  1
  N  N54  1  0.22189161  0.54010752  0.88172953  1
  N  N55  1  0.10745443  0.43298395  0.63218861  1
  N  N56  1  0.89058506  0.53185537  0.37674199  1
  N  N57  1  0.77638092  0.42492502  0.13383929  1
  N  N58  1  0.55529443  0.53796785  0.88208573  1
  N  N59  1  0.44542929  0.42501441  0.63241744  1
  N  N60  1  0.22580405  0.87041426  0.38282588  1
  N  N61  1  0.11416590  0.76033230  0.13353224  1
  N  N62  1  0.88926338  0.87631043  0.89311386  1
  N  N63  1  0.77339591  0.76582901  0.57314185  1
  N  N64  1  0.56079166  0.87582303  0.31108210  1
  N  N65  1  0.45390533  0.76935180  0.12661852  1
  N  N66  1  0.22117992  0.87181507  0.88204003  1
  N  N67  1  0.10791308  0.76335729  0.63255215  1
  N  N68  1  0.88089991  0.90118896  0.37236204  1
  N  N69  1  0.74903944  0.77416029  0.09597979  1
  N  N70  1  0.55690944  0.87579292  0.82775249  1
  N  N71  1  0.44228603  0.75913269  0.63047905  1
