# generated using pymatgen
data_Al17BN18
_symmetry_space_group_name_H-M   'P 1'
_cell_length_a   9.33384058
_cell_length_b   9.32930001
_cell_length_c   10.03581503
_cell_angle_alpha   89.70881303
_cell_angle_beta   89.87090417
_cell_angle_gamma   59.94969049
_symmetry_Int_Tables_number   1
_chemical_formula_structural   Al17BN18
_chemical_formula_sum   'Al34 B2 N36'
_cell_volume   756.42643031
_cell_formula_units_Z   2
loop_
 _symmetry_equiv_pos_site_id
 _symmetry_equiv_pos_as_xyz
  1  'x, y, z'
loop_
 _atom_site_type_symbol
 _atom_site_label
 _atom_site_symmetry_multiplicity
 _atom_site_fract_x
 _atom_site_fract_y
 _atom_site_fract_z
 _atom_site_occupancy
  Al  Al0  1  0.10615808  0.09373753  0.38686804  1
  Al  Al1  1  0.22331187  0.20097443  0.13627576  1
  Al  Al2  1  0.77344284  0.09043570  0.81972907  1
  Al  Al3  1  0.89258261  0.20934243  0.63668491  1
  Al  Al4  1  0.44805322  0.08862262  0.37120562  1
  Al  Al5  1  0.55694089  0.19928732  0.10039620  1
  Al  Al6  1  0.11068613  0.09463314  0.88632911  1
  Al  Al7  1  0.22579001  0.20419526  0.63519244  1
  Al  Al8  1  0.89092183  0.20642268  0.14032130  1
  Al  Al9  1  0.44584465  0.08712330  0.89221372  1
  Al  Al10  1  0.56257739  0.20171498  0.56936088  1
  Al  Al11  1  0.11057353  0.42721248  0.38680717  1
  Al  Al12  1  0.22147090  0.53857829  0.13807917  1
  Al  Al13  1  0.77806703  0.42652127  0.88641116  1
  Al  Al14  1  0.88739649  0.54321100  0.63416362  1
  Al  Al15  1  0.44814119  0.42924501  0.37826234  1
  Al  Al16  1  0.55754452  0.54434265  0.13659340  1
  Al  Al17  1  0.11166101  0.42797575  0.88409739  1
  Al  Al18  1  0.22207302  0.54005345  0.63444502  1
  Al  Al19  1  0.77695679  0.42276268  0.38688533  1
  Al  Al20  1  0.88414888  0.54059176  0.13603397  1
  Al  Al21  1  0.44410784  0.42965625  0.88985577  1
  Al  Al22  1  0.55479880  0.54011882  0.63573541  1
  Al  Al23  1  0.11341347  0.76454167  0.37811780  1
  Al  Al24  1  0.22802482  0.87382058  0.13640992  1
  Al  Al25  1  0.76874272  0.76074496  0.89011251  1
  Al  Al26  1  0.88250153  0.88426378  0.55932337  1
  Al  Al27  1  0.44633702  0.76252946  0.38163110  1
  Al  Al28  1  0.11658556  0.75875282  0.88790925  1
  Al  Al29  1  0.22312648  0.87143668  0.63498714  1
  Al  Al30  1  0.77195466  0.76500983  0.37035958  1
  Al  Al31  1  0.88251537  0.87558761  0.07870071  1
  Al  Al32  1  0.44687433  0.76368379  0.88831564  1
  Al  Al33  1  0.55651606  0.87268418  0.63226211  1
  B  B34  1  0.77801803  0.09011955  0.30572714  1
  B  B35  1  0.55336716  0.86990659  0.13959606  1
  N  N36  1  0.21937081  0.20621716  0.32514941  1
  N  N37  1  0.10928688  0.09473002  0.07589525  1
  N  N38  1  0.89156379  0.20757362  0.82818578  1
  N  N39  1  0.77603982  0.09294830  0.62977012  1
  N  N40  1  0.58079782  0.19339193  0.35193864  1
  N  N41  1  0.45302261  0.06591096  0.08748913  1
  N  N42  1  0.22540634  0.20385139  0.82692598  1
  N  N43  1  0.11216607  0.09449924  0.57642873  1
  N  N44  1  0.87990631  0.19664181  0.33166851  1
  N  N45  1  0.77843792  0.08782441  0.14548494  1
  N  N46  1  0.55793349  0.20236143  0.87783699  1
  N  N47  1  0.44331505  0.09083801  0.56575760  1
  N  N48  1  0.22142617  0.53833850  0.32647827  1
  N  N49  1  0.11079788  0.42782882  0.07504782  1
  N  N50  1  0.88736036  0.54149514  0.82609534  1
  N  N51  1  0.77735275  0.42928071  0.57650254  1
  N  N52  1  0.55726540  0.54108858  0.32479104  1
  N  N53  1  0.44281931  0.43370683  0.08316716  1
  N  N54  1  0.22340433  0.53919017  0.82505515  1
  N  N55  1  0.11116047  0.42789287  0.57702847  1
  N  N56  1  0.88944375  0.53630199  0.32495412  1
  N  N57  1  0.77826466  0.42543539  0.07608086  1
  N  N58  1  0.55450311  0.54074465  0.82757033  1
  N  N59  1  0.44330301  0.43153161  0.57206280  1
  N  N60  1  0.22456170  0.87412339  0.32456498  1
  N  N61  1  0.11879404  0.75883326  0.08150520  1
  N  N62  1  0.88567732  0.87484344  0.88314549  1
  N  N63  1  0.77379129  0.76091867  0.56562240  1
  N  N64  1  0.55393611  0.87047854  0.30216888  1
  N  N65  1  0.45666484  0.77337873  0.08139750  1
  N  N66  1  0.22422318  0.87160270  0.82666498  1
  N  N67  1  0.11379375  0.76084197  0.57225458  1
  N  N68  1  0.87496555  0.90193360  0.36250047  1
  N  N69  1  0.74890114  0.76988831  0.08607949  1
  N  N70  1  0.55494304  0.87299714  0.82047305  1
  N  N71  1  0.44522804  0.76218939  0.57253899  1
