# generated using pymatgen
data_Al17BN18
_symmetry_space_group_name_H-M   'P 1'
_cell_length_a   9.32691737
_cell_length_b   9.30719411
_cell_length_c   10.06623320
_cell_angle_alpha   89.68556469
_cell_angle_beta   89.96061478
_cell_angle_gamma   59.92635643
_symmetry_Int_Tables_number   1
_chemical_formula_structural   Al17BN18
_chemical_formula_sum   'Al34 B2 N36'
_cell_volume   756.17790996
_cell_formula_units_Z   2
loop_
 _symmetry_equiv_pos_site_id
 _symmetry_equiv_pos_as_xyz
  1  'x, y, z'
loop_
 _atom_site_type_symbol
 _atom_site_label
 _atom_site_symmetry_multiplicity
 _atom_site_fract_x
 _atom_site_fract_y
 _atom_site_fract_z
 _atom_site_occupancy
  Al  Al0  1  0.10710189  0.09338699  0.38632291  1
  Al  Al1  1  0.22644380  0.20008441  0.13650487  1
  Al  Al2  1  0.78027980  0.08704852  0.81911066  1
  Al  Al3  1  0.89131680  0.21002312  0.63570955  1
  Al  Al4  1  0.45113832  0.09063980  0.37940737  1
  Al  Al5  1  0.55417032  0.19980554  0.13850494  1
  Al  Al6  1  0.11136457  0.09489050  0.88683577  1
  Al  Al7  1  0.22309148  0.20515011  0.63550396  1
  Al  Al8  1  0.89321073  0.20622295  0.13877967  1
  Al  Al9  1  0.44611316  0.08956777  0.89067303  1
  Al  Al10  1  0.54675624  0.20915441  0.63507681  1
  Al  Al11  1  0.11162280  0.42657557  0.38665702  1
  Al  Al12  1  0.22522665  0.53531161  0.13781697  1
  Al  Al13  1  0.77753822  0.42766111  0.88666416  1
  Al  Al14  1  0.88628109  0.54480859  0.63357464  1
  Al  Al15  1  0.45247209  0.42111208  0.38641014  1
  Al  Al16  1  0.55779387  0.54129908  0.13635332  1
  Al  Al17  1  0.11048318  0.42881080  0.88449354  1
  Al  Al18  1  0.21877022  0.54314405  0.63441600  1
  Al  Al19  1  0.77663207  0.42219262  0.38671682  1
  Al  Al20  1  0.88485309  0.53991474  0.13665248  1
  Al  Al21  1  0.44409292  0.42745336  0.88713723  1
  Al  Al22  1  0.55420001  0.54110277  0.63595203  1
  Al  Al23  1  0.11480998  0.76276856  0.37754938  1
  Al  Al24  1  0.22916677  0.87313191  0.13685412  1
  Al  Al25  1  0.76789721  0.76082448  0.89108303  1
  Al  Al26  1  0.87877371  0.88897352  0.55535339  1
  Al  Al27  1  0.44664630  0.76170747  0.38075032  1
  Al  Al28  1  0.11696788  0.75858308  0.88874346  1
  Al  Al29  1  0.22184630  0.87202117  0.63447004  1
  Al  Al30  1  0.77142379  0.76483324  0.36949727  1
  Al  Al31  1  0.88441664  0.87361159  0.07920879  1
  Al  Al32  1  0.44651411  0.76384249  0.88867418  1
  Al  Al33  1  0.55601113  0.87273187  0.63258850  1
  B  B34  1  0.78194721  0.08851121  0.30209810  1
  B  B35  1  0.55514981  0.86988803  0.13909886  1
  N  N36  1  0.22249840  0.20467244  0.32571639  1
  N  N37  1  0.11204250  0.09422476  0.07583459  1
  N  N38  1  0.89184092  0.20844155  0.82873313  1
  N  N39  1  0.77706404  0.09364180  0.62863439  1
  N  N40  1  0.57551307  0.19506094  0.32932493  1
  N  N41  1  0.45715576  0.06873247  0.08298103  1
  N  N42  1  0.22396695  0.20482308  0.82689487  1
  N  N43  1  0.11105612  0.09534152  0.57556921  1
  N  N44  1  0.88026767  0.19590521  0.33004554  1
  N  N45  1  0.78353247  0.08651296  0.13978673  1
  N  N46  1  0.54751642  0.20754637  0.83021946  1
  N  N47  1  0.44362836  0.09395014  0.57012610  1
  N  N48  1  0.22533149  0.53532658  0.32650984  1
  N  N49  1  0.11099900  0.42769678  0.07521907  1
  N  N50  1  0.88649204  0.54245954  0.82551909  1
  N  N51  1  0.77645065  0.43050432  0.57596573  1
  N  N52  1  0.55612033  0.53841082  0.32509080  1
  N  N53  1  0.44741389  0.42457975  0.07711842  1
  N  N54  1  0.22141911  0.54051119  0.82468863  1
  N  N55  1  0.10988593  0.42898531  0.57655748  1
  N  N56  1  0.88983181  0.53547128  0.32484550  1
  N  N57  1  0.77860927  0.42574557  0.07577329  1
  N  N58  1  0.55410377  0.54090661  0.82758058  1
  N  N59  1  0.44282453  0.43009593  0.57597742  1
  N  N60  1  0.22469568  0.87368795  0.32411330  1
  N  N61  1  0.12175401  0.75637926  0.08144469  1
  N  N62  1  0.88526426  0.87459651  0.88539982  1
  N  N63  1  0.77241439  0.76263149  0.56406875  1
  N  N64  1  0.55281116  0.87273293  0.30224403  1
  N  N65  1  0.45750529  0.77268257  0.08163976  1
  N  N66  1  0.22358290  0.87195367  0.82610032  1
  N  N67  1  0.11148618  0.76273113  0.57060826  1
  N  N68  1  0.87499731  0.90176372  0.35957646  1
  N  N69  1  0.74944720  0.76934813  0.08675481  1
  N  N70  1  0.55455279  0.87317316  0.82074006  1
  N  N71  1  0.44418465  0.76307472  0.57174973  1
