# generated using pymatgen
data_Al17BN18
_symmetry_space_group_name_H-M   'P 1'
_cell_length_a   9.29941818
_cell_length_b   9.29941678
_cell_length_c   9.93902197
_cell_angle_alpha   90.02388502
_cell_angle_beta   90.02457050
_cell_angle_gamma   60.01353791
_symmetry_Int_Tables_number   1
_chemical_formula_structural   Al17BN18
_chemical_formula_sum   'Al34 B2 N36'
_cell_volume   744.46613965
_cell_formula_units_Z   2
loop_
 _symmetry_equiv_pos_site_id
 _symmetry_equiv_pos_as_xyz
  1  'x, y, z'
loop_
 _atom_site_type_symbol
 _atom_site_label
 _atom_site_symmetry_multiplicity
 _atom_site_fract_x
 _atom_site_fract_y
 _atom_site_fract_z
 _atom_site_occupancy
  Al  Al0  1  0.10764949  0.09281322  0.39818062  1
  Al  Al1  1  0.22551474  0.20064762  0.14786950  1
  Al  Al2  1  0.77758529  0.09425405  0.89555052  1
  Al  Al3  1  0.88762309  0.20428986  0.64109138  1
  Al  Al4  1  0.45068194  0.09059592  0.39130162  1
  Al  Al5  1  0.56258390  0.19783576  0.15209036  1
  Al  Al6  1  0.10957539  0.09507772  0.89728853  1
  Al  Al7  1  0.22422057  0.20423130  0.64738226  1
  Al  Al8  1  0.88608679  0.20275351  0.15203872  1
  Al  Al9  1  0.44826700  0.08975781  0.90153071  1
  Al  Al10  1  0.55751528  0.20330741  0.64057131  1
  Al  Al11  1  0.11093419  0.42759903  0.39832770  1
  Al  Al12  1  0.22204242  0.53871059  0.14848736  1
  Al  Al13  1  0.77841000  0.42624308  0.89728877  1
  Al  Al14  1  0.88756468  0.54088677  0.64738149  1
  Al  Al15  1  0.44996727  0.42411889  0.39760557  1
  Al  Al16  1  0.55733831  0.54219204  0.14744254  1
  Al  Al17  1  0.11119856  0.42786615  0.89779837  1
  Al  Al18  1  0.22244258  0.53910987  0.64755535  1
  Al  Al19  1  0.77614547  0.42431725  0.39818036  1
  Al  Al20  1  0.88398127  0.54218115  0.14786957  1
  Al  Al21  1  0.44526926  0.42603841  0.89739744  1
  Al  Al22  1  0.55482082  0.54072008  0.64794775  1
  Al  Al23  1  0.10745145  0.76663408  0.39760536  1
  Al  Al24  1  0.22552458  0.87400561  0.14744250  1
  Al  Al25  1  0.77309050  0.76493440  0.90153024  1
  Al  Al26  1  0.88664039  0.87418266  0.64057037  1
  Al  Al27  1  0.44580217  0.76247011  0.39148371  1
  Al  Al28  1  0.10936962  0.76193846  0.89739676  1
  Al  Al29  1  0.22405386  0.87148730  0.64794751  1
  Al  Al30  1  0.77393020  0.76734720  0.39130090  1
  Al  Al31  1  0.88116781  0.87925120  0.15209002  1
  Al  Al32  1  0.44737044  0.76403861  0.90201876  1
  Al  Al33  1  0.55565558  0.87232155  0.64617107  1
  B  B34  1  0.77777872  0.09444731  0.40134387  1
  B  B35  1  0.55588407  0.87255255  0.15210031  1
  N  N36  1  0.22202501  0.20495717  0.33861897  1
  N  N37  1  0.10802584  0.09601546  0.08930165  1
  N  N38  1  0.88796876  0.20463771  0.83340152  1
  N  N39  1  0.77770687  0.09437513  0.56716999  1
  N  N40  1  0.58118745  0.19299765  0.34537393  1
  N  N41  1  0.45787307  0.07063411  0.09727439  1
  N  N42  1  0.22481266  0.20404545  0.84050379  1
  N  N43  1  0.11203002  0.09377625  0.58877680  1
  N  N44  1  0.87644027  0.19310866  0.34621770  1
  N  N45  1  0.77796989  0.09463866  0.08405890  1
  N  N46  1  0.55601870  0.20362098  0.83473845  1
  N  N47  1  0.44524494  0.09229197  0.58299004  1
  N  N48  1  0.22253571  0.53920323  0.33968221  1
  N  N49  1  0.11072188  0.42738959  0.08913644  1
  N  N50  1  0.88737687  0.54148103  0.84050319  1
  N  N51  1  0.77710816  0.42869770  0.58877644  1
  N  N52  1  0.55572701  0.53907011  0.33733012  1
  N  N53  1  0.44602098  0.42491969  0.09042455  1
  N  N54  1  0.22242595  0.53909574  0.83905426  1
  N  N55  1  0.11091418  0.42758152  0.58970728  1
  N  N56  1  0.88829101  0.53869107  0.33861904  1
  N  N57  1  0.77934725  0.42469401  0.08930203  1
  N  N58  1  0.55438933  0.54102225  0.84082815  1
  N  N59  1  0.44487406  0.42812387  0.58850960  1
  N  N60  1  0.22240136  0.87239556  0.33733018  1
  N  N61  1  0.10825082  0.76268993  0.09042396  1
  N  N62  1  0.88695127  0.87268863  0.83473764  1
  N  N63  1  0.77562437  0.76191235  0.58298939  1
  N  N64  1  0.55546226  0.87212930  0.31654414  1
  N  N65  1  0.45719799  0.77386659  0.09557654  1
  N  N66  1  0.22435344  0.87105833  0.84082784  1
  N  N67  1  0.11145609  0.76154205  0.58850940  1
  N  N68  1  0.87632978  0.89785491  0.34537364  1
  N  N69  1  0.75396647  0.77454063  0.09727413  1
  N  N70  1  0.55581221  0.87248091  0.83522345  1
  N  N71  1  0.44532826  0.76199581  0.58420892  1
