# generated using pymatgen
data_Al17BN18
_symmetry_space_group_name_H-M   'P 1'
_cell_length_a   9.32722738
_cell_length_b   9.31082050
_cell_length_c   10.04836226
_cell_angle_alpha   89.60597360
_cell_angle_beta   89.94905103
_cell_angle_gamma   59.93047484
_symmetry_Int_Tables_number   1
_chemical_formula_structural   Al17BN18
_chemical_formula_sum   'Al34 B2 N36'
_cell_volume   755.17844161
_cell_formula_units_Z   2
loop_
 _symmetry_equiv_pos_site_id
 _symmetry_equiv_pos_as_xyz
  1  'x, y, z'
loop_
 _atom_site_type_symbol
 _atom_site_label
 _atom_site_symmetry_multiplicity
 _atom_site_fract_x
 _atom_site_fract_y
 _atom_site_fract_z
 _atom_site_occupancy
  Al  Al0  1  0.10493211  0.09305484  0.31257480  1
  Al  Al1  1  0.21944434  0.20284208  0.07069303  1
  Al  Al2  1  0.77735820  0.09417148  0.81657069  1
  Al  Al3  1  0.88674287  0.20324433  0.56034250  1
  Al  Al4  1  0.44970389  0.09196867  0.37463303  1
  Al  Al5  1  0.56198381  0.20083055  0.07870803  1
  Al  Al6  1  0.11118780  0.09482471  0.81459452  1
  Al  Al7  1  0.21524098  0.20971526  0.56203465  1
  Al  Al8  1  0.88688764  0.20458695  0.06845831  1
  Al  Al9  1  0.45396623  0.07880653  0.88900373  1
  Al  Al10  1  0.56510951  0.20755980  0.55981518  1
  Al  Al11  1  0.10920772  0.43003686  0.31143480  1
  Al  Al12  1  0.22184160  0.53980268  0.06230675  1
  Al  Al13  1  0.77873083  0.42636081  0.81321158  1
  Al  Al14  1  0.88908112  0.53957851  0.56105715  1
  Al  Al15  1  0.44885030  0.42545358  0.31257085  1
  Al  Al16  1  0.55715417  0.54418434  0.06287441  1
  Al  Al17  1  0.11347290  0.42498305  0.81477013  1
  Al  Al18  1  0.22251336  0.53861854  0.56474282  1
  Al  Al19  1  0.77602253  0.42451959  0.31276574  1
  Al  Al20  1  0.88073727  0.54521509  0.06310345  1
  Al  Al21  1  0.44663669  0.42334931  0.81561752  1
  Al  Al22  1  0.55568234  0.53934689  0.56158865  1
  Al  Al23  1  0.10725951  0.76587312  0.31241109  1
  Al  Al24  1  0.22683014  0.87332299  0.06328978  1
  Al  Al25  1  0.78571504  0.75835151  0.81217024  1
  Al  Al26  1  0.88728310  0.87778244  0.55774995  1
  Al  Al27  1  0.44199807  0.76075117  0.31290880  1
  Al  Al28  1  0.10983283  0.76225428  0.81386165  1
  Al  Al29  1  0.22139335  0.87224765  0.56154467  1
  Al  Al30  1  0.77726313  0.76709746  0.31303856  1
  Al  Al31  1  0.88149678  0.87610031  0.07017293  1
  Al  Al32  1  0.44200212  0.75743940  0.81170170  1
  Al  Al33  1  0.55315719  0.87921535  0.62467093  1
  B  B34  1  0.77843806  0.09583824  0.31020805  1
  B  B35  1  0.55309773  0.87512018  0.13880370  1
  N  N36  1  0.21270990  0.20918365  0.36864976  1
  N  N37  1  0.10902857  0.09281633  0.12490301  1
  N  N38  1  0.88890738  0.20403245  0.87729882  1
  N  N39  1  0.77914589  0.09372728  0.62840639  1
  N  N40  1  0.58423072  0.19618657  0.36333543  1
  N  N41  1  0.46002431  0.06160395  0.08781835  1
  N  N42  1  0.22120988  0.20483505  0.87774558  1
  N  N43  1  0.10944622  0.09491243  0.62294528  1
  N  N44  1  0.87632967  0.19329201  0.36730536  1
  N  N45  1  0.78024701  0.09377353  0.14662138  1
  N  N46  1  0.56045011  0.20492074  0.88426258  1
  N  N47  1  0.44572095  0.09714896  0.56946548  1
  N  N48  1  0.22266027  0.53837470  0.37379334  1
  N  N49  1  0.10855617  0.43050414  0.12228340  1
  N  N50  1  0.88961506  0.53786495  0.87334153  1
  N  N51  1  0.77900890  0.42631366  0.62123664  1
  N  N52  1  0.55507514  0.53946642  0.37241226  1
  N  N53  1  0.44376019  0.43041007  0.12394160  1
  N  N54  1  0.22308557  0.53831692  0.87239382  1
  N  N55  1  0.11067716  0.42785980  0.62458223  1
  N  N56  1  0.88715399  0.54055042  0.37100607  1
  N  N57  1  0.77755830  0.42761137  0.12386365  1
  N  N58  1  0.55645630  0.53741841  0.87343079  1
  N  N59  1  0.44643675  0.42596676  0.62382986  1
  N  N60  1  0.22142207  0.87170529  0.37236039  1
  N  N61  1  0.11096355  0.76161839  0.12297923  1
  N  N62  1  0.88895859  0.87285719  0.87922144  1
  N  N63  1  0.78632336  0.75931502  0.61748106  1
  N  N64  1  0.55204398  0.87600043  0.32672546  1
  N  N65  1  0.45544083  0.77176938  0.11999512  1
  N  N66  1  0.22271696  0.87146214  0.87379906  1
  N  N67  1  0.10899369  0.76258011  0.62215396  1
  N  N68  1  0.87679475  0.89742926  0.36523671  1
  N  N69  1  0.75445800  0.77259149  0.12065907  1
  N  N70  1  0.55601503  0.87340997  0.81764201  1
  N  N71  1  0.44084019  0.75829655  0.61910032  1
