# generated using pymatgen
data_Al17BN18
_symmetry_space_group_name_H-M   'P 1'
_cell_length_a   9.31030923
_cell_length_b   9.31033049
_cell_length_c   10.13290767
_cell_angle_alpha   89.62911280
_cell_angle_beta   89.62022500
_cell_angle_gamma   60.07252753
_symmetry_Int_Tables_number   1
_chemical_formula_structural   Al17BN18
_chemical_formula_sum   'Al34 B2 N36'
_cell_volume   761.19936176
_cell_formula_units_Z   2
loop_
 _symmetry_equiv_pos_site_id
 _symmetry_equiv_pos_as_xyz
  1  'x, y, z'
loop_
 _atom_site_type_symbol
 _atom_site_label
 _atom_site_symmetry_multiplicity
 _atom_site_fract_x
 _atom_site_fract_y
 _atom_site_fract_z
 _atom_site_occupancy
  Al  Al0  1  0.10286758  0.09097041  0.32088072  1
  Al  Al1  1  0.22849005  0.20341290  0.14149005  1
  Al  Al2  1  0.77552611  0.09218611  0.82517819  1
  Al  Al3  1  0.88700810  0.20366905  0.56840530  1
  Al  Al4  1  0.44882551  0.08987299  0.37998517  1
  Al  Al5  1  0.56199501  0.20093815  0.08433963  1
  Al  Al6  1  0.10650359  0.09188725  0.82142105  1
  Al  Al7  1  0.22844256  0.20688293  0.63904914  1
  Al  Al8  1  0.88778214  0.20443825  0.07554866  1
  Al  Al9  1  0.44449103  0.08573278  0.89848684  1
  Al  Al10  1  0.56433337  0.20537552  0.56563719  1
  Al  Al11  1  0.10844564  0.42511583  0.39152122  1
  Al  Al12  1  0.22557723  0.54222908  0.07090700  1
  Al  Al13  1  0.77523135  0.42315899  0.82142119  1
  Al  Al14  1  0.89021410  0.54511231  0.63905222  1
  Al  Al15  1  0.44878644  0.42461548  0.32043485  1
  Al  Al16  1  0.55812942  0.54273592  0.07186664  1
  Al  Al17  1  0.10798316  0.42464795  0.88977511  1
  Al  Al18  1  0.22586764  0.54252729  0.57297042  1
  Al  Al19  1  0.77431309  0.41952540  0.32088026  1
  Al  Al20  1  0.88674729  0.54515323  0.14148793  1
  Al  Al21  1  0.44565188  0.42382049  0.82259105  1
  Al  Al22  1  0.55692270  0.53916691  0.57031001  1
  Al  Al23  1  0.10795350  0.76544599  0.32043348  1
  Al  Al24  1  0.22607852  0.87478799  0.07186624  1
  Al  Al25  1  0.76906442  0.76115955  0.89848802  1
  Al  Al26  1  0.88871811  0.88098963  0.56563854  1
  Al  Al27  1  0.44385698  0.76051524  0.32185142  1
  Al  Al28  1  0.10716176  0.76231241  0.82259407  1
  Al  Al29  1  0.22250442  0.87358361  0.57030961  1
  Al  Al30  1  0.77320530  0.76549186  0.37998712  1
  Al  Al31  1  0.88428259  0.87865018  0.08434193  1
  Al  Al32  1  0.44268779  0.75934315  0.82863041  1
  Al  Al33  1  0.55895764  0.87562759  0.63775706  1
  B  B34  1  0.77810282  0.09477372  0.31863300  1
  B  B35  1  0.55594753  0.87260156  0.14730527  1
  N  N36  1  0.22443335  0.20804903  0.33007417  1
  N  N37  1  0.10723993  0.09201825  0.13182899  1
  N  N38  1  0.88757167  0.20424082  0.88637841  1
  N  N39  1  0.77683080  0.09350382  0.63778150  1
  N  N40  1  0.58454686  0.19543520  0.37237198  1
  N  N41  1  0.45539821  0.06507180  0.08987553  1
  N  N42  1  0.22837324  0.20552015  0.83052107  1
  N  N43  1  0.10658518  0.09333195  0.63000754  1
  N  N44  1  0.87689613  0.19356713  0.37731099  1
  N  N45  1  0.77846835  0.09513391  0.15624404  1
  N  N46  1  0.55851276  0.20671384  0.89223319  1
  N  N47  1  0.44392084  0.09127918  0.57017818  1
  N  N48  1  0.22607628  0.54275051  0.38208282  1
  N  N49  1  0.10799656  0.42464617  0.07946615  1
  N  N50  1  0.88886808  0.54502526  0.83052441  1
  N  N51  1  0.77665825  0.42325986  0.63000696  1
  N  N52  1  0.55585845  0.53954874  0.38187459  1
  N  N53  1  0.44423541  0.42856398  0.13360227  1
  N  N54  1  0.22533476  0.54200741  0.88022206  1
  N  N55  1  0.10880455  0.42545962  0.58101554  1
  N  N56  1  0.89139369  0.54108873  0.33007192  1
  N  N57  1  0.77534588  0.42390992  0.13182827  1
  N  N58  1  0.55616490  0.53759907  0.88358579  1
  N  N59  1  0.44683681  0.42369296  0.63244675  1
  N  N60  1  0.22287712  0.87252872  0.38187329  1
  N  N61  1  0.11189923  0.76090061  0.13360050  1
  N  N62  1  0.89003925  0.87518991  0.89223493  1
  N  N63  1  0.77462807  0.76057301  0.57017974  1
  N  N64  1  0.56007532  0.87672977  0.30833778  1
  N  N65  1  0.45363264  0.77030042  0.12465159  1
  N  N66  1  0.22093188  0.87283497  0.88358584  1
  N  N67  1  0.10702173  0.76350794  0.63244971  1
  N  N68  1  0.87876111  0.90121691  0.37237144  1
  N  N69  1  0.74841811  0.77204775  0.08987466  1
  N  N70  1  0.55916932  0.87581881  0.82562751  1
  N  N71  1  0.44251351  0.75918878  0.62607791  1
