# generated using pymatgen
data_Al17BN18
_symmetry_space_group_name_H-M   'P 1'
_cell_length_a   9.32076158
_cell_length_b   9.31264589
_cell_length_c   9.98868638
_cell_angle_alpha   89.72694097
_cell_angle_beta   89.94019459
_cell_angle_gamma   59.96510813
_symmetry_Int_Tables_number   1
_chemical_formula_structural   Al17BN18
_chemical_formula_sum   'Al34 B2 N36'
_cell_volume   750.59426507
_cell_formula_units_Z   2
loop_
 _symmetry_equiv_pos_site_id
 _symmetry_equiv_pos_as_xyz
  1  'x, y, z'
loop_
 _atom_site_type_symbol
 _atom_site_label
 _atom_site_symmetry_multiplicity
 _atom_site_fract_x
 _atom_site_fract_y
 _atom_site_fract_z
 _atom_site_occupancy
  Al  Al0  1  0.10695797  0.09214665  0.39622609  1
  Al  Al1  1  0.22552168  0.20138243  0.14726928  1
  Al  Al2  1  0.77592783  0.09714236  0.87504585  1
  Al  Al3  1  0.88949644  0.20654630  0.64959531  1
  Al  Al4  1  0.45252096  0.08951577  0.38916575  1
  Al  Al5  1  0.56224659  0.19774045  0.14204613  1
  Al  Al6  1  0.11193720  0.09495063  0.89793719  1
  Al  Al7  1  0.22402798  0.20389119  0.64545006  1
  Al  Al8  1  0.88653013  0.20330167  0.14193937  1
  Al  Al9  1  0.44572268  0.08936588  0.90167193  1
  Al  Al10  1  0.55270084  0.20556025  0.64930211  1
  Al  Al11  1  0.11125236  0.42728150  0.39763063  1
  Al  Al12  1  0.22277134  0.53805381  0.14841628  1
  Al  Al13  1  0.77801957  0.42830093  0.89827858  1
  Al  Al14  1  0.88726796  0.54031585  0.64440132  1
  Al  Al15  1  0.45234850  0.42220316  0.39612164  1
  Al  Al16  1  0.55691509  0.54309177  0.14700271  1
  Al  Al17  1  0.11088434  0.42804847  0.89502760  1
  Al  Al18  1  0.22267347  0.53866266  0.64510132  1
  Al  Al19  1  0.77577653  0.42283678  0.39631854  1
  Al  Al20  1  0.88437598  0.54202741  0.14737443  1
  Al  Al21  1  0.44315667  0.42798810  0.89875983  1
  Al  Al22  1  0.55543789  0.53899184  0.64625654  1
  Al  Al23  1  0.10742568  0.76775470  0.39306924  1
  Al  Al24  1  0.22753448  0.87398170  0.14727746  1
  Al  Al25  1  0.76992080  0.76022764  0.89816322  1
  Al  Al26  1  0.88619094  0.87425662  0.63029136  1
  Al  Al27  1  0.44648347  0.76180681  0.39124525  1
  Al  Al28  1  0.11589260  0.75788416  0.89543647  1
  Al  Al29  1  0.22304736  0.87236495  0.64544429  1
  Al  Al30  1  0.77349896  0.76907781  0.38552132  1
  Al  Al31  1  0.88249389  0.87669932  0.10682924  1
  Al  Al32  1  0.44670346  0.76374005  0.89954431  1
  Al  Al33  1  0.55523486  0.87305349  0.64341884  1
  B  B34  1  0.78011279  0.09093807  0.35516677  1
  B  B35  1  0.55452938  0.87208022  0.15013486  1
  N  N36  1  0.22230555  0.20507214  0.33722822  1
  N  N37  1  0.11060166  0.09534243  0.08884730  1
  N  N38  1  0.89320487  0.21011545  0.83976140  1
  N  N39  1  0.77599418  0.09675805  0.62585778  1
  N  N40  1  0.58678643  0.18971994  0.33729101  1
  N  N41  1  0.45690968  0.06967460  0.09600336  1
  N  N42  1  0.22449180  0.20407123  0.83814230  1
  N  N43  1  0.11037898  0.09521153  0.58588645  1
  N  N44  1  0.87444720  0.19020963  0.33812439  1
  N  N45  1  0.77525112  0.10091766  0.07342196  1
  N  N46  1  0.54516675  0.20881195  0.84142538  1
  N  N47  1  0.44513377  0.09379207  0.58024040  1
  N  N48  1  0.22337831  0.53819635  0.33851656  1
  N  N49  1  0.11050204  0.42853851  0.08675214  1
  N  N50  1  0.88711841  0.54029556  0.83664206  1
  N  N51  1  0.77773500  0.42758490  0.58586210  1
  N  N52  1  0.55585397  0.53896084  0.33617532  1
  N  N53  1  0.44509978  0.42738228  0.09043136  1
  N  N54  1  0.22313791  0.53828825  0.83578310  1
  N  N55  1  0.11073807  0.42770750  0.58792263  1
  N  N56  1  0.88885461  0.53802686  0.33700788  1
  N  N57  1  0.77820524  0.42774666  0.08903581  1
  N  N58  1  0.55438238  0.54044513  0.83926444  1
  N  N59  1  0.44489521  0.42710555  0.58598072  1
  N  N60  1  0.22369954  0.87246840  0.33601331  1
  N  N61  1  0.11645179  0.75992878  0.08847459  1
  N  N62  1  0.89043693  0.86450906  0.85757200  1
  N  N63  1  0.77504975  0.76145725  0.57888876  1
  N  N64  1  0.55475810  0.87183379  0.31428073  1
  N  N65  1  0.45688013  0.77409637  0.09340202  1
  N  N66  1  0.22437880  0.87195760  0.83766451  1
  N  N67  1  0.11181315  0.76116699  0.58509484  1
  N  N68  1  0.87402768  0.90352887  0.34745470  1
  N  N69  1  0.75047223  0.77229449  0.09412030  1
  N  N70  1  0.55388175  0.87319575  0.83205049  1
  N  N71  1  0.44524351  0.76177184  0.58279744  1
