# generated using pymatgen
data_Al17BN18
_symmetry_space_group_name_H-M   'P 1'
_cell_length_a   9.33748983
_cell_length_b   9.33081513
_cell_length_c   10.11828706
_cell_angle_alpha   89.65188202
_cell_angle_beta   89.74810606
_cell_angle_gamma   60.00961095
_symmetry_Int_Tables_number   1
_chemical_formula_structural   Al17BN18
_chemical_formula_sum   'Al34 B2 N36'
_cell_volume   763.52077004
_cell_formula_units_Z   2
loop_
 _symmetry_equiv_pos_site_id
 _symmetry_equiv_pos_as_xyz
  1  'x, y, z'
loop_
 _atom_site_type_symbol
 _atom_site_label
 _atom_site_symmetry_multiplicity
 _atom_site_fract_x
 _atom_site_fract_y
 _atom_site_fract_z
 _atom_site_occupancy
  Al  Al0  1  0.11375662  0.08885271  0.38504113  1
  Al  Al1  1  0.22594328  0.20136741  0.13953085  1
  Al  Al2  1  0.77589919  0.09306087  0.82153128  1
  Al  Al3  1  0.88105955  0.20450356  0.56769722  1
  Al  Al4  1  0.44979619  0.08745276  0.37557712  1
  Al  Al5  1  0.56166324  0.20028373  0.08120153  1
  Al  Al6  1  0.11657950  0.09001015  0.88963359  1
  Al  Al7  1  0.22406672  0.20466824  0.63656948  1
  Al  Al8  1  0.88539580  0.20300769  0.07845718  1
  Al  Al9  1  0.44500754  0.08578737  0.89422475  1
  Al  Al10  1  0.56237314  0.20531709  0.56267211  1
  Al  Al11  1  0.10911392  0.42443452  0.38956031  1
  Al  Al12  1  0.22505895  0.54174477  0.06800212  1
  Al  Al13  1  0.77593429  0.42981660  0.87114220  1
  Al  Al14  1  0.88836753  0.54243817  0.63572354  1
  Al  Al15  1  0.44585106  0.42085996  0.31847421  1
  Al  Al16  1  0.55598748  0.54836590  0.13749028  1
  Al  Al17  1  0.10852233  0.42417659  0.88696802  1
  Al  Al18  1  0.22511299  0.54249199  0.57007373  1
  Al  Al19  1  0.77772752  0.42322141  0.35767774  1
  Al  Al20  1  0.88713392  0.54403277  0.13814784  1
  Al  Al21  1  0.44224795  0.42118605  0.82084257  1
  Al  Al22  1  0.55693125  0.54331410  0.63634200  1
  Al  Al23  1  0.10480167  0.76315836  0.31845857  1
  Al  Al24  1  0.23113785  0.87521799  0.13937657  1
  Al  Al25  1  0.76864719  0.76293658  0.89464686  1
  Al  Al26  1  0.88829384  0.88047280  0.56256267  1
  Al  Al27  1  0.44602422  0.76169502  0.38511673  1
  Al  Al28  1  0.10426627  0.76030342  0.82053385  1
  Al  Al29  1  0.22504778  0.87631411  0.63759391  1
  Al  Al30  1  0.77115733  0.76652997  0.37626865  1
  Al  Al31  1  0.88438484  0.87839566  0.08099898  1
  Al  Al32  1  0.44573069  0.76373156  0.89164062  1
  Al  Al33  1  0.55702895  0.87415418  0.63483921  1
  B  B34  1  0.78014282  0.09478508  0.31527221  1
  B  B35  1  0.55540679  0.87216391  0.14139731  1
  N  N36  1  0.22234973  0.20622374  0.32623125  1
  N  N37  1  0.11722311  0.09138028  0.07981617  1
  N  N38  1  0.88496967  0.20188247  0.88221606  1
  N  N39  1  0.77577858  0.09332829  0.63489449  1
  N  N40  1  0.58407696  0.19381233  0.36997203  1
  N  N41  1  0.45597079  0.06555772  0.08811122  1
  N  N42  1  0.22553179  0.20347746  0.82695417  1
  N  N43  1  0.11318860  0.09398216  0.57564938  1
  N  N44  1  0.87604583  0.19014334  0.36991499  1
  N  N45  1  0.77853638  0.09440053  0.15388774  1
  N  N46  1  0.55865610  0.20534661  0.88907820  1
  N  N47  1  0.44262626  0.09143541  0.56825523  1
  N  N48  1  0.22547195  0.54206769  0.38012883  1
  N  N49  1  0.10889788  0.42365115  0.07730340  1
  N  N50  1  0.88820688  0.54448297  0.82775801  1
  N  N51  1  0.77773217  0.42936117  0.58983929  1
  N  N52  1  0.55400105  0.54385455  0.32843010  1
  N  N53  1  0.44163406  0.42499365  0.12931004  1
  N  N54  1  0.22418316  0.54169822  0.87826064  1
  N  N55  1  0.10874032  0.42518039  0.57966942  1
  N  N56  1  0.89218421  0.54067319  0.32579210  1
  N  N57  1  0.77771930  0.42981653  0.09595451  1
  N  N58  1  0.55297539  0.54469804  0.83084745  1
  N  N59  1  0.44365180  0.42154182  0.62925390  1
  N  N60  1  0.22723140  0.87282635  0.32780498  1
  N  N61  1  0.10914897  0.75867441  0.12947698  1
  N  N62  1  0.88898695  0.87594060  0.88914068  1
  N  N63  1  0.77400615  0.76120022  0.56834145  1
  N  N64  1  0.55498664  0.87074062  0.30403653  1
  N  N65  1  0.45633956  0.77371674  0.08227257  1
  N  N66  1  0.22647060  0.87315703  0.82886971  1
  N  N67  1  0.10457007  0.76154036  0.62888667  1
  N  N68  1  0.87802528  0.90056055  0.36996499  1
  N  N69  1  0.74890142  0.77341577  0.08759661  1
  N  N70  1  0.55606185  0.87295722  0.82247963  1
  N  N71  1  0.44442204  0.76327198  0.57385962  1
