# generated using pymatgen
data_Al17BN18
_symmetry_space_group_name_H-M   'P 1'
_cell_length_a   9.32689887
_cell_length_b   9.30717512
_cell_length_c   10.06629462
_cell_angle_alpha   89.68576286
_cell_angle_beta   89.96062019
_cell_angle_gamma   59.92621225
_symmetry_Int_Tables_number   1
_chemical_formula_structural   Al17BN18
_chemical_formula_sum   'Al34 B2 N36'
_cell_volume   756.17839606
_cell_formula_units_Z   2
loop_
 _symmetry_equiv_pos_site_id
 _symmetry_equiv_pos_as_xyz
  1  'x, y, z'
loop_
 _atom_site_type_symbol
 _atom_site_label
 _atom_site_symmetry_multiplicity
 _atom_site_fract_x
 _atom_site_fract_y
 _atom_site_fract_z
 _atom_site_occupancy
  Al  Al0  1  0.10418946  0.09356784  0.31839915  1
  Al  Al1  1  0.21854773  0.20391719  0.07770343  1
  Al  Al2  1  0.77734361  0.09395632  0.82267629  1
  Al  Al3  1  0.88684080  0.20285668  0.56658757  1
  Al  Al4  1  0.44894496  0.09307945  0.37606065  1
  Al  Al5  1  0.56193227  0.20185086  0.08576088  1
  Al  Al6  1  0.11151249  0.09466812  0.82078305  1
  Al  Al7  1  0.21638901  0.20811937  0.56651756  1
  Al  Al8  1  0.88670972  0.20497878  0.07450141  1
  Al  Al9  1  0.45458594  0.07770609  0.89990577  1
  Al  Al10  1  0.56546081  0.20587649  0.56417662  1
  Al  Al11  1  0.10813838  0.43138215  0.31744018  1
  Al  Al12  1  0.22173455  0.54011093  0.06859277  1
  Al  Al13  1  0.77915899  0.42558932  0.81929952  1
  Al  Al14  1  0.88926216  0.53924724  0.56811282  1
  Al  Al15  1  0.44850493  0.42677985  0.31859925  1
  Al  Al16  1  0.55672488  0.54449716  0.06853193  1
  Al  Al17  1  0.11458329  0.42354927  0.82084261  1
  Al  Al18  1  0.22286975  0.53789246  0.57076842  1
  Al  Al19  1  0.77556419  0.42539355  0.31889730  1
  Al  Al20  1  0.88088769  0.54557418  0.06885005  1
  Al  Al21  1  0.44707615  0.42187802  0.82167984  1
  Al  Al22  1  0.55581860  0.53903768  0.56858715  1
  Al  Al23  1  0.10691671  0.76660967  0.31874905  1
  Al  Al24  1  0.22626234  0.87329781  0.06892810  1
  Al  Al25  1  0.78659734  0.75753516  0.82018062  1
  Al  Al26  1  0.88723977  0.87713203  0.56458566  1
  Al  Al27  1  0.44014637  0.76047172  0.31648371  1
  Al  Al28  1  0.11025909  0.76154333  0.81975076  1
  Al  Al29  1  0.22198868  0.87181102  0.56841663  1
  Al  Al30  1  0.77919200  0.76688553  0.31675773  1
  Al  Al31  1  0.88222129  0.87604444  0.07585544  1
  Al  Al32  1  0.44203775  0.75666238  0.81953412  1
  Al  Al33  1  0.55307635  0.87964800  0.63614776  1
  B  B34  1  0.77820875  0.09680673  0.31616278  1
  B  B35  1  0.55141309  0.87817298  0.15316899  1
  N  N36  1  0.21160623  0.21031636  0.37381867  1
  N  N37  1  0.10866107  0.09299959  0.13113942  1
  N  N38  1  0.88917268  0.20361553  0.88350363  1
  N  N39  1  0.77880270  0.09352538  0.63452571  1
  N  N40  1  0.58391257  0.19734694  0.36850738  1
  N  N41  1  0.45836140  0.06491734  0.09568260  1
  N  N42  1  0.22187121  0.20395934  0.88464658  1
  N  N43  1  0.10977307  0.09474710  0.62915661  1
  N  N44  1  0.87585167  0.19401353  0.37362060  1
  N  N45  1  0.78054573  0.09395547  0.15301466  1
  N  N46  1  0.56093869  0.20405646  0.89119058  1
  N  N47  1  0.44809293  0.09210642  0.56986293  1
  N  N48  1  0.22236050  0.53900049  0.38004291  1
  N  N49  1  0.10803052  0.43135831  0.12874801  1
  N  N50  1  0.89053269  0.53659386  0.87928530  1
  N  N51  1  0.77925276  0.42579423  0.62767430  1
  N  N52  1  0.55475019  0.54094616  0.37948105  1
  N  N53  1  0.44352398  0.43121725  0.13040643  1
  N  N54  1  0.22346957  0.53770587  0.87869532  1
  N  N55  1  0.11193312  0.42619218  0.63057262  1
  N  N56  1  0.88594920  0.54210969  0.37813451  1
  N  N57  1  0.77723685  0.42827613  0.13016078  1
  N  N58  1  0.55690672  0.53618198  0.87928457  1
  N  N59  1  0.44686284  0.42424125  0.62973813  1
  N  N60  1  0.22131126  0.87247510  0.37942077  1
  N  N61  1  0.11086453  0.76201274  0.12953827  1
  N  N62  1  0.88972563  0.87273735  0.88513823  1
  N  N63  1  0.78583981  0.75915186  0.62503842  1
  N  N64  1  0.54982904  0.88017703  0.31548293  1
  N  N65  1  0.45309366  0.77078059  0.12522003  1
  N  N66  1  0.22230057  0.87134606  0.87968274  1
  N  N67  1  0.10938464  0.76188105  0.62836363  1
  N  N68  1  0.87620461  0.89796191  0.37227839  1
  N  N69  1  0.75784908  0.77162256  0.12594326  1
  N  N70  1  0.55628981  0.87304450  0.82662338  1
  N  N71  1  0.44151203  0.75825750  0.62651587  1
