# generated using pymatgen
data_NbZn2N3
_symmetry_space_group_name_H-M   'P 1'
_cell_length_a   5.51579811
_cell_length_b   5.87422739
_cell_length_c   9.99647243
_cell_angle_alpha   90.00002428
_cell_angle_beta   90.00004028
_cell_angle_gamma   90.25662638
_symmetry_Int_Tables_number   1
_chemical_formula_structural   NbZn2N3
_chemical_formula_sum   'Nb4 Zn8 N12'
_cell_volume   323.89297718
_cell_formula_units_Z   4
loop_
 _symmetry_equiv_pos_site_id
 _symmetry_equiv_pos_as_xyz
  1  'x, y, z'
loop_
 _atom_site_type_symbol
 _atom_site_label
 _atom_site_symmetry_multiplicity
 _atom_site_fract_x
 _atom_site_fract_y
 _atom_site_fract_z
 _atom_site_occupancy
  Nb  Nb0  1  0.97922976  0.66946158  0.00000126  1
  Nb  Nb1  1  0.47835443  0.32800964  0.00000073  1
  Nb  Nb2  1  0.13049390  0.17213703  0.49999831  1
  Nb  Nb3  1  0.61836330  0.83124665  0.49999825  1
  Zn  Zn4  1  0.96799940  0.16049536  0.17055335  1
  Zn  Zn5  1  0.96799925  0.16049532  0.82944670  1
  Zn  Zn6  1  0.46674217  0.83704465  0.83103366  1
  Zn  Zn7  1  0.46674229  0.83704485  0.16896658  1
  Zn  Zn8  1  0.98505197  0.66157096  0.32454135  1
  Zn  Zn9  1  0.98505327  0.66156994  0.67545869  1
  Zn  Zn10  1  0.47912571  0.34223563  0.31745045  1
  Zn  Zn11  1  0.47912516  0.34223402  0.68254978  1
  N  N12  1  0.09218528  0.83331565  0.15828656  1
  N  N13  1  0.09218588  0.83331643  0.84171240  1
  N  N14  1  0.11048293  0.34541321  -0.00000018  1
  N  N15  1  0.59308562  0.16396754  0.15757719  1
  N  N16  1  0.59308561  0.16396694  0.84242207  1
  N  N17  1  0.61033367  0.65268590  -0.00000022  1
  N  N18  1  0.08181913  0.33632081  0.33287197  1
  N  N19  1  0.08181869  0.33632194  0.66712939  1
  N  N20  1  0.58189675  0.66528806  0.33412590  1
  N  N21  1  0.58189624  0.66528710  0.66587529  1
  N  N22  1  0.02278028  0.84449803  0.50000027  1
  N  N23  1  0.50317019  0.15607278  0.50000024  1
