# generated using pymatgen
data_NbZn2N3
_symmetry_space_group_name_H-M   'P 1'
_cell_length_a   5.48269103
_cell_length_b   5.85311665
_cell_length_c   9.95063349
_cell_angle_alpha   89.99991435
_cell_angle_beta   90.00002146
_cell_angle_gamma   90.56438733
_symmetry_Int_Tables_number   1
_chemical_formula_structural   NbZn2N3
_chemical_formula_sum   'Nb4 Zn8 N12'
_cell_volume   319.30859686
_cell_formula_units_Z   4
loop_
 _symmetry_equiv_pos_site_id
 _symmetry_equiv_pos_as_xyz
  1  'x, y, z'
loop_
 _atom_site_type_symbol
 _atom_site_label
 _atom_site_symmetry_multiplicity
 _atom_site_fract_x
 _atom_site_fract_y
 _atom_site_fract_z
 _atom_site_occupancy
  Nb  Nb0  1  0.98522711  0.67228765  1.00000203  1
  Nb  Nb1  1  0.48415662  0.33013584  1.00000222  1
  Nb  Nb2  1  0.02315121  0.17100971  0.49999616  1
  Nb  Nb3  1  0.47993415  0.81795543  0.49999834  1
  Zn  Zn4  1  0.97432790  0.16208856  0.16893429  1
  Zn  Zn5  1  0.97432783  0.16208861  0.83106631  1
  Zn  Zn6  1  0.47431556  0.83796440  0.82939033  1
  Zn  Zn7  1  0.47431525  0.83796442  0.17061003  1
  Zn  Zn8  1  0.97009625  0.66578445  0.32616771  1
  Zn  Zn9  1  0.97009587  0.66578469  0.67383186  1
  Zn  Zn10  1  0.48593440  0.33678656  0.32644270  1
  Zn  Zn11  1  0.48593564  0.33678735  0.67355707  1
  N  N12  1  0.09764137  0.83492859  0.15948667  1
  N  N13  1  0.09764232  0.83493028  0.84051165  1
  N  N14  1  0.11410113  0.34607028  0.99999960  1
  N  N15  1  0.59784363  0.16852566  0.15898447  1
  N  N16  1  0.59784474  0.16852381  0.84101366  1
  N  N17  1  0.61486926  0.65707136  0.99999975  1
  N  N18  1  0.08931850  0.33693358  0.33645398  1
  N  N19  1  0.08931956  0.33693630  0.66354912  1
  N  N20  1  0.59654724  0.66823053  0.33595070  1
  N  N21  1  0.59654795  0.66822893  0.66405057  1
  N  N22  1  0.10754455  0.83243173  0.50000044  1
  N  N23  1  0.56798281  0.15055129  0.50000034  1
