# generated using pymatgen
data_NbZn2N3
_symmetry_space_group_name_H-M   'P 1'
_cell_length_a   5.55415020
_cell_length_b   5.87222122
_cell_length_c   9.92032424
_cell_angle_alpha   89.83381845
_cell_angle_beta   89.19550933
_cell_angle_gamma   89.97665465
_symmetry_Int_Tables_number   1
_chemical_formula_structural   NbZn2N3
_chemical_formula_sum   'Nb4 Zn8 N12'
_cell_volume   323.52006932
_cell_formula_units_Z   4
loop_
 _symmetry_equiv_pos_site_id
 _symmetry_equiv_pos_as_xyz
  1  'x, y, z'
loop_
 _atom_site_type_symbol
 _atom_site_label
 _atom_site_symmetry_multiplicity
 _atom_site_fract_x
 _atom_site_fract_y
 _atom_site_fract_z
 _atom_site_occupancy
  Nb  Nb0  1  0.97933109  0.66889217  0.99973007  1
  Nb  Nb1  1  0.47959594  0.32868479  0.99952572  1
  Nb  Nb2  1  0.10814681  0.17336961  0.50158560  1
  Nb  Nb3  1  0.61174758  0.83377233  0.50353922  1
  Zn  Zn4  1  0.96872812  0.15745523  0.16713687  1
  Zn  Zn5  1  0.97881747  0.15915888  0.83430493  1
  Zn  Zn6  1  0.47883032  0.84076198  0.83553857  1
  Zn  Zn7  1  0.46195535  0.83734163  0.17034139  1
  Zn  Zn8  1  0.97699003  0.66215253  0.32365945  1
  Zn  Zn9  1  0.11301788  0.65944732  0.66585737  1
  Zn  Zn10  1  0.54560731  0.33564184  0.32873412  1
  Zn  Zn11  1  0.61258152  0.34320829  0.66557772  1
  N  N12  1  0.09067044  0.83153331  0.15953902  1
  N  N13  1  0.09662631  0.83595303  0.84428374  1
  N  N14  1  0.11188205  0.34487820  0.99904858  1
  N  N15  1  0.58982024  0.16207595  0.15762938  1
  N  N16  1  0.59593751  0.16395015  0.84305874  1
  N  N17  1  0.61213506  0.65268017  0.99952761  1
  N  N18  1  0.02478177  0.32938542  0.33929514  1
  N  N19  1  0.99143561  0.33978549  0.65867102  1
  N  N20  1  0.56818094  0.67001737  0.33680214  1
  N  N21  1  0.49205377  0.66387242  0.65834144  1
  N  N22  1  0.97960480  0.84960710  0.50598971  1
  N  N23  1  0.47835235  0.15637460  0.50228244  1
