# generated using pymatgen
data_NbZn2N3
_symmetry_space_group_name_H-M   'P 1'
_cell_length_a   5.48782378
_cell_length_b   5.85951007
_cell_length_c   9.95983746
_cell_angle_alpha   90.00000249
_cell_angle_beta   89.99999924
_cell_angle_gamma   90.56506806
_symmetry_Int_Tables_number   1
_chemical_formula_structural   NbZn2N3
_chemical_formula_sum   'Nb4 Zn8 N12'
_cell_volume   320.25254617
_cell_formula_units_Z   4
loop_
 _symmetry_equiv_pos_site_id
 _symmetry_equiv_pos_as_xyz
  1  'x, y, z'
loop_
 _atom_site_type_symbol
 _atom_site_label
 _atom_site_symmetry_multiplicity
 _atom_site_fract_x
 _atom_site_fract_y
 _atom_site_fract_z
 _atom_site_occupancy
  Nb  Nb0  1  0.98528709  0.67239062  0.99999955  1
  Nb  Nb1  1  0.48392883  0.33035866  0.99999954  1
  Nb  Nb2  1  0.05806522  0.17266779  0.50000103  1
  Nb  Nb3  1  0.47814565  0.81424131  0.50000067  1
  Zn  Zn4  1  0.97429917  0.16196773  0.16870103  1
  Zn  Zn5  1  0.97429910  0.16196770  0.83129875  1
  Zn  Zn6  1  0.47415882  0.83794028  0.82948837  1
  Zn  Zn7  1  0.47415883  0.83794021  0.17051145  1
  Zn  Zn8  1  0.96966119  0.66614679  0.32600143  1
  Zn  Zn9  1  0.96966104  0.66614645  0.67399877  1
  Zn  Zn10  1  0.48802917  0.33740176  0.32557351  1
  Zn  Zn11  1  0.48802812  0.33740178  0.67442661  1
  N  N12  1  0.09749304  0.83516361  0.15931915  1
  N  N13  1  0.09749285  0.83516325  0.84068120  1
  N  N14  1  0.11440022  0.34639799  1.00000000  1
  N  N15  1  0.59766102  0.16852160  0.15893006  1
  N  N16  1  0.59766076  0.16852190  0.84107027  1
  N  N17  1  0.61493716  0.65683155  1.00000001  1
  N  N18  1  0.08582605  0.33884426  0.33476985  1
  N  N19  1  0.08582597  0.33884356  0.66522926  1
  N  N20  1  0.59651268  0.66813778  0.33537082  1
  N  N21  1  0.59651232  0.66813809  0.66462877  1
  N  N22  1  0.10623875  0.82891997  0.49999992  1
  N  N23  1  0.54073785  0.14994539  0.49999998  1
