# generated using pymatgen
data_NbZn2N3
_symmetry_space_group_name_H-M   'P 1'
_cell_length_a   5.56183812
_cell_length_b   5.86833721
_cell_length_c   9.91613306
_cell_angle_alpha   89.93552116
_cell_angle_beta   89.50727164
_cell_angle_gamma   89.96921862
_symmetry_Int_Tables_number   1
_chemical_formula_structural   NbZn2N3
_chemical_formula_sum   'Nb4 Zn8 N12'
_cell_volume   323.63788725
_cell_formula_units_Z   4
loop_
 _symmetry_equiv_pos_site_id
 _symmetry_equiv_pos_as_xyz
  1  'x, y, z'
loop_
 _atom_site_type_symbol
 _atom_site_label
 _atom_site_symmetry_multiplicity
 _atom_site_fract_x
 _atom_site_fract_y
 _atom_site_fract_z
 _atom_site_occupancy
  Nb  Nb0  1  0.97924115  0.66840369  0.99979320  1
  Nb  Nb1  1  0.48009280  0.32860750  0.99943709  1
  Nb  Nb2  1  0.10403482  0.17364045  0.50030847  1
  Nb  Nb3  1  0.60566735  0.83385881  0.50277668  1
  Zn  Zn4  1  0.97261036  0.15718606  0.16375572  1
  Zn  Zn5  1  0.97632230  0.15774563  0.83401166  1
  Zn  Zn6  1  0.47815752  0.84046195  0.83531249  1
  Zn  Zn7  1  0.46681718  0.83847561  0.16937117  1
  Zn  Zn8  1  0.01215070  0.66560836  0.32789769  1
  Zn  Zn9  1  0.11107049  0.65815910  0.66579118  1
  Zn  Zn10  1  0.59336781  0.33552881  0.33298404  1
  Zn  Zn11  1  0.60759015  0.34256578  0.66535469  1
  N  N12  1  0.09264009  0.83228281  0.15926252  1
  N  N13  1  0.09511119  0.83467556  0.84422409  1
  N  N14  1  0.11182881  0.34453977  0.99887661  1
  N  N15  1  0.59065327  0.16246850  0.15625554  1
  N  N16  1  0.59503724  0.16378544  0.84231064  1
  N  N17  1  0.61284044  0.65301499  0.99980176  1
  N  N18  1  0.99207309  0.32968910  0.34075800  1
  N  N19  1  0.98859493  0.33723620  0.65791203  1
  N  N20  1  0.54440040  0.67099703  0.33993538  1
  N  N21  1  0.48891032  0.66360860  0.65847519  1
  N  N22  1  0.97643677  0.84954371  0.50502429  1
  N  N23  1  0.47118109  0.15791637  0.50036989  1
