# generated using pymatgen
data_NbZn2N3
_symmetry_space_group_name_H-M   'P 1'
_cell_length_a   5.56440463
_cell_length_b   5.86499384
_cell_length_c   9.91428589
_cell_angle_alpha   89.97322456
_cell_angle_beta   89.56630688
_cell_angle_gamma   89.98568903
_symmetry_Int_Tables_number   1
_chemical_formula_structural   NbZn2N3
_chemical_formula_sum   'Nb4 Zn8 N12'
_cell_volume   323.54537769
_cell_formula_units_Z   4
loop_
 _symmetry_equiv_pos_site_id
 _symmetry_equiv_pos_as_xyz
  1  'x, y, z'
loop_
 _atom_site_type_symbol
 _atom_site_label
 _atom_site_symmetry_multiplicity
 _atom_site_fract_x
 _atom_site_fract_y
 _atom_site_fract_z
 _atom_site_occupancy
  Nb  Nb0  1  0.97927343  0.66856382  0.99974387  1
  Nb  Nb1  1  0.48004169  0.32885789  0.99953588  1
  Nb  Nb2  1  0.10319433  0.17280295  0.50014845  1
  Nb  Nb3  1  0.60355289  0.83285858  0.50211458  1
  Zn  Zn4  1  0.97257383  0.15746759  0.16376907  1
  Zn  Zn5  1  0.97602214  0.15765098  0.83409000  1
  Zn  Zn6  1  0.47783781  0.84062116  0.83525229  1
  Zn  Zn7  1  0.46869197  0.83929249  0.16858955  1
  Zn  Zn8  1  0.03614356  0.66432126  0.32962701  1
  Zn  Zn9  1  0.11031239  0.65799011  0.66560844  1
  Zn  Zn10  1  0.59563106  0.33739909  0.33336988  1
  Zn  Zn11  1  0.60697823  0.34236799  0.66526608  1
  N  N12  1  0.09269380  0.83307361  0.15868078  1
  N  N13  1  0.09477705  0.83453012  0.84390860  1
  N  N14  1  0.11191961  0.34461854  0.99899560  1
  N  N15  1  0.59114770  0.16318842  0.15643059  1
  N  N16  1  0.59495238  0.16407109  0.84236371  1
  N  N17  1  0.61278702  0.65335756  0.99991458  1
  N  N18  1  0.99024835  0.33063057  0.34100335  1
  N  N19  1  0.98812273  0.33648738  0.65771863  1
  N  N20  1  0.52724567  0.67010815  0.34121936  1
  N  N21  1  0.48826003  0.66373821  0.65856931  1
  N  N22  1  0.97437603  0.84841362  0.50377169  1
  N  N23  1  0.47004656  0.15758867  0.50030870  1
