# generated using pymatgen
data_NbZn2N3
_symmetry_space_group_name_H-M   'P 1'
_cell_length_a   5.47490623
_cell_length_b   5.82814977
_cell_length_c   9.91964558
_cell_angle_alpha   89.99998542
_cell_angle_beta   90.00009040
_cell_angle_gamma   90.46794092
_symmetry_Int_Tables_number   1
_chemical_formula_structural   NbZn2N3
_chemical_formula_sum   'Nb4 Zn8 N12'
_cell_volume   316.51118389
_cell_formula_units_Z   4
loop_
 _symmetry_equiv_pos_site_id
 _symmetry_equiv_pos_as_xyz
  1  'x, y, z'
loop_
 _atom_site_type_symbol
 _atom_site_label
 _atom_site_symmetry_multiplicity
 _atom_site_fract_x
 _atom_site_fract_y
 _atom_site_fract_z
 _atom_site_occupancy
  Nb  Nb0  1  0.98489936  0.67190285  1.00000046  1
  Nb  Nb1  1  0.48413183  0.32922723  1.00000023  1
  Nb  Nb2  1  0.98400562  0.17027846  0.49999903  1
  Nb  Nb3  1  0.48150732  0.82525977  0.50000027  1
  Zn  Zn4  1  0.97425606  0.16302121  0.17066953  1
  Zn  Zn5  1  0.97425579  0.16302094  0.82933052  1
  Zn  Zn6  1  0.47416330  0.83762490  0.82898144  1
  Zn  Zn7  1  0.47416326  0.83762485  0.17101848  1
  Zn  Zn8  1  0.97223092  0.66309580  0.32759760  1
  Zn  Zn9  1  0.97223065  0.66309586  0.67240226  1
  Zn  Zn10  1  0.47619465  0.33601795  0.32810793  1
  Zn  Zn11  1  0.47619443  0.33601789  0.67189196  1
  N  N12  1  0.09769243  0.83357111  0.16034504  1
  N  N13  1  0.09769259  0.83357138  0.83965461  1
  N  N14  1  0.11352031  0.34457262  0.99999990  1
  N  N15  1  0.59774067  0.16870684  0.16009086  1
  N  N16  1  0.59774072  0.16870653  0.83990901  1
  N  N17  1  0.61398331  0.65763199  0.99999998  1
  N  N18  1  0.09541739  0.33244297  0.33932793  1
  N  N19  1  0.09541769  0.33244368  0.66067276  1
  N  N20  1  0.59615742  0.66829841  0.33843275  1
  N  N21  1  0.59615746  0.66829843  0.66156718  1
  N  N22  1  0.11043870  0.84156225  0.50000014  1
  N  N23  1  0.60882901  0.15400612  0.50000011  1
