# generated using pymatgen
data_NbZn2N3
_symmetry_space_group_name_H-M   'P 1'
_cell_length_a   5.54390806
_cell_length_b   5.86744013
_cell_length_c   9.93846087
_cell_angle_alpha   89.97188702
_cell_angle_beta   89.28885749
_cell_angle_gamma   90.02683527
_symmetry_Int_Tables_number   1
_chemical_formula_structural   NbZn2N3
_chemical_formula_sum   'Nb4 Zn8 N12'
_cell_volume   323.25873163
_cell_formula_units_Z   4
loop_
 _symmetry_equiv_pos_site_id
 _symmetry_equiv_pos_as_xyz
  1  'x, y, z'
loop_
 _atom_site_type_symbol
 _atom_site_label
 _atom_site_symmetry_multiplicity
 _atom_site_fract_x
 _atom_site_fract_y
 _atom_site_fract_z
 _atom_site_occupancy
  Nb  Nb0  1  0.97968107  0.66996065  -0.00000543  1
  Nb  Nb1  1  0.47997848  0.32876884  0.00002304  1
  Nb  Nb2  1  0.11740561  0.17105489  0.50358026  1
  Nb  Nb3  1  0.61674722  0.83077558  0.50284723  1
  Zn  Zn4  1  0.96210694  0.15989549  0.17205957  1
  Zn  Zn5  1  0.97939656  0.15989958  0.83629610  1
  Zn  Zn6  1  0.47872582  0.83914883  0.83416349  1
  Zn  Zn7  1  0.46260127  0.83904040  0.17134559  1
  Zn  Zn8  1  0.96818614  0.65608540  0.32043269  1
  Zn  Zn9  1  0.09976712  0.66164567  0.66796512  1
  Zn  Zn10  1  0.46873848  0.34384287  0.32074301  1
  Zn  Zn11  1  0.61333738  0.34013601  0.66676002  1
  N  N12  1  0.08998779  0.83360692  0.15944277  1
  N  N13  1  0.09726008  0.83624210  0.84391717  1
  N  N14  1  0.11202602  0.34587603  0.00010393  1
  N  N15  1  0.59000555  0.16570466  0.16003063  1
  N  N16  1  0.59707659  0.16284509  0.84434195  1
  N  N17  1  0.61222534  0.65319320  0.99947327  1
  N  N18  1  0.07638037  0.33445762  0.33523873  1
  N  N19  1  0.99675201  0.33717726  0.65913793  1
  N  N20  1  0.57652633  0.66549646  0.33484982  1
  N  N21  1  0.50156813  0.66307566  0.65826051  1
  N  N22  1  0.98563269  0.84959315  0.50385125  1
  N  N23  1  0.48472569  0.15247747  0.50514134  1
