# generated using pymatgen
data_NbZn2N3
_symmetry_space_group_name_H-M   'P 1'
_cell_length_a   5.55927031
_cell_length_b   5.87092077
_cell_length_c   9.91871743
_cell_angle_alpha   89.87171269
_cell_angle_beta   89.44097880
_cell_angle_gamma   89.93854997
_symmetry_Int_Tables_number   1
_chemical_formula_structural   NbZn2N3
_chemical_formula_sum   'Nb4 Zn8 N12'
_cell_volume   323.71105355
_cell_formula_units_Z   4
loop_
 _symmetry_equiv_pos_site_id
 _symmetry_equiv_pos_as_xyz
  1  'x, y, z'
loop_
 _atom_site_type_symbol
 _atom_site_label
 _atom_site_symmetry_multiplicity
 _atom_site_fract_x
 _atom_site_fract_y
 _atom_site_fract_z
 _atom_site_occupancy
  Nb  Nb0  1  0.97935383  0.66820017  0.99982740  1
  Nb  Nb1  1  0.48023879  0.32823103  0.99935429  1
  Nb  Nb2  1  0.10471324  0.17467929  0.50048072  1
  Nb  Nb3  1  0.60806132  0.83497781  0.50348429  1
  Zn  Zn4  1  0.97277004  0.15664761  0.16388003  1
  Zn  Zn5  1  0.97696586  0.15802229  0.83390725  1
  Zn  Zn6  1  0.47851345  0.84041590  0.83553715  1
  Zn  Zn7  1  0.46447790  0.83739767  0.17016701  1
  Zn  Zn8  1  0.98820691  0.66652358  0.32574148  1
  Zn  Zn9  1  0.11176597  0.65876783  0.66602742  1
  Zn  Zn10  1  0.59075817  0.33344034  0.33251660  1
  Zn  Zn11  1  0.60859584  0.34295977  0.66546747  1
  N  N12  1  0.09236260  0.83112702  0.15974055  1
  N  N13  1  0.09578354  0.83499094  0.84452781  1
  N  N14  1  0.11192223  0.34431192  0.99876819  1
  N  N15  1  0.59010904  0.16143226  0.15615736  1
  N  N16  1  0.59533863  0.16356892  0.84223979  1
  N  N17  1  0.61291954  0.65253258  0.99974106  1
  N  N18  1  0.99412035  0.32877867  0.34050395  1
  N  N19  1  0.98920893  0.33849946  0.65812436  1
  N  N20  1  0.56059166  0.67147138  0.33848205  1
  N  N21  1  0.48978039  0.66391753  0.65830548  1
  N  N22  1  0.97781823  0.85100080  0.50644316  1
  N  N23  1  0.47245383  0.15810506  0.50057513  1
