# generated using pymatgen
data_NbZn2N3
_symmetry_space_group_name_H-M   'P 1'
_cell_length_a   5.56697035
_cell_length_b   5.86078660
_cell_length_c   9.91235388
_cell_angle_alpha   89.99826166
_cell_angle_beta   89.62417543
_cell_angle_gamma   89.99620010
_symmetry_Int_Tables_number   1
_chemical_formula_structural   NbZn2N3
_chemical_formula_sum   'Nb4 Zn8 N12'
_cell_volume   323.40167962
_cell_formula_units_Z   4
loop_
 _symmetry_equiv_pos_site_id
 _symmetry_equiv_pos_as_xyz
  1  'x, y, z'
loop_
 _atom_site_type_symbol
 _atom_site_label
 _atom_site_symmetry_multiplicity
 _atom_site_fract_x
 _atom_site_fract_y
 _atom_site_fract_z
 _atom_site_occupancy
  Nb  Nb0  1  0.97939582  0.66878095  0.99976097  1
  Nb  Nb1  1  0.47997682  0.32911743  0.99964106  1
  Nb  Nb2  1  0.10215562  0.17201808  0.49997072  1
  Nb  Nb3  1  0.60182679  0.83191743  0.50143112  1
  Zn  Zn4  1  0.97265311  0.15763432  0.16391574  1
  Zn  Zn5  1  0.97584414  0.15761526  0.83418906  1
  Zn  Zn6  1  0.47737797  0.84086942  0.83527032  1
  Zn  Zn7  1  0.47033239  0.84009043  0.16769812  1
  Zn  Zn8  1  0.06028149  0.66275524  0.33134136  1
  Zn  Zn9  1  0.10931912  0.65800314  0.66546573  1
  Zn  Zn10  1  0.59787885  0.33919078  0.33372720  1
  Zn  Zn11  1  0.60655948  0.34222017  0.66519279  1
  N  N12  1  0.09258125  0.83363707  0.15809708  1
  N  N13  1  0.09463385  0.83444741  0.84355631  1
  N  N14  1  0.11210048  0.34463372  0.99914260  1
  N  N15  1  0.59159611  0.16386434  0.15666092  1
  N  N16  1  0.59490099  0.16441283  0.84239264  1
  N  N17  1  0.61269318  0.65370947  0.00002347  1
  N  N18  1  0.98846525  0.33163101  0.34133108  1
  N  N19  1  0.98764695  0.33595439  0.65755612  1
  N  N20  1  0.50994250  0.66890734  0.34219901  1
  N  N21  1  0.48773255  0.66419521  0.65846151  1
  N  N22  1  0.97189242  0.84741892  0.50266728  1
  N  N23  1  0.46904315  0.15697546  0.50030778  1
