# generated using pymatgen
data_Sc4Al5N9
_symmetry_space_group_name_H-M   'P 1'
_cell_length_a   10.41155485
_cell_length_b   10.38106024
_cell_length_c   9.33192911
_cell_angle_alpha   90.21934386
_cell_angle_beta   89.98777187
_cell_angle_gamma   60.09961371
_symmetry_Int_Tables_number   1
_chemical_formula_structural   Sc4Al5N9
_chemical_formula_sum   'Sc16 Al20 N36'
_cell_volume   874.35931404
_cell_formula_units_Z   4
loop_
 _symmetry_equiv_pos_site_id
 _symmetry_equiv_pos_as_xyz
  1  'x, y, z'
loop_
 _atom_site_type_symbol
 _atom_site_label
 _atom_site_symmetry_multiplicity
 _atom_site_fract_x
 _atom_site_fract_y
 _atom_site_fract_z
 _atom_site_occupancy
  Sc  Sc0  1  0.10553731  0.08861628  0.34348698  1
  Sc  Sc1  1  0.22403687  0.20057808  0.09764550  1
  Sc  Sc2  1  0.87123808  0.21332548  0.60137927  1
  Sc  Sc3  1  0.22696372  0.20586096  0.60126350  1
  Sc  Sc4  1  0.11402349  0.43394573  0.34970607  1
  Sc  Sc5  1  0.23135274  0.54588836  0.08953437  1
  Sc  Sc6  1  0.55796568  0.52734186  0.09950363  1
  Sc  Sc7  1  0.10955587  0.43111995  0.84967054  1
  Sc  Sc8  1  0.22845039  0.54638421  0.59572333  1
  Sc  Sc9  1  0.77867827  0.42631560  0.34509093  1
  Sc  Sc10  1  0.78209156  0.76555937  0.85022894  1
  Sc  Sc11  1  0.55129736  0.87598172  0.09988069  1
  Sc  Sc12  1  0.21867180  0.86652501  0.59618576  1
  Sc  Sc13  1  0.78045073  0.76587612  0.34529575  1
  Sc  Sc14  1  0.44213344  0.74925342  0.84929634  1
  Sc  Sc15  1  0.55372358  0.86780890  0.59945460  1
  Al  Al16  1  0.77260941  0.09121858  0.82847788  1
  Al  Al17  1  0.44894254  0.09416691  0.36846000  1
  Al  Al18  1  0.56503279  0.20025993  0.10225520  1
  Al  Al19  1  0.10566065  0.09546859  0.82878267  1
  Al  Al20  1  0.78005835  0.09149974  0.32454224  1
  Al  Al21  1  0.89028773  0.19567246  0.07202551  1
  Al  Al22  1  0.45068137  0.09914554  0.86916676  1
  Al  Al23  1  0.56755280  0.19690682  0.58261041  1
  Al  Al24  1  0.77908231  0.42103692  0.87424449  1
  Al  Al25  1  0.88027080  0.54235908  0.62318167  1
  Al  Al26  1  0.44844383  0.42206332  0.33767354  1
  Al  Al27  1  0.89357850  0.53821620  0.11107301  1
  Al  Al28  1  0.46458979  0.41491279  0.81652783  1
  Al  Al29  1  0.55902284  0.53811611  0.56741921  1
  Al  Al30  1  0.11161317  0.76888833  0.32202552  1
  Al  Al31  1  0.20231753  0.88244272  0.06772601  1
  Al  Al32  1  0.88720338  0.87506566  0.57312009  1
  Al  Al33  1  0.42737353  0.76416883  0.31985385  1
  Al  Al34  1  0.09989070  0.77413677  0.82947013  1
  Al  Al35  1  0.89155260  0.88086820  0.07929683  1
  N  N36  1  0.23827620  0.19734311  0.34547877  1
  N  N37  1  0.09686839  0.08854289  0.10542086  1
  N  N38  1  0.88519709  0.20341508  0.85635472  1
  N  N39  1  0.77056353  0.07788050  0.62323038  1
  N  N40  1  0.56462207  0.19583765  0.35618980  1
  N  N41  1  0.45622132  0.10308046  0.08382528  1
  N  N42  1  0.23074899  0.19033948  0.84897881  1
  N  N43  1  0.10454817  0.09841641  0.61248719  1
  N  N44  1  0.87504056  0.19726195  0.36897027  1
  N  N45  1  0.77858861  0.09501927  0.11519843  1
  N  N46  1  0.55774404  0.20560825  0.85309380  1
  N  N47  1  0.45646141  0.10029796  0.58165695  1
  N  N48  1  0.23159467  0.55333388  0.35362231  1
  N  N49  1  0.10330166  0.43779525  0.08881409  1
  N  N50  1  0.87584907  0.53014873  0.83641371  1
  N  N51  1  0.76719791  0.45074061  0.58197038  1
  N  N52  1  0.53817662  0.55029329  0.35123730  1
  N  N53  1  0.45692795  0.40311728  0.13086584  1
  N  N54  1  0.24201646  0.54824842  0.84800277  1
  N  N55  1  0.09415176  0.44233502  0.59902052  1
  N  N56  1  0.89083535  0.54112723  0.31881847  1
  N  N57  1  0.80031196  0.41264756  0.09165253  1
  N  N58  1  0.57097191  0.51040451  0.86900787  1
  N  N59  1  0.47546873  0.41088794  0.60252340  1
  N  N60  1  0.22643072  0.85727004  0.36642094  1
  N  N61  1  0.09859935  0.78234803  0.11565504  1
  N  N62  1  0.89524168  0.88631970  0.87591998  1
  N  N63  1  0.79171098  0.75540356  0.59713685  1
  N  N64  1  0.53556947  0.87584896  0.34488751  1
  N  N65  1  0.41459517  0.76995002  0.10246346  1
  N  N66  1  0.20036430  0.88472059  0.85760497  1
  N  N67  1  0.08525177  0.77207588  0.62651410  1
  N  N68  1  0.90124416  0.88190909  0.36508881  1
  N  N69  1  0.79219713  0.75884593  0.09656475  1
  N  N70  1  0.54667696  0.88638683  0.84895686  1
  N  N71  1  0.44942988  0.73707035  0.62062682  1
