# generated using pymatgen
data_Sc4Al5N9
_symmetry_space_group_name_H-M   'P 1'
_cell_length_a   10.35989451
_cell_length_b   10.32313553
_cell_length_c   9.50799624
_cell_angle_alpha   90.16083780
_cell_angle_beta   90.05865573
_cell_angle_gamma   60.13116134
_symmetry_Int_Tables_number   1
_chemical_formula_structural   Sc4Al5N9
_chemical_formula_sum   'Sc16 Al20 N36'
_cell_volume   881.77406534
_cell_formula_units_Z   4
loop_
 _symmetry_equiv_pos_site_id
 _symmetry_equiv_pos_as_xyz
  1  'x, y, z'
loop_
 _atom_site_type_symbol
 _atom_site_label
 _atom_site_symmetry_multiplicity
 _atom_site_fract_x
 _atom_site_fract_y
 _atom_site_fract_z
 _atom_site_occupancy
  Sc  Sc0  1  0.10419230  0.08986315  0.34132956  1
  Sc  Sc1  1  0.22347025  0.20048673  0.09895751  1
  Sc  Sc2  1  0.87204637  0.21031751  0.59766484  1
  Sc  Sc3  1  0.22896346  0.20473725  0.60169806  1
  Sc  Sc4  1  0.11416858  0.43334894  0.35447265  1
  Sc  Sc5  1  0.22836659  0.54700695  0.09784726  1
  Sc  Sc6  1  0.55880568  0.52972205  0.09654239  1
  Sc  Sc7  1  0.10934172  0.43089080  0.85248042  1
  Sc  Sc8  1  0.23288901  0.54300132  0.60238285  1
  Sc  Sc9  1  0.76751457  0.43318366  0.35426848  1
  Sc  Sc10  1  0.78203331  0.76487789  0.84951382  1
  Sc  Sc11  1  0.55254129  0.87730004  0.10037632  1
  Sc  Sc12  1  0.22178386  0.86371847  0.59123170  1
  Sc  Sc13  1  0.78058493  0.76571305  0.34475615  1
  Sc  Sc14  1  0.43702491  0.75854613  0.85074263  1
  Sc  Sc15  1  0.55443847  0.86670366  0.59672130  1
  Al  Al16  1  0.77700327  0.08848833  0.82790978  1
  Al  Al17  1  0.44998459  0.09815518  0.36990059  1
  Al  Al18  1  0.56182422  0.20173409  0.12410994  1
  Al  Al19  1  0.10533425  0.09542286  0.82210217  1
  Al  Al20  1  0.77942962  0.09325136  0.32021802  1
  Al  Al21  1  0.89049307  0.19607862  0.06865709  1
  Al  Al22  1  0.44923416  0.09875777  0.87283930  1
  Al  Al23  1  0.56299804  0.19969909  0.62244555  1
  Al  Al24  1  0.78377827  0.41888434  0.87446650  1
  Al  Al25  1  0.88180681  0.54179020  0.62413921  1
  Al  Al26  1  0.45555320  0.42517438  0.37395010  1
  Al  Al27  1  0.89313324  0.53697811  0.11598232  1
  Al  Al28  1  0.45635435  0.41138019  0.87321602  1
  Al  Al29  1  0.56679030  0.52658613  0.63406172  1
  Al  Al30  1  0.11250185  0.76917945  0.32153286  1
  Al  Al31  1  0.19922510  0.88485553  0.06459723  1
  Al  Al32  1  0.88737171  0.87494427  0.57024911  1
  Al  Al33  1  0.42810391  0.76202485  0.31273158  1
  Al  Al34  1  0.10004988  0.77334175  0.82482655  1
  Al  Al35  1  0.89219248  0.88032966  0.07606034  1
  N  N36  1  0.23880459  0.19704632  0.34287391  1
  N  N37  1  0.09546473  0.08942653  0.10938223  1
  N  N38  1  0.88691807  0.20195534  0.85530433  1
  N  N39  1  0.77197824  0.07595872  0.62542366  1
  N  N40  1  0.55884943  0.20354525  0.32764114  1
  N  N41  1  0.45635462  0.10497231  0.07538919  1
  N  N42  1  0.23048144  0.18919440  0.84667372  1
  N  N43  1  0.10600609  0.09676701  0.61186658  1
  N  N44  1  0.87212435  0.20012205  0.37043809  1
  N  N45  1  0.77894924  0.09500205  0.11167381  1
  N  N46  1  0.55365794  0.20371342  0.82722827  1
  N  N47  1  0.45918096  0.10136258  0.57171918  1
  N  N48  1  0.23620370  0.54978215  0.34956376  1
  N  N49  1  0.10185058  0.43749120  0.08757658  1
  N  N50  1  0.87688766  0.52984116  0.83041858  1
  N  N51  1  0.76755816  0.44994681  0.58357651  1
  N  N52  1  0.53529510  0.54963885  0.32076978  1
  N  N53  1  0.45843465  0.40149769  0.07341923  1
  N  N54  1  0.23717829  0.55116396  0.84812069  1
  N  N55  1  0.09604915  0.44128357  0.59749816  1
  N  N56  1  0.88962232  0.53921873  0.31774590  1
  N  N57  1  0.79974529  0.41391298  0.08371282  1
  N  N58  1  0.57277001  0.50911016  0.84595919  1
  N  N59  1  0.47879624  0.40887065  0.57739348  1
  N  N60  1  0.22869801  0.85665790  0.36700892  1
  N  N61  1  0.09784358  0.78397806  0.11955857  1
  N  N62  1  0.89712321  0.88415303  0.87680818  1
  N  N63  1  0.79214162  0.75469137  0.59474559  1
  N  N64  1  0.53587263  0.87647275  0.34089516  1
  N  N65  1  0.41311732  0.77449842  0.09514063  1
  N  N66  1  0.19676534  0.88687266  0.85831563  1
  N  N67  1  0.08636555  0.77080217  0.62562428  1
  N  N68  1  0.90086040  0.88342913  0.36669418  1
  N  N69  1  0.79337640  0.75751373  0.09556292  1
  N  N70  1  0.54722637  0.88797144  0.84578211  1
  N  N71  1  0.45097404  0.73517783  0.62600411  1
