# generated using pymatgen
data_Sc4Al5N9
_symmetry_space_group_name_H-M   'P 1'
_cell_length_a   10.27013909
_cell_length_b   10.22434850
_cell_length_c   9.76357134
_cell_angle_alpha   90.02684713
_cell_angle_beta   90.21557976
_cell_angle_gamma   60.22425745
_symmetry_Int_Tables_number   1
_chemical_formula_structural   Sc4Al5N9
_chemical_formula_sum   'Sc16 Al20 N36'
_cell_volume   889.86605647
_cell_formula_units_Z   4
loop_
 _symmetry_equiv_pos_site_id
 _symmetry_equiv_pos_as_xyz
  1  'x, y, z'
loop_
 _atom_site_type_symbol
 _atom_site_label
 _atom_site_symmetry_multiplicity
 _atom_site_fract_x
 _atom_site_fract_y
 _atom_site_fract_z
 _atom_site_occupancy
  Sc  Sc0  1  0.11315602  0.08598476  0.34349909  1
  Sc  Sc1  1  0.22829733  0.20307622  0.10079950  1
  Sc  Sc2  1  0.87805149  0.20926154  0.61179296  1
  Sc  Sc3  1  0.22502773  0.20239289  0.61969510  1
  Sc  Sc4  1  0.11636457  0.42851438  0.36326106  1
  Sc  Sc5  1  0.23015673  0.54263362  0.09765933  1
  Sc  Sc6  1  0.55348232  0.53847463  0.10204693  1
  Sc  Sc7  1  0.10658579  0.43328486  0.85528520  1
  Sc  Sc8  1  0.23420789  0.54124959  0.60441432  1
  Sc  Sc9  1  0.76930862  0.43269789  0.35736237  1
  Sc  Sc10  1  0.77731643  0.76462404  0.86705431  1
  Sc  Sc11  1  0.54760511  0.87348370  0.12009026  1
  Sc  Sc12  1  0.21114314  0.87406695  0.59334426  1
  Sc  Sc13  1  0.78577206  0.76369386  0.36276743  1
  Sc  Sc14  1  0.43712236  0.76041049  0.84488365  1
  Sc  Sc15  1  0.55688988  0.87496829  0.60380214  1
  Al  Al16  1  0.77594995  0.09803477  0.87876959  1
  Al  Al17  1  0.44819786  0.10089448  0.37428248  1
  Al  Al18  1  0.56609923  0.19892402  0.12655278  1
  Al  Al19  1  0.09438056  0.10226798  0.87946814  1
  Al  Al20  1  0.77422743  0.08942196  0.37455452  1
  Al  Al21  1  0.88071625  0.20068563  0.12578778  1
  Al  Al22  1  0.45364792  0.09616077  0.87493528  1
  Al  Al23  1  0.56439642  0.20141210  0.62292391  1
  Al  Al24  1  0.78425950  0.41539503  0.88163268  1
  Al  Al25  1  0.88100146  0.54122677  0.62915696  1
  Al  Al26  1  0.45556988  0.42362565  0.37443124  1
  Al  Al27  1  0.89250948  0.53788614  0.12048722  1
  Al  Al28  1  0.45899711  0.41144484  0.87262639  1
  Al  Al29  1  0.57036315  0.52295523  0.63337858  1
  Al  Al30  1  0.11820788  0.76540903  0.31486881  1
  Al  Al31  1  0.20629343  0.87673943  0.05808267  1
  Al  Al32  1  0.87927266  0.87804982  0.63003013  1
  Al  Al33  1  0.44082441  0.74976233  0.38273081  1
  Al  Al34  1  0.10120724  0.77170722  0.82156860  1
  Al  Al35  1  0.88765672  0.88219811  0.12282475  1
  N  N36  1  0.24391196  0.19642300  0.32354024  1
  N  N37  1  0.09436989  0.09044343  0.08579592  1
  N  N38  1  0.88484037  0.20574349  0.83463570  1
  N  N39  1  0.76837832  0.08015902  0.56958609  1
  N  N40  1  0.56013872  0.20223236  0.32165090  1
  N  N41  1  0.46303184  0.09921731  0.06861572  1
  N  N42  1  0.22804227  0.18851408  0.84822436  1
  N  N43  1  0.10230602  0.10377409  0.56466337  1
  N  N44  1  0.87155822  0.19814822  0.32415897  1
  N  N45  1  0.77555619  0.09503504  0.07364511  1
  N  N46  1  0.56047424  0.20147453  0.81907687  1
  N  N47  1  0.45186612  0.11091263  0.56810648  1
  N  N48  1  0.23724302  0.54617722  0.34325115  1
  N  N49  1  0.09858824  0.43960337  0.07852558  1
  N  N50  1  0.87358378  0.52989164  0.82597493  1
  N  N51  1  0.77018353  0.44664475  0.57543667  1
  N  N52  1  0.53622849  0.54883898  0.32009608  1
  N  N53  1  0.46222204  0.39946462  0.06661384  1
  N  N54  1  0.23863777  0.54995984  0.84311465  1
  N  N55  1  0.09580137  0.43928012  0.59703389  1
  N  N56  1  0.89224902  0.53828193  0.31406305  1
  N  N57  1  0.79676508  0.41618704  0.08169230  1
  N  N58  1  0.57314486  0.51082842  0.83577234  1
  N  N59  1  0.47937527  0.40935723  0.57177148  1
  N  N60  1  0.23221682  0.85175175  0.36815932  1
  N  N61  1  0.10125061  0.78033264  0.10963795  1
  N  N62  1  0.88692653  0.88956459  0.83126249  1
  N  N63  1  0.79405289  0.75304961  0.59078938  1
  N  N64  1  0.53831233  0.87526121  0.34989334  1
  N  N65  1  0.41695998  0.77369878  0.06589663  1
  N  N66  1  0.19354014  0.89034653  0.84960590  1
  N  N67  1  0.08748846  0.76915937  0.62139814  1
  N  N68  1  0.89973762  0.88316393  0.32150309  1
  N  N69  1  0.78946897  0.75821687  0.09204281  1
  N  N70  1  0.54572812  0.89031415  0.82889261  1
  N  N71  1  0.45240298  0.73504125  0.59776726  1
