# generated using pymatgen
data_Sc4Al5N9
_symmetry_space_group_name_H-M   'P 1'
_cell_length_a   10.31652617
_cell_length_b   10.27838222
_cell_length_c   9.61792068
_cell_angle_alpha   89.82355889
_cell_angle_beta   89.74121206
_cell_angle_gamma   60.00114190
_symmetry_Int_Tables_number   1
_chemical_formula_structural   Sc4Al5N9
_chemical_formula_sum   'Sc16 Al20 N36'
_cell_volume   883.22314719
_cell_formula_units_Z   4
loop_
 _symmetry_equiv_pos_site_id
 _symmetry_equiv_pos_as_xyz
  1  'x, y, z'
loop_
 _atom_site_type_symbol
 _atom_site_label
 _atom_site_symmetry_multiplicity
 _atom_site_fract_x
 _atom_site_fract_y
 _atom_site_fract_z
 _atom_site_occupancy
  Sc  Sc0  1  0.10486890  0.08840615  0.33394312  1
  Sc  Sc1  1  0.22516158  0.19928443  0.08675575  1
  Sc  Sc2  1  0.87576779  0.20178610  0.59772143  1
  Sc  Sc3  1  0.22739008  0.20570307  0.58925669  1
  Sc  Sc4  1  0.11776988  0.43306291  0.34642979  1
  Sc  Sc5  1  0.23178535  0.54703166  0.08476404  1
  Sc  Sc6  1  0.56732281  0.52354517  0.09348962  1
  Sc  Sc7  1  0.10832001  0.43118461  0.84752756  1
  Sc  Sc8  1  0.23031594  0.54473569  0.59392547  1
  Sc  Sc9  1  0.77889879  0.42344141  0.34744095  1
  Sc  Sc10  1  0.78125409  0.76588892  0.84779469  1
  Sc  Sc11  1  0.55242406  0.87608978  0.09251391  1
  Sc  Sc12  1  0.22032831  0.86530673  0.59095742  1
  Sc  Sc13  1  0.77907395  0.76930787  0.34222350  1
  Sc  Sc14  1  0.44131568  0.75111811  0.84784929  1
  Sc  Sc15  1  0.55105290  0.87012499  0.58784087  1
  Al  Al16  1  0.77287508  0.09058620  0.82771936  1
  Al  Al17  1  0.44983659  0.09745747  0.32226773  1
  Al  Al18  1  0.56429126  0.20170559  0.07296165  1
  Al  Al19  1  0.10672717  0.09542563  0.82402204  1
  Al  Al20  1  0.77635112  0.09487689  0.31802528  1
  Al  Al21  1  0.88743438  0.20389219  0.06279442  1
  Al  Al22  1  0.44982008  0.09869916  0.82370078  1
  Al  Al23  1  0.56588258  0.19748194  0.57203242  1
  Al  Al24  1  0.77164571  0.42550347  0.82017167  1
  Al  Al25  1  0.88262965  0.54490334  0.61985032  1
  Al  Al26  1  0.44966552  0.42025625  0.32783733  1
  Al  Al27  1  0.89318761  0.53577640  0.12169101  1
  Al  Al28  1  0.46355946  0.41501414  0.81831942  1
  Al  Al29  1  0.55483626  0.53688753  0.56668761  1
  Al  Al30  1  0.11190640  0.76913116  0.32075370  1
  Al  Al31  1  0.20139873  0.88241911  0.06516788  1
  Al  Al32  1  0.88525574  0.87617016  0.57034633  1
  Al  Al33  1  0.42807420  0.76285897  0.31515489  1
  Al  Al34  1  0.10003863  0.77436160  0.82514828  1
  Al  Al35  1  0.89200187  0.88136273  0.07686240  1
  N  N36  1  0.23913083  0.19541442  0.35454976  1
  N  N37  1  0.09520142  0.08951377  0.10773844  1
  N  N38  1  0.88340749  0.20658183  0.85457973  1
  N  N39  1  0.76587024  0.07655849  0.63223058  1
  N  N40  1  0.56193626  0.19818356  0.37369097  1
  N  N41  1  0.45832272  0.10426296  0.12439123  1
  N  N42  1  0.23048819  0.18996609  0.85457451  1
  N  N43  1  0.10819205  0.09583867  0.62046877  1
  N  N44  1  0.87529484  0.19352767  0.37895503  1
  N  N45  1  0.77743479  0.09801263  0.11719579  1
  N  N46  1  0.55719195  0.20422882  0.87470548  1
  N  N47  1  0.45659755  0.10414299  0.62571664  1
  N  N48  1  0.23480165  0.55250759  0.35732097  1
  N  N49  1  0.10283250  0.43793575  0.09007116  1
  N  N50  1  0.87555184  0.53148427  0.82779672  1
  N  N51  1  0.76609343  0.44579467  0.60152254  1
  N  N52  1  0.53810023  0.54826107  0.35904139  1
  N  N53  1  0.46017275  0.40162830  0.13173420  1
  N  N54  1  0.24034828  0.54949198  0.85104764  1
  N  N55  1  0.09577711  0.44225206  0.59804095  1
  N  N56  1  0.89129680  0.54160798  0.32783663  1
  N  N57  1  0.80359645  0.41059260  0.11470298  1
  N  N58  1  0.57105424  0.51024324  0.87283210  1
  N  N59  1  0.47662638  0.40834792  0.61760119  1
  N  N60  1  0.22761812  0.85679423  0.36979520  1
  N  N61  1  0.09811138  0.78307210  0.12234970  1
  N  N62  1  0.89654783  0.88574366  0.88079580  1
  N  N63  1  0.78841040  0.75794630  0.59566743  1
  N  N64  1  0.53416406  0.87694083  0.34938233  1
  N  N65  1  0.41540733  0.76863727  0.10605085  1
  N  N66  1  0.19954703  0.88474297  0.86246523  1
  N  N67  1  0.08380125  0.77322027  0.62982955  1
  N  N68  1  0.90044375  0.88478391  0.36978677  1
  N  N69  1  0.79397395  0.75654573  0.09932246  1
  N  N70  1  0.54569824  0.88798744  0.86006808  1
  N  N71  1  0.45127105  0.73597985  0.62694609  1
