# generated using pymatgen
data_Sc4Al5N9
_symmetry_space_group_name_H-M   'P 1'
_cell_length_a   10.27476805
_cell_length_b   10.22975204
_cell_length_c   9.75433672
_cell_angle_alpha   90.10446295
_cell_angle_beta   90.29342588
_cell_angle_gamma   60.23613399
_symmetry_Int_Tables_number   1
_chemical_formula_structural   Sc4Al5N9
_chemical_formula_sum   'Sc16 Al20 N36'
_cell_volume   889.99616125
_cell_formula_units_Z   4
loop_
 _symmetry_equiv_pos_site_id
 _symmetry_equiv_pos_as_xyz
  1  'x, y, z'
loop_
 _atom_site_type_symbol
 _atom_site_label
 _atom_site_symmetry_multiplicity
 _atom_site_fract_x
 _atom_site_fract_y
 _atom_site_fract_z
 _atom_site_occupancy
  Sc  Sc0  1  0.11111871  0.08860853  0.34380838  1
  Sc  Sc1  1  0.22814986  0.20341560  0.10155303  1
  Sc  Sc2  1  0.87907450  0.20841232  0.61163664  1
  Sc  Sc3  1  0.22543761  0.20176282  0.61914355  1
  Sc  Sc4  1  0.11580602  0.42934646  0.36361703  1
  Sc  Sc5  1  0.22998826  0.54296065  0.09784964  1
  Sc  Sc6  1  0.55683401  0.53362227  0.09784049  1
  Sc  Sc7  1  0.10713520  0.43274553  0.85529179  1
  Sc  Sc8  1  0.23430810  0.54160553  0.60506737  1
  Sc  Sc9  1  0.76736391  0.43444682  0.35844881  1
  Sc  Sc10  1  0.77962317  0.76362684  0.86503470  1
  Sc  Sc11  1  0.55157903  0.87578918  0.11220036  1
  Sc  Sc12  1  0.21748659  0.86985771  0.58872900  1
  Sc  Sc13  1  0.78415114  0.76445300  0.36249871  1
  Sc  Sc14  1  0.43663389  0.75986315  0.84725003  1
  Sc  Sc15  1  0.55465815  0.87090327  0.60455911  1
  Al  Al16  1  0.77624377  0.09788857  0.87845473  1
  Al  Al17  1  0.44812450  0.10041342  0.37373992  1
  Al  Al18  1  0.56601587  0.19948750  0.12727471  1
  Al  Al19  1  0.09499935  0.10145533  0.88029620  1
  Al  Al20  1  0.77358750  0.09001748  0.37497527  1
  Al  Al21  1  0.88075556  0.20093056  0.12641154  1
  Al  Al22  1  0.45330067  0.09708293  0.87467566  1
  Al  Al23  1  0.56446485  0.20058347  0.62228572  1
  Al  Al24  1  0.78618353  0.41393807  0.88168311  1
  Al  Al25  1  0.88092118  0.54089292  0.62910146  1
  Al  Al26  1  0.45501648  0.42469812  0.37496297  1
  Al  Al27  1  0.89316304  0.53767282  0.12055950  1
  Al  Al28  1  0.45872404  0.41030486  0.87279317  1
  Al  Al29  1  0.56915361  0.52439628  0.63670253  1
  Al  Al30  1  0.11619580  0.76539059  0.31518007  1
  Al  Al31  1  0.20440404  0.87783637  0.06113436  1
  Al  Al32  1  0.87976938  0.87823936  0.62929183  1
  Al  Al33  1  0.43478652  0.75742123  0.33715057  1
  Al  Al34  1  0.10206636  0.77268604  0.82106800  1
  Al  Al35  1  0.88771162  0.88223569  0.12274755  1
  N  N36  1  0.24329607  0.19723541  0.32471047  1
  N  N37  1  0.09378044  0.09145087  0.08765316  1
  N  N38  1  0.88582694  0.20477015  0.83458043  1
  N  N39  1  0.76847653  0.08042944  0.56979463  1
  N  N40  1  0.55969820  0.20258881  0.32245323  1
  N  N41  1  0.46178130  0.10215589  0.06852897  1
  N  N42  1  0.22819282  0.18812947  0.84818308  1
  N  N43  1  0.10392786  0.10152061  0.56501103  1
  N  N44  1  0.87026710  0.19948660  0.32513382  1
  N  N45  1  0.77541260  0.09531277  0.07383606  1
  N  N46  1  0.56056465  0.20106163  0.81855026  1
  N  N47  1  0.45319390  0.10756840  0.56824415  1
  N  N48  1  0.23678865  0.54678566  0.34415875  1
  N  N49  1  0.09898531  0.43945834  0.07906111  1
  N  N50  1  0.87451321  0.52894560  0.82599452  1
  N  N51  1  0.76899719  0.44688929  0.57671628  1
  N  N52  1  0.53579507  0.54800420  0.31676544  1
  N  N53  1  0.46121595  0.39880447  0.06680341  1
  N  N54  1  0.23855229  0.55013529  0.84329073  1
  N  N55  1  0.09588677  0.43915377  0.59715031  1
  N  N56  1  0.89135557  0.53898650  0.31452569  1
  N  N57  1  0.79895927  0.41501001  0.08175376  1
  N  N58  1  0.57435834  0.50875114  0.84137994  1
  N  N59  1  0.47940527  0.40957003  0.57250672  1
  N  N60  1  0.23075303  0.85306567  0.36431507  1
  N  N61  1  0.10041033  0.78020382  0.11086839  1
  N  N62  1  0.88782901  0.88975543  0.83059122  1
  N  N63  1  0.79289594  0.75338811  0.59152067  1
  N  N64  1  0.53747406  0.87600107  0.34383381  1
  N  N65  1  0.41607623  0.77417945  0.08198211  1
  N  N66  1  0.19443447  0.88955570  0.85571377  1
  N  N67  1  0.08851173  0.77018736  0.62064670  1
  N  N68  1  0.89843396  0.88370925  0.32210802  1
  N  N69  1  0.79221218  0.75728915  0.09067923  1
  N  N70  1  0.54663241  0.88950103  0.83560728  1
  N  N71  1  0.45101764  0.73548047  0.61907540  1
