# generated using pymatgen
data_Sc4Al5N9
_symmetry_space_group_name_H-M   'P 1'
_cell_length_a   10.38050136
_cell_length_b   10.33597821
_cell_length_c   9.44240025
_cell_angle_alpha   90.18243963
_cell_angle_beta   89.96216424
_cell_angle_gamma   60.02783385
_symmetry_Int_Tables_number   1
_chemical_formula_structural   Sc4Al5N9
_chemical_formula_sum   'Sc16 Al20 N36'
_cell_volume   877.60890951
_cell_formula_units_Z   4
loop_
 _symmetry_equiv_pos_site_id
 _symmetry_equiv_pos_as_xyz
  1  'x, y, z'
loop_
 _atom_site_type_symbol
 _atom_site_label
 _atom_site_symmetry_multiplicity
 _atom_site_fract_x
 _atom_site_fract_y
 _atom_site_fract_z
 _atom_site_occupancy
  Sc  Sc0  1  0.10383012  0.08883221  0.34312433  1
  Sc  Sc1  1  0.22432432  0.19993235  0.09617585  1
  Sc  Sc2  1  0.86895580  0.21473902  0.60116663  1
  Sc  Sc3  1  0.22631288  0.20613310  0.59862080  1
  Sc  Sc4  1  0.11495048  0.43428968  0.35100386  1
  Sc  Sc5  1  0.23149964  0.54611559  0.08835839  1
  Sc  Sc6  1  0.55865996  0.52741066  0.10075076  1
  Sc  Sc7  1  0.10977535  0.43107541  0.84956655  1
  Sc  Sc8  1  0.23114927  0.54481062  0.59616519  1
  Sc  Sc9  1  0.77839930  0.42673221  0.34604441  1
  Sc  Sc10  1  0.78253999  0.76498026  0.85012821  1
  Sc  Sc11  1  0.55169495  0.87606728  0.09820783  1
  Sc  Sc12  1  0.21867467  0.86634334  0.59553806  1
  Sc  Sc13  1  0.77998721  0.76711719  0.34596080  1
  Sc  Sc14  1  0.44207340  0.74841067  0.84960814  1
  Sc  Sc15  1  0.55347289  0.86735435  0.59827725  1
  Al  Al16  1  0.77495300  0.08999165  0.82801874  1
  Al  Al17  1  0.44903265  0.09492908  0.35567890  1
  Al  Al18  1  0.56484247  0.20163222  0.07320579  1
  Al  Al19  1  0.10516083  0.09560258  0.82568873  1
  Al  Al20  1  0.77602986  0.09425886  0.31991130  1
  Al  Al21  1  0.89113066  0.19498798  0.07137334  1
  Al  Al22  1  0.44889805  0.09753960  0.85246295  1
  Al  Al23  1  0.56825799  0.19746942  0.57331690  1
  Al  Al24  1  0.78042527  0.42112735  0.87879608  1
  Al  Al25  1  0.88014864  0.54255460  0.62371027  1
  Al  Al26  1  0.44917071  0.41890466  0.33085001  1
  Al  Al27  1  0.89472083  0.53862706  0.11482900  1
  Al  Al28  1  0.46653849  0.41501419  0.81765900  1
  Al  Al29  1  0.55828722  0.53743882  0.56580873  1
  Al  Al30  1  0.11129111  0.76914435  0.32261523  1
  Al  Al31  1  0.20132414  0.88277092  0.06721407  1
  Al  Al32  1  0.88624279  0.87656768  0.57271858  1
  Al  Al33  1  0.42624851  0.76450536  0.31855543  1
  Al  Al34  1  0.10050326  0.77351531  0.82757360  1
  Al  Al35  1  0.89184840  0.88054704  0.07848707  1
  N  N36  1  0.23801241  0.19709683  0.34955424  1
  N  N37  1  0.09649854  0.08820104  0.11007423  1
  N  N38  1  0.88579401  0.20331262  0.85813932  1
  N  N39  1  0.76845507  0.07876037  0.62844452  1
  N  N40  1  0.56317110  0.19765003  0.36855528  1
  N  N41  1  0.45620601  0.10317936  0.09532159  1
  N  N42  1  0.22968311  0.18997990  0.85035578  1
  N  N43  1  0.10303292  0.09892455  0.61488572  1
  N  N44  1  0.87268611  0.19729372  0.37185029  1
  N  N45  1  0.77700667  0.09612275  0.11540211  1
  N  N46  1  0.55964988  0.20485623  0.86809538  1
  N  N47  1  0.45674472  0.10179858  0.60014337  1
  N  N48  1  0.23374905  0.55207729  0.35517396  1
  N  N49  1  0.10370964  0.43792455  0.08799235  1
  N  N50  1  0.87613195  0.52936844  0.83326856  1
  N  N51  1  0.76672265  0.45229290  0.57840901  1
  N  N52  1  0.53684387  0.54919599  0.35172665  1
  N  N53  1  0.45867105  0.40037892  0.13021406  1
  N  N54  1  0.24259889  0.54845616  0.84947066  1
  N  N55  1  0.09463992  0.44308914  0.59900860  1
  N  N56  1  0.89159198  0.54152471  0.31865381  1
  N  N57  1  0.80197675  0.41282717  0.09274151  1
  N  N58  1  0.57234356  0.50992907  0.87433494  1
  N  N59  1  0.47867087  0.40907977  0.61196375  1
  N  N60  1  0.22636376  0.85708536  0.36968386  1
  N  N61  1  0.09822139  0.78268501  0.11946576  1
  N  N62  1  0.89671691  0.88530973  0.87805549  1
  N  N63  1  0.79129427  0.75619560  0.59734090  1
  N  N64  1  0.53500588  0.87630384  0.34732776  1
  N  N65  1  0.41358905  0.77043678  0.10460046  1
  N  N66  1  0.19962744  0.88509897  0.85976417  1
  N  N67  1  0.08498587  0.77175182  0.62774320  1
  N  N68  1  0.89982223  0.88415334  0.36746612  1
  N  N69  1  0.79292399  0.75855240  0.09690568  1
  N  N70  1  0.54719158  0.88476124  0.85168207  1
  N  N71  1  0.44937943  0.73575226  0.62410310  1
