# generated using pymatgen
data_Sc4Al5N9
_symmetry_space_group_name_H-M   'P 1'
_cell_length_a   10.30176689
_cell_length_b   10.26138064
_cell_length_c   9.67600015
_cell_angle_alpha   90.17209519
_cell_angle_beta   90.33756770
_cell_angle_gamma   60.19692282
_symmetry_Int_Tables_number   1
_chemical_formula_structural   Sc4Al5N9
_chemical_formula_sum   'Sc16 Al20 N36'
_cell_volume   887.55411289
_cell_formula_units_Z   4
loop_
 _symmetry_equiv_pos_site_id
 _symmetry_equiv_pos_as_xyz
  1  'x, y, z'
loop_
 _atom_site_type_symbol
 _atom_site_label
 _atom_site_symmetry_multiplicity
 _atom_site_fract_x
 _atom_site_fract_y
 _atom_site_fract_z
 _atom_site_occupancy
  Sc  Sc0  1  0.11035733  0.08955691  0.34397727  1
  Sc  Sc1  1  0.22828252  0.20347222  0.10227782  1
  Sc  Sc2  1  0.87986850  0.20780014  0.60913047  1
  Sc  Sc3  1  0.22594309  0.20160307  0.61517462  1
  Sc  Sc4  1  0.11458505  0.43109827  0.36121473  1
  Sc  Sc5  1  0.22981569  0.54343148  0.09711148  1
  Sc  Sc6  1  0.55928161  0.52899140  0.09464491  1
  Sc  Sc7  1  0.10788191  0.43168509  0.85437378  1
  Sc  Sc8  1  0.23349078  0.54224034  0.60409259  1
  Sc  Sc9  1  0.76466899  0.43697108  0.35796169  1
  Sc  Sc10  1  0.78141721  0.76273964  0.86176477  1
  Sc  Sc11  1  0.55441550  0.87789770  0.10563042  1
  Sc  Sc12  1  0.22155053  0.86652907  0.58547823  1
  Sc  Sc13  1  0.78221699  0.76587703  0.36019136  1
  Sc  Sc14  1  0.43621104  0.75963958  0.85011741  1
  Sc  Sc15  1  0.55345377  0.86806702  0.60303152  1
  Al  Al16  1  0.77670002  0.09799917  0.87752700  1
  Al  Al17  1  0.44898758  0.09894023  0.37270386  1
  Al  Al18  1  0.56587401  0.20001121  0.12774492  1
  Al  Al19  1  0.09598587  0.10069806  0.87892664  1
  Al  Al20  1  0.77317085  0.09030170  0.37479178  1
  Al  Al21  1  0.88092846  0.20102125  0.12735634  1
  Al  Al22  1  0.45280111  0.09777207  0.87336157  1
  Al  Al23  1  0.56477562  0.19982489  0.62122351  1
  Al  Al24  1  0.78792286  0.41233627  0.88108924  1
  Al  Al25  1  0.88091868  0.54055583  0.62837256  1
  Al  Al26  1  0.45457881  0.42641005  0.37467773  1
  Al  Al27  1  0.89318291  0.53772746  0.11967671  1
  Al  Al28  1  0.45836697  0.40920996  0.87183740  1
  Al  Al29  1  0.56858729  0.52468246  0.63879174  1
  Al  Al30  1  0.11464518  0.76604255  0.31603716  1
  Al  Al31  1  0.20244853  0.87948920  0.06458596  1
  Al  Al32  1  0.88066966  0.87826496  0.62843172  1
  Al  Al33  1  0.42952610  0.76132319  0.30814284  1
  Al  Al34  1  0.10283506  0.77325757  0.82256362  1
  Al  Al35  1  0.88792470  0.88235163  0.12093491  1
  N  N36  1  0.24257638  0.19812245  0.32859886  1
  N  N37  1  0.09353376  0.09241077  0.08975711  1
  N  N38  1  0.88673267  0.20390072  0.83439295  1
  N  N39  1  0.76883658  0.08039122  0.57096433  1
  N  N40  1  0.55931389  0.20315965  0.32422037  1
  N  N41  1  0.46064236  0.10458690  0.06938254  1
  N  N42  1  0.22852019  0.18784298  0.84779371  1
  N  N43  1  0.10592297  0.09848143  0.56730558  1
  N  N44  1  0.86952894  0.20071692  0.32831231  1
  N  N45  1  0.77527961  0.09607629  0.07479369  1
  N  N46  1  0.56099858  0.20039788  0.81881100  1
  N  N47  1  0.45522354  0.10424109  0.56982302  1
  N  N48  1  0.23604114  0.54796849  0.34564048  1
  N  N49  1  0.09969381  0.43898069  0.08180240  1
  N  N50  1  0.87559821  0.52785549  0.82755800  1
  N  N51  1  0.76804992  0.44728833  0.57842578  1
  N  N52  1  0.53431625  0.54899765  0.31465416  1
  N  N53  1  0.46021832  0.39829574  0.06750559  1
  N  N54  1  0.23825393  0.55004044  0.84403056  1
  N  N55  1  0.09558810  0.43943101  0.59741513  1
  N  N56  1  0.88963309  0.54033122  0.31567214  1
  N  N57  1  0.80032170  0.41381324  0.08295694  1
  N  N58  1  0.57498187  0.50749987  0.84555066  1
  N  N59  1  0.47888178  0.40995059  0.57424323  1
  N  N60  1  0.23035184  0.85397296  0.35988506  1
  N  N61  1  0.09972653  0.78001586  0.10980547  1
  N  N62  1  0.88898659  0.88965008  0.83176808  1
  N  N63  1  0.79197151  0.75390164  0.59372662  1
  N  N64  1  0.53680039  0.87665190  0.33978466  1
  N  N65  1  0.41529098  0.77476164  0.09336088  1
  N  N66  1  0.19558094  0.88889701  0.85950221  1
  N  N67  1  0.08929759  0.77095907  0.61981284  1
  N  N68  1  0.89774281  0.88419713  0.32259266  1
  N  N69  1  0.79407546  0.75687067  0.09007501  1
  N  N70  1  0.54707809  0.88833660  0.84234104  1
  N  N71  1  0.45099157  0.73471552  0.62877205  1
