# generated using pymatgen
data_Sc4Al5N9
_symmetry_space_group_name_H-M   'P 1'
_cell_length_a   10.29627656
_cell_length_b   10.25496181
_cell_length_c   9.69680584
_cell_angle_alpha   89.88110700
_cell_angle_beta   89.93546450
_cell_angle_gamma   60.24583635
_symmetry_Int_Tables_number   1
_chemical_formula_structural   Sc4Al5N9
_chemical_formula_sum   'Sc16 Al20 N36'
_cell_volume   888.88004766
_cell_formula_units_Z   4
loop_
 _symmetry_equiv_pos_site_id
 _symmetry_equiv_pos_as_xyz
  1  'x, y, z'
loop_
 _atom_site_type_symbol
 _atom_site_label
 _atom_site_symmetry_multiplicity
 _atom_site_fract_x
 _atom_site_fract_y
 _atom_site_fract_z
 _atom_site_occupancy
  Sc  Sc0  1  0.11128596  0.08899711  0.34501477  1
  Sc  Sc1  1  0.22793664  0.20458158  0.10288722  1
  Sc  Sc2  1  0.88094830  0.20686294  0.61142794  1
  Sc  Sc3  1  0.22649371  0.20122560  0.61687185  1
  Sc  Sc4  1  0.11453709  0.43109544  0.36339045  1
  Sc  Sc5  1  0.22811208  0.54570925  0.09892518  1
  Sc  Sc6  1  0.55940166  0.52823561  0.09529218  1
  Sc  Sc7  1  0.10757872  0.43280032  0.85497920  1
  Sc  Sc8  1  0.23338953  0.54289988  0.60561197  1
  Sc  Sc9  1  0.76434809  0.43584110  0.35914342  1
  Sc  Sc10  1  0.78168395  0.76473059  0.84849823  1
  Sc  Sc11  1  0.55339631  0.87788475  0.09982140  1
  Sc  Sc12  1  0.22237979  0.86647316  0.58655378  1
  Sc  Sc13  1  0.78026674  0.76448643  0.34340828  1
  Sc  Sc14  1  0.43601019  0.75922336  0.84998347  1
  Sc  Sc15  1  0.55427279  0.86685243  0.59759115  1
  Al  Al16  1  0.77567535  0.10095056  0.87793051  1
  Al  Al17  1  0.44836967  0.09913917  0.37243561  1
  Al  Al18  1  0.56482027  0.20082532  0.12909586  1
  Al  Al19  1  0.09671247  0.10031622  0.88091688  1
  Al  Al20  1  0.77128713  0.09388043  0.37521559  1
  Al  Al21  1  0.88125003  0.20099345  0.12849320  1
  Al  Al22  1  0.45218975  0.09838563  0.87367519  1
  Al  Al23  1  0.56454565  0.19971487  0.62289284  1
  Al  Al24  1  0.78792932  0.41271959  0.88115974  1
  Al  Al25  1  0.88125247  0.53973700  0.62698326  1
  Al  Al26  1  0.45349681  0.42716738  0.37615039  1
  Al  Al27  1  0.89341017  0.53631307  0.11828319  1
  Al  Al28  1  0.45692993  0.41018002  0.87353219  1
  Al  Al29  1  0.56864763  0.52400251  0.63992239  1
  Al  Al30  1  0.11269481  0.76737915  0.31859547  1
  Al  Al31  1  0.20158554  0.87924705  0.06616680  1
  Al  Al32  1  0.88909261  0.87074447  0.56765819  1
  Al  Al33  1  0.42901413  0.76124845  0.30717422  1
  Al  Al34  1  0.09917198  0.77638804  0.82089345  1
  Al  Al35  1  0.89154458  0.87913684  0.07314673  1
  N  N36  1  0.24254874  0.19879169  0.32827118  1
  N  N37  1  0.09399589  0.09237038  0.09038935  1
  N  N38  1  0.88773155  0.20390077  0.83544396  1
  N  N39  1  0.76788053  0.08337065  0.57503226  1
  N  N40  1  0.55870089  0.20362776  0.32514511  1
  N  N41  1  0.46022250  0.10520439  0.06941797  1
  N  N42  1  0.22856690  0.18839740  0.84838419  1
  N  N43  1  0.10709299  0.09803346  0.56769797  1
  N  N44  1  0.87083850  0.19987453  0.32837950  1
  N  N45  1  0.77293329  0.09975726  0.07878410  1
  N  N46  1  0.56040061  0.20108657  0.82000996  1
  N  N47  1  0.45550959  0.10378403  0.56956340  1
  N  N48  1  0.23584638  0.54825976  0.34840592  1
  N  N49  1  0.09972137  0.43997755  0.08076595  1
  N  N50  1  0.87533702  0.52863879  0.82663668  1
  N  N51  1  0.76828055  0.44634116  0.57893870  1
  N  N52  1  0.53453169  0.54865210  0.31480581  1
  N  N53  1  0.45791816  0.39950599  0.06884211  1
  N  N54  1  0.23770071  0.55160385  0.84517774  1
  N  N55  1  0.09628730  0.43925735  0.59780562  1
  N  N56  1  0.89070188  0.53695088  0.31457123  1
  N  N57  1  0.80053552  0.41347673  0.08212162  1
  N  N58  1  0.57517337  0.50684651  0.84615059  1
  N  N59  1  0.47793044  0.41039835  0.57530295  1
  N  N60  1  0.23096890  0.85328823  0.36271266  1
  N  N61  1  0.09615986  0.78364621  0.12078502  1
  N  N62  1  0.89614905  0.88562952  0.87257965  1
  N  N63  1  0.79196762  0.75314091  0.59386322  1
  N  N64  1  0.53526718  0.87715617  0.33806609  1
  N  N65  1  0.41437045  0.77377807  0.09361166  1
  N  N66  1  0.19568433  0.88838508  0.86144215  1
  N  N67  1  0.08666905  0.77336788  0.62612676  1
  N  N68  1  0.90368269  0.87728273  0.36481854  1
  N  N69  1  0.79354282  0.75647036  0.09329055  1
  N  N70  1  0.54694659  0.88866266  0.84324509  1
  N  N71  1  0.45139601  0.73424646  0.62967462  1
