# generated using pymatgen
data_Sc4Al5N9
_symmetry_space_group_name_H-M   'P 1'
_cell_length_a   10.41137688
_cell_length_b   10.38216646
_cell_length_c   9.33348729
_cell_angle_alpha   90.21837656
_cell_angle_beta   89.97899374
_cell_angle_gamma   60.11554945
_symmetry_Int_Tables_number   1
_chemical_formula_structural   Sc4Al5N9
_chemical_formula_sum   'Sc16 Al20 N36'
_cell_volume   874.72307972
_cell_formula_units_Z   4
loop_
 _symmetry_equiv_pos_site_id
 _symmetry_equiv_pos_as_xyz
  1  'x, y, z'
loop_
 _atom_site_type_symbol
 _atom_site_label
 _atom_site_symmetry_multiplicity
 _atom_site_fract_x
 _atom_site_fract_y
 _atom_site_fract_z
 _atom_site_occupancy
  Sc  Sc0  1  0.10578156  0.08857420  0.34329781  1
  Sc  Sc1  1  0.22430377  0.20057443  0.09741720  1
  Sc  Sc2  1  0.87134627  0.21336872  0.60114199  1
  Sc  Sc3  1  0.22687641  0.20584073  0.60133808  1
  Sc  Sc4  1  0.11402519  0.43383410  0.34959877  1
  Sc  Sc5  1  0.23133109  0.54585730  0.08952798  1
  Sc  Sc6  1  0.55793094  0.52725631  0.09939918  1
  Sc  Sc7  1  0.10954948  0.43107240  0.84960838  1
  Sc  Sc8  1  0.22819990  0.54652776  0.59544753  1
  Sc  Sc9  1  0.77868486  0.42637519  0.34496894  1
  Sc  Sc10  1  0.78205933  0.76553098  0.85019023  1
  Sc  Sc11  1  0.55123934  0.87637639  0.09966104  1
  Sc  Sc12  1  0.21869925  0.86653167  0.59610543  1
  Sc  Sc13  1  0.78040367  0.76581567  0.34516376  1
  Sc  Sc14  1  0.44213404  0.74940390  0.84926296  1
  Sc  Sc15  1  0.55381673  0.86762705  0.59944627  1
  Al  Al16  1  0.77316581  0.09100537  0.82865091  1
  Al  Al17  1  0.44917951  0.09409624  0.37023809  1
  Al  Al18  1  0.56459747  0.19904751  0.11978745  1
  Al  Al19  1  0.10568219  0.09547946  0.82875480  1
  Al  Al20  1  0.78116902  0.09061219  0.32642860  1
  Al  Al21  1  0.89012789  0.19568132  0.07214496  1
  Al  Al22  1  0.45099664  0.09964849  0.86961039  1
  Al  Al23  1  0.56640015  0.19672845  0.59740513  1
  Al  Al24  1  0.77905987  0.42099111  0.87425427  1
  Al  Al25  1  0.88024837  0.54232898  0.62317867  1
  Al  Al26  1  0.44810309  0.42283031  0.33931384  1
  Al  Al27  1  0.89355398  0.53818650  0.11101237  1
  Al  Al28  1  0.46351891  0.41613898  0.81664904  1
  Al  Al29  1  0.55899578  0.53837867  0.56712200  1
  Al  Al30  1  0.11176735  0.76879586  0.32178962  1
  Al  Al31  1  0.20231049  0.88251208  0.06759708  1
  Al  Al32  1  0.88761532  0.87459054  0.57293368  1
  Al  Al33  1  0.42740943  0.76431546  0.31953121  1
  Al  Al34  1  0.09991791  0.77415660  0.82943004  1
  Al  Al35  1  0.89145977  0.88100143  0.07927704  1
  N  N36  1  0.23857842  0.19723048  0.34502359  1
  N  N37  1  0.09690843  0.08862836  0.10527730  1
  N  N38  1  0.88513640  0.20343130  0.85631256  1
  N  N39  1  0.77217068  0.07708226  0.62188220  1
  N  N40  1  0.56443567  0.19477007  0.34903798  1
  N  N41  1  0.45693507  0.10385584  0.08125129  1
  N  N42  1  0.23070520  0.19034737  0.84874664  1
  N  N43  1  0.10460292  0.09838622  0.61238191  1
  N  N44  1  0.87530831  0.19734046  0.36873305  1
  N  N45  1  0.77851589  0.09501769  0.11490112  1
  N  N46  1  0.55635454  0.20533809  0.83819164  1
  N  N47  1  0.45639413  0.09997377  0.57996237  1
  N  N48  1  0.23133143  0.55347573  0.35341850  1
  N  N49  1  0.10329109  0.43768490  0.08871492  1
  N  N50  1  0.87583438  0.53012461  0.83637394  1
  N  N51  1  0.76712733  0.45083003  0.58181401  1
  N  N52  1  0.53829261  0.55058051  0.35088079  1
  N  N53  1  0.45665388  0.40346355  0.13011501  1
  N  N54  1  0.24186552  0.54844621  0.84786228  1
  N  N55  1  0.09410807  0.44222507  0.59894048  1
  N  N56  1  0.89086557  0.54112712  0.31869567  1
  N  N57  1  0.80025531  0.41265499  0.09154499  1
  N  N58  1  0.57091975  0.51041216  0.86873071  1
  N  N59  1  0.47474275  0.41186970  0.60016408  1
  N  N60  1  0.22649928  0.85724652  0.36633053  1
  N  N61  1  0.09861115  0.78238060  0.11549543  1
  N  N62  1  0.89524749  0.88625382  0.87589143  1
  N  N63  1  0.79177592  0.75530107  0.59707604  1
  N  N64  1  0.53553706  0.87596317  0.34446885  1
  N  N65  1  0.41464196  0.77010366  0.10224976  1
  N  N66  1  0.20035879  0.88476583  0.85752392  1
  N  N67  1  0.08541502  0.77197135  0.62655962  1
  N  N68  1  0.90169308  0.88130678  0.36495887  1
  N  N69  1  0.79208057  0.75886114  0.09648820  1
  N  N70  1  0.54664593  0.88655198  0.84866238  1
  N  N71  1  0.44943116  0.73717146  0.62060678  1
