# generated using pymatgen
data_Sc4Al5N9
_symmetry_space_group_name_H-M   'P 1'
_cell_length_a   10.39199411
_cell_length_b   10.35399236
_cell_length_c   9.40551598
_cell_angle_alpha   90.21565840
_cell_angle_beta   90.00622354
_cell_angle_gamma   60.04930067
_symmetry_Int_Tables_number   1
_chemical_formula_structural   Sc4Al5N9
_chemical_formula_sum   'Sc16 Al20 N36'
_cell_volume   876.86259273
_cell_formula_units_Z   4
loop_
 _symmetry_equiv_pos_site_id
 _symmetry_equiv_pos_as_xyz
  1  'x, y, z'
loop_
 _atom_site_type_symbol
 _atom_site_label
 _atom_site_symmetry_multiplicity
 _atom_site_fract_x
 _atom_site_fract_y
 _atom_site_fract_z
 _atom_site_occupancy
  Sc  Sc0  1  0.10455660  0.08867657  0.34332084  1
  Sc  Sc1  1  0.22382107  0.20059529  0.09828466  1
  Sc  Sc2  1  0.87003873  0.21365098  0.60099554  1
  Sc  Sc3  1  0.22688658  0.20601928  0.60084671  1
  Sc  Sc4  1  0.11441444  0.43418051  0.35075716  1
  Sc  Sc5  1  0.23124663  0.54617358  0.08887285  1
  Sc  Sc6  1  0.55850523  0.52740237  0.09983823  1
  Sc  Sc7  1  0.10963198  0.43122138  0.84988534  1
  Sc  Sc8  1  0.23023612  0.54533703  0.59582689  1
  Sc  Sc9  1  0.77844686  0.42635238  0.34574924  1
  Sc  Sc10  1  0.78221378  0.76528426  0.85036951  1
  Sc  Sc11  1  0.55143855  0.87590515  0.10039782  1
  Sc  Sc12  1  0.21878281  0.86626721  0.59558578  1
  Sc  Sc13  1  0.78018262  0.76656239  0.34594045  1
  Sc  Sc14  1  0.44218837  0.74876508  0.84927079  1
  Sc  Sc15  1  0.55363473  0.86774814  0.59951658  1
  Al  Al16  1  0.77428853  0.09031249  0.82796433  1
  Al  Al17  1  0.44888379  0.09486335  0.36694612  1
  Al  Al18  1  0.56517550  0.20229669  0.07502699  1
  Al  Al19  1  0.10558985  0.09543941  0.82679200  1
  Al  Al20  1  0.77665277  0.09408832  0.31939438  1
  Al  Al21  1  0.89104019  0.19534677  0.07100912  1
  Al  Al22  1  0.44896628  0.09763432  0.86741357  1
  Al  Al23  1  0.56865534  0.19769679  0.57156537  1
  Al  Al24  1  0.77987782  0.42108939  0.87632145  1
  Al  Al25  1  0.88018601  0.54243418  0.62356993  1
  Al  Al26  1  0.44926464  0.41935324  0.33147982  1
  Al  Al27  1  0.89404381  0.53847334  0.11328448  1
  Al  Al28  1  0.46596471  0.41480549  0.81694192  1
  Al  Al29  1  0.55859430  0.53719175  0.56664997  1
  Al  Al30  1  0.11116797  0.76923060  0.32224248  1
  Al  Al31  1  0.20182432  0.88253422  0.06720357  1
  Al  Al32  1  0.88613761  0.87650256  0.57259958  1
  Al  Al33  1  0.42683903  0.76397167  0.31932700  1
  Al  Al34  1  0.10027508  0.77362341  0.82790957  1
  Al  Al35  1  0.89176508  0.88063543  0.07848037  1
  N  N36  1  0.23801444  0.19732951  0.34653998  1
  N  N37  1  0.09678420  0.08824791  0.10788967  1
  N  N38  1  0.88585309  0.20329154  0.85692842  1
  N  N39  1  0.76820747  0.07880670  0.62712629  1
  N  N40  1  0.56413849  0.19812866  0.36462176  1
  N  N41  1  0.45582643  0.10301235  0.08527100  1
  N  N42  1  0.23030972  0.19014356  0.84923533  1
  N  N43  1  0.10392977  0.09861611  0.61354291  1
  N  N44  1  0.87359391  0.19701365  0.37041214  1
  N  N45  1  0.77746226  0.09597470  0.11398208  1
  N  N46  1  0.55964179  0.20548509  0.86674801  1
  N  N47  1  0.45676650  0.10106743  0.58505653  1
  N  N48  1  0.23312054  0.55232505  0.35412125  1
  N  N49  1  0.10329740  0.43811537  0.08822553  1
  N  N50  1  0.87597402  0.52981895  0.83441887  1
  N  N51  1  0.76709350  0.45116852  0.58008119  1
  N  N52  1  0.53732300  0.54911232  0.35151441  1
  N  N53  1  0.45813998  0.40117936  0.12941808  1
  N  N54  1  0.24223453  0.54837168  0.84876192  1
  N  N55  1  0.09450077  0.44274519  0.59894457  1
  N  N56  1  0.89107250  0.54128410  0.31852275  1
  N  N57  1  0.80132667  0.41266358  0.09194602  1
  N  N58  1  0.57181886  0.51023434  0.87196948  1
  N  N59  1  0.47762255  0.40915101  0.60964108  1
  N  N60  1  0.22642394  0.85705916  0.36826138  1
  N  N61  1  0.09832114  0.78265671  0.11790834  1
  N  N62  1  0.89625286  0.88550672  0.87698602  1
  N  N63  1  0.79148931  0.75583117  0.59704304  1
  N  N64  1  0.53529879  0.87602502  0.34558153  1
  N  N65  1  0.41411566  0.77002829  0.10356917  1
  N  N66  1  0.20000973  0.88481615  0.85863595  1
  N  N67  1  0.08487450  0.77201706  0.62685606  1
  N  N68  1  0.89976087  0.88400087  0.36613207  1
  N  N69  1  0.79249459  0.75874109  0.09663494  1
  N  N70  1  0.54683434  0.88557073  0.84949967  1
  N  N71  1  0.44958572  0.73606157  0.62234583  1
