# generated using pymatgen
data_Sc4Al5N9
_symmetry_space_group_name_H-M   'P 1'
_cell_length_a   10.37629794
_cell_length_b   10.33189907
_cell_length_c   9.44667671
_cell_angle_alpha   90.15093248
_cell_angle_beta   89.92820180
_cell_angle_gamma   60.03705957
_symmetry_Int_Tables_number   1
_chemical_formula_structural   Sc4Al5N9
_chemical_formula_sum   'Sc16 Al20 N36'
_cell_volume   877.38643821
_cell_formula_units_Z   4
loop_
 _symmetry_equiv_pos_site_id
 _symmetry_equiv_pos_as_xyz
  1  'x, y, z'
loop_
 _atom_site_type_symbol
 _atom_site_label
 _atom_site_symmetry_multiplicity
 _atom_site_fract_x
 _atom_site_fract_y
 _atom_site_fract_z
 _atom_site_occupancy
  Sc  Sc0  1  0.10386074  0.08888124  0.34281465  1
  Sc  Sc1  1  0.22461370  0.19955389  0.09374108  1
  Sc  Sc2  1  0.86890793  0.21470266  0.60126506  1
  Sc  Sc3  1  0.22673769  0.20596127  0.59579653  1
  Sc  Sc4  1  0.11500642  0.43427006  0.35044369  1
  Sc  Sc5  1  0.23159047  0.54608118  0.08828031  1
  Sc  Sc6  1  0.55865928  0.52734675  0.10084211  1
  Sc  Sc7  1  0.10991986  0.43084051  0.84904346  1
  Sc  Sc8  1  0.23115863  0.54476262  0.59615233  1
  Sc  Sc9  1  0.77835765  0.42673389  0.34611173  1
  Sc  Sc10  1  0.78243889  0.76510044  0.84963667  1
  Sc  Sc11  1  0.55192470  0.87583333  0.09594912  1
  Sc  Sc12  1  0.21866419  0.86645481  0.59553776  1
  Sc  Sc13  1  0.77986625  0.76723915  0.34546260  1
  Sc  Sc14  1  0.44215072  0.74849706  0.84944987  1
  Sc  Sc15  1  0.55294347  0.86803944  0.59567597  1
  Al  Al16  1  0.77481088  0.08999861  0.82839309  1
  Al  Al17  1  0.44947409  0.09584706  0.33448117  1
  Al  Al18  1  0.56431295  0.20108881  0.07338382  1
  Al  Al19  1  0.10531819  0.09567654  0.82562217  1
  Al  Al20  1  0.77588826  0.09421817  0.32025941  1
  Al  Al21  1  0.89102773  0.19498777  0.07146811  1
  Al  Al22  1  0.44964896  0.09781993  0.83348761  1
  Al  Al23  1  0.56751482  0.19693854  0.57341744  1
  Al  Al24  1  0.78041801  0.42110336  0.87884278  1
  Al  Al25  1  0.88009620  0.54257719  0.62365866  1
  Al  Al26  1  0.44912346  0.41889873  0.33122443  1
  Al  Al27  1  0.89478022  0.53854906  0.11475996  1
  Al  Al28  1  0.46646162  0.41482211  0.81801049  1
  Al  Al29  1  0.55830240  0.53739682  0.56598133  1
  Al  Al30  1  0.11128862  0.76915971  0.32264642  1
  Al  Al31  1  0.20138658  0.88272736  0.06722817  1
  Al  Al32  1  0.88616417  0.87665878  0.57276205  1
  Al  Al33  1  0.42633931  0.76461153  0.31857318  1
  Al  Al34  1  0.10053052  0.77349171  0.82759927  1
  Al  Al35  1  0.89182462  0.88056977  0.07852171  1
  N  N36  1  0.23821461  0.19693637  0.35157783  1
  N  N37  1  0.09656199  0.08828921  0.11020546  1
  N  N38  1  0.88572783  0.20328717  0.85828805  1
  N  N39  1  0.76819364  0.07888576  0.62880921  1
  N  N40  1  0.56255044  0.19709440  0.37065643  1
  N  N41  1  0.45725053  0.10313707  0.11348607  1
  N  N42  1  0.22995057  0.18974005  0.85178883  1
  N  N43  1  0.10319006  0.09905421  0.61524779  1
  N  N44  1  0.87264039  0.19726134  0.37200280  1
  N  N45  1  0.77686578  0.09613498  0.11579644  1
  N  N46  1  0.55898989  0.20423497  0.87034294  1
  N  N47  1  0.45683624  0.10293387  0.61700248  1
  N  N48  1  0.23371008  0.55212991  0.35531494  1
  N  N49  1  0.10392445  0.43760667  0.08808307  1
  N  N50  1  0.87612344  0.52939563  0.83325062  1
  N  N51  1  0.76673489  0.45226060  0.57843579  1
  N  N52  1  0.53680538  0.54916441  0.35192770  1
  N  N53  1  0.45877973  0.40016703  0.13065937  1
  N  N54  1  0.24256674  0.54845339  0.84958454  1
  N  N55  1  0.09463944  0.44301742  0.59902847  1
  N  N56  1  0.89157001  0.54154364  0.31862136  1
  N  N57  1  0.80197600  0.41283430  0.09278032  1
  N  N58  1  0.57227766  0.50988556  0.87444318  1
  N  N59  1  0.47872440  0.40893007  0.61242967  1
  N  N60  1  0.22633962  0.85712966  0.36976942  1
  N  N61  1  0.09822109  0.78267128  0.11955534  1
  N  N62  1  0.89674783  0.88527408  0.87819613  1
  N  N63  1  0.79091118  0.75641480  0.59740156  1
  N  N64  1  0.53489962  0.87635826  0.34854956  1
  N  N65  1  0.41361680  0.77044200  0.10481463  1
  N  N66  1  0.19968766  0.88505678  0.85986401  1
  N  N67  1  0.08496274  0.77177509  0.62784383  1
  N  N68  1  0.89983734  0.88413014  0.36764369  1
  N  N69  1  0.79302281  0.75843475  0.09688261  1
  N  N70  1  0.54689648  0.88536446  0.85409127  1
  N  N71  1  0.44960807  0.73600991  0.62418943  1
