# generated using pymatgen
data_Sc4Al5N9
_symmetry_space_group_name_H-M   'P 1'
_cell_length_a   10.34280531
_cell_length_b   10.30283186
_cell_length_c   9.54305853
_cell_angle_alpha   90.02790160
_cell_angle_beta   90.11759931
_cell_angle_gamma   60.19941918
_symmetry_Int_Tables_number   1
_chemical_formula_structural   Sc4Al5N9
_chemical_formula_sum   'Sc16 Al20 N36'
_cell_volume   882.43228275
_cell_formula_units_Z   4
loop_
 _symmetry_equiv_pos_site_id
 _symmetry_equiv_pos_as_xyz
  1  'x, y, z'
loop_
 _atom_site_type_symbol
 _atom_site_label
 _atom_site_symmetry_multiplicity
 _atom_site_fract_x
 _atom_site_fract_y
 _atom_site_fract_z
 _atom_site_occupancy
  Sc  Sc0  1  0.11088562  0.08874470  0.34434629  1
  Sc  Sc1  1  0.22830443  0.20351277  0.10148870  1
  Sc  Sc2  1  0.87971303  0.20786000  0.60726403  1
  Sc  Sc3  1  0.22617583  0.20234670  0.61150068  1
  Sc  Sc4  1  0.11442520  0.43222891  0.35828757  1
  Sc  Sc5  1  0.22992443  0.54439866  0.09650819  1
  Sc  Sc6  1  0.55892062  0.52895675  0.09441435  1
  Sc  Sc7  1  0.10796553  0.43201482  0.85303526  1
  Sc  Sc8  1  0.23315074  0.54331124  0.60321150  1
  Sc  Sc9  1  0.76500239  0.43647760  0.35629071  1
  Sc  Sc10  1  0.78128981  0.76355120  0.85473575  1
  Sc  Sc11  1  0.55263707  0.87823176  0.10176805  1
  Sc  Sc12  1  0.22085250  0.86743620  0.58951963  1
  Sc  Sc13  1  0.78118833  0.76521076  0.34865862  1
  Sc  Sc14  1  0.43647968  0.75929379  0.85009165  1
  Sc  Sc15  1  0.55326733  0.86738812  0.59840553  1
  Al  Al16  1  0.77660050  0.09908951  0.87693932  1
  Al  Al17  1  0.44898178  0.09911028  0.37179732  1
  Al  Al18  1  0.56507270  0.20072874  0.12765343  1
  Al  Al19  1  0.09669274  0.10033854  0.87637248  1
  Al  Al20  1  0.77287978  0.09107620  0.37238565  1
  Al  Al21  1  0.88139548  0.20094982  0.12718939  1
  Al  Al22  1  0.45254790  0.09799659  0.87133338  1
  Al  Al23  1  0.56482757  0.19964136  0.62110773  1
  Al  Al24  1  0.78778477  0.41234842  0.87974968  1
  Al  Al25  1  0.88150100  0.53989431  0.62622733  1
  Al  Al26  1  0.45422624  0.42673808  0.37442195  1
  Al  Al27  1  0.89303823  0.53658395  0.11718511  1
  Al  Al28  1  0.45828652  0.40948879  0.87083010  1
  Al  Al29  1  0.56833662  0.52498457  0.63725783  1
  Al  Al30  1  0.11299194  0.76745731  0.31716645  1
  Al  Al31  1  0.20282720  0.87981700  0.06640865  1
  Al  Al32  1  0.88456290  0.87347046  0.59368865  1
  Al  Al33  1  0.42920414  0.76099795  0.31063760  1
  Al  Al34  1  0.10035008  0.77472289  0.82521674  1
  Al  Al35  1  0.88965842  0.88025612  0.09177405  1
  N  N36  1  0.24209907  0.19849577  0.33244008  1
  N  N37  1  0.09404549  0.09223043  0.09066695  1
  N  N38  1  0.88689488  0.20389964  0.83576882  1
  N  N39  1  0.76855289  0.08150682  0.57455489  1
  N  N40  1  0.55895596  0.20357757  0.32664345  1
  N  N41  1  0.46004201  0.10509791  0.07117913  1
  N  N42  1  0.22852997  0.18866081  0.84812539  1
  N  N43  1  0.10631807  0.09808993  0.57109464  1
  N  N44  1  0.87077241  0.20026728  0.33160064  1
  N  N45  1  0.77368369  0.09899092  0.07939771  1
  N  N46  1  0.56152551  0.20031489  0.82101485  1
  N  N47  1  0.45614948  0.10336444  0.57228944  1
  N  N48  1  0.23617425  0.54885095  0.34770252  1
  N  N49  1  0.10051917  0.43902760  0.08467123  1
  N  N50  1  0.87605139  0.52791175  0.82964698  1
  N  N51  1  0.76841768  0.44693952  0.57994563  1
  N  N52  1  0.53452884  0.54931342  0.31733569  1
  N  N53  1  0.45944643  0.39923623  0.06985787  1
  N  N54  1  0.23829227  0.55034896  0.84545298  1
  N  N55  1  0.09594913  0.44028554  0.59818956  1
  N  N56  1  0.89010824  0.53870623  0.31700344  1
  N  N57  1  0.79981987  0.41345411  0.08475523  1
  N  N58  1  0.57495138  0.50778376  0.84613869  1
  N  N59  1  0.47813553  0.41001831  0.57674450  1
  N  N60  1  0.22971436  0.85431051  0.36049311  1
  N  N61  1  0.09947422  0.78097298  0.11245369  1
  N  N62  1  0.89330431  0.88629709  0.86130869  1
  N  N63  1  0.79156948  0.75345368  0.59456321  1
  N  N64  1  0.53543741  0.87721859  0.34059263  1
  N  N65  1  0.41494835  0.77405966  0.09361372  1
  N  N66  1  0.19643830  0.88866861  0.85783694  1
  N  N67  1  0.08749182  0.77226493  0.62336858  1
  N  N68  1  0.90056049  0.88054195  0.34196070  1
  N  N69  1  0.79234601  0.75609657  0.09292635  1
  N  N70  1  0.54658460  0.88824675  0.84370594  1
  N  N71  1  0.45107072  0.73437189  0.62607407  1
