# generated using pymatgen
data_Sc4Al5N9
_symmetry_space_group_name_H-M   'P 1'
_cell_length_a   10.19644315
_cell_length_b   10.15879933
_cell_length_c   9.91634814
_cell_angle_alpha   90.00508974
_cell_angle_beta   90.05533879
_cell_angle_gamma   60.06356243
_symmetry_Int_Tables_number   1
_chemical_formula_structural   Sc4Al5N9
_chemical_formula_sum   'Sc16 Al20 N36'
_cell_volume   890.12508849
_cell_formula_units_Z   4
loop_
 _symmetry_equiv_pos_site_id
 _symmetry_equiv_pos_as_xyz
  1  'x, y, z'
loop_
 _atom_site_type_symbol
 _atom_site_label
 _atom_site_symmetry_multiplicity
 _atom_site_fract_x
 _atom_site_fract_y
 _atom_site_fract_z
 _atom_site_occupancy
  Sc  Sc0  1  0.10952298  0.09329277  0.35391923  1
  Sc  Sc1  1  0.22826100  0.20422268  0.10885885  1
  Sc  Sc2  1  0.87878157  0.20857356  0.62498919  1
  Sc  Sc3  1  0.22520098  0.20039770  0.63631505  1
  Sc  Sc4  1  0.11651331  0.42660302  0.37994158  1
  Sc  Sc5  1  0.22769407  0.54540546  0.12229357  1
  Sc  Sc6  1  0.55462359  0.53623532  0.11222673  1
  Sc  Sc7  1  0.10767153  0.43569845  0.86735595  1
  Sc  Sc8  1  0.23377358  0.54326470  0.62078237  1
  Sc  Sc9  1  0.76851713  0.43309755  0.36844391  1
  Sc  Sc10  1  0.77760897  0.76643577  0.87310233  1
  Sc  Sc11  1  0.54979517  0.87257727  0.13170483  1
  Sc  Sc12  1  0.20676490  0.87797392  0.61759518  1
  Sc  Sc13  1  0.78572305  0.76358527  0.37304002  1
  Sc  Sc14  1  0.43219731  0.76355063  0.86123530  1
  Sc  Sc15  1  0.55529983  0.87345676  0.61098343  1
  Al  Al16  1  0.77848422  0.09587495  0.88495969  1
  Al  Al17  1  0.44759196  0.10123391  0.38287395  1
  Al  Al18  1  0.56606225  0.19867278  0.13315830  1
  Al  Al19  1  0.10025376  0.09167101  0.89689664  1
  Al  Al20  1  0.77418023  0.08999907  0.38116575  1
  Al  Al21  1  0.88118011  0.20005577  0.13228243  1
  Al  Al22  1  0.45405707  0.09509223  0.88417435  1
  Al  Al23  1  0.56463323  0.20022355  0.63112951  1
  Al  Al24  1  0.78448691  0.41598861  0.88927959  1
  Al  Al25  1  0.88125103  0.54093769  0.63945876  1
  Al  Al26  1  0.45552448  0.42182508  0.38427915  1
  Al  Al27  1  0.89280990  0.53837284  0.12889458  1
  Al  Al28  1  0.45655272  0.41412415  0.88069603  1
  Al  Al29  1  0.56740079  0.52508320  0.64015042  1
  Al  Al30  1  0.10858559  0.76402645  0.37990709  1
  Al  Al31  1  0.21380174  0.87007583  0.13533496  1
  Al  Al32  1  0.88642433  0.87447544  0.63462986  1
  Al  Al33  1  0.43783131  0.75019105  0.38884368  1
  Al  Al34  1  0.10481295  0.77735587  0.88513068  1
  Al  Al35  1  0.89075885  0.88018565  0.13064546  1
  N  N36  1  0.24443887  0.19778745  0.32665230  1
  N  N37  1  0.09738572  0.08587742  0.09704707  1
  N  N38  1  0.88845720  0.20377323  0.84390351  1
  N  N39  1  0.76973990  0.07954363  0.57366385  1
  N  N40  1  0.55994269  0.20178914  0.32656245  1
  N  N41  1  0.46507156  0.09701694  0.07420055  1
  N  N42  1  0.22810645  0.18814240  0.85986207  1
  N  N43  1  0.10313818  0.10402874  0.56600933  1
  N  N44  1  0.86934126  0.19990289  0.32692912  1
  N  N45  1  0.77611340  0.09360381  0.07725921  1
  N  N46  1  0.56068188  0.20121703  0.82487961  1
  N  N47  1  0.45035299  0.11122012  0.57366962  1
  N  N48  1  0.23684404  0.54428413  0.34889816  1
  N  N49  1  0.09891133  0.44195819  0.08375743  1
  N  N50  1  0.87349308  0.53120669  0.83202173  1
  N  N51  1  0.77002346  0.44640801  0.58332438  1
  N  N52  1  0.53554349  0.54724892  0.32620369  1
  N  N53  1  0.45860928  0.40093930  0.07145541  1
  N  N54  1  0.23706680  0.55579586  0.84236278  1
  N  N55  1  0.09734397  0.43746564  0.60688210  1
  N  N56  1  0.89294039  0.53760155  0.31974348  1
  N  N57  1  0.79760729  0.41625154  0.08599538  1
  N  N58  1  0.57180828  0.51294471  0.83978951  1
  N  N59  1  0.47841436  0.40884033  0.57782169  1
  N  N60  1  0.22998497  0.85228481  0.33406459  1
  N  N61  1  0.09748042  0.78241759  0.07720169  1
  N  N62  1  0.89614010  0.88559346  0.82754859  1
  N  N63  1  0.79470163  0.75258960  0.59654825  1
  N  N64  1  0.53826097  0.87507909  0.35681944  1
  N  N65  1  0.41681007  0.77367849  0.07532826  1
  N  N66  1  0.19477498  0.89183860  0.83099062  1
  N  N67  1  0.08563117  0.77109577  0.56945465  1
  N  N68  1  0.90051587  0.88257128  0.32135560  1
  N  N69  1  0.79035103  0.75816889  0.09528645  1
  N  N70  1  0.54458352  0.88979367  0.83131444  1
  N  N71  1  0.44590807  0.73602323  0.59157195  1
