# generated using pymatgen
data_Sc4Al5N9
_symmetry_space_group_name_H-M   'P 1'
_cell_length_a   10.35108046
_cell_length_b   10.31243189
_cell_length_c   9.51827435
_cell_angle_alpha   89.97345824
_cell_angle_beta   89.97216720
_cell_angle_gamma   60.21349257
_symmetry_Int_Tables_number   1
_chemical_formula_structural   Sc4Al5N9
_chemical_formula_sum   'Sc16 Al20 N36'
_cell_volume   881.79136779
_cell_formula_units_Z   4
loop_
 _symmetry_equiv_pos_site_id
 _symmetry_equiv_pos_as_xyz
  1  'x, y, z'
loop_
 _atom_site_type_symbol
 _atom_site_label
 _atom_site_symmetry_multiplicity
 _atom_site_fract_x
 _atom_site_fract_y
 _atom_site_fract_z
 _atom_site_occupancy
  Sc  Sc0  1  0.11310908  0.08777770  0.34439638  1
  Sc  Sc1  1  0.22802622  0.20392553  0.10118411  1
  Sc  Sc2  1  0.88106481  0.20855190  0.60282247  1
  Sc  Sc3  1  0.22701176  0.20203665  0.61132321  1
  Sc  Sc4  1  0.11391530  0.43232690  0.35820431  1
  Sc  Sc5  1  0.22803369  0.54647921  0.09735487  1
  Sc  Sc6  1  0.55857610  0.52820971  0.09417656  1
  Sc  Sc7  1  0.10748336  0.43213585  0.85294303  1
  Sc  Sc8  1  0.23271971  0.54323778  0.60326976  1
  Sc  Sc9  1  0.76459902  0.43781380  0.35519625  1
  Sc  Sc10  1  0.78146974  0.76436738  0.84811423  1
  Sc  Sc11  1  0.55304833  0.87755625  0.09906896  1
  Sc  Sc12  1  0.22151190  0.86676835  0.59028309  1
  Sc  Sc13  1  0.78062863  0.76550193  0.34362792  1
  Sc  Sc14  1  0.43620860  0.75896060  0.85033965  1
  Sc  Sc15  1  0.55387102  0.86643238  0.59623603  1
  Al  Al16  1  0.77712242  0.09712209  0.85275916  1
  Al  Al17  1  0.44907536  0.09849663  0.37090933  1
  Al  Al18  1  0.56511629  0.20012801  0.12661999  1
  Al  Al19  1  0.09694151  0.09962348  0.87593975  1
  Al  Al20  1  0.77372376  0.09221248  0.35926665  1
  Al  Al21  1  0.88220633  0.20031954  0.12551594  1
  Al  Al22  1  0.45150722  0.09795347  0.87152954  1
  Al  Al23  1  0.56344467  0.20023648  0.61989423  1
  Al  Al24  1  0.78752126  0.41196866  0.87913847  1
  Al  Al25  1  0.88108938  0.54044548  0.62533196  1
  Al  Al26  1  0.45347938  0.42730783  0.37459377  1
  Al  Al27  1  0.89280105  0.53750341  0.11519255  1
  Al  Al28  1  0.45683426  0.40989679  0.87182379  1
  Al  Al29  1  0.56807899  0.52481089  0.63719185  1
  Al  Al30  1  0.11206241  0.76790852  0.32063763  1
  Al  Al31  1  0.20168438  0.87940786  0.06796930  1
  Al  Al32  1  0.88843141  0.87229875  0.57162857  1
  Al  Al33  1  0.42924453  0.76052377  0.31009632  1
  Al  Al34  1  0.09985398  0.77466047  0.82301006  1
  Al  Al35  1  0.89022044  0.88195885  0.07293542  1
  N  N36  1  0.24242510  0.19888555  0.33263957  1
  N  N37  1  0.09461047  0.09190874  0.09103377  1
  N  N38  1  0.88768590  0.20408344  0.83518491  1
  N  N39  1  0.77048843  0.08178410  0.59236001  1
  N  N40  1  0.55877038  0.20370995  0.32841740  1
  N  N41  1  0.45961102  0.10457246  0.07226121  1
  N  N42  1  0.22845846  0.18854239  0.84854610  1
  N  N43  1  0.10872013  0.09680552  0.57163899  1
  N  N44  1  0.87314957  0.20102123  0.33465379  1
  N  N45  1  0.77473125  0.09668938  0.09012549  1
  N  N46  1  0.55765841  0.20183556  0.82159892  1
  N  N47  1  0.45669821  0.10219188  0.57171737  1
  N  N48  1  0.23549388  0.54904633  0.34920566  1
  N  N49  1  0.10052021  0.43935295  0.08492706  1
  N  N50  1  0.87529938  0.52867703  0.83051217  1
  N  N51  1  0.76779191  0.44809654  0.57955520  1
  N  N52  1  0.53436426  0.54914315  0.31757540  1
  N  N53  1  0.45772722  0.39959779  0.07158566  1
  N  N54  1  0.23710917  0.55127356  0.84685856  1
  N  N55  1  0.09566786  0.43995393  0.59851666  1
  N  N56  1  0.88986049  0.53955240  0.31619655  1
  N  N57  1  0.79964176  0.41337648  0.08501410  1
  N  N58  1  0.57451053  0.50721768  0.84656480  1
  N  N59  1  0.47723615  0.41057772  0.57709320  1
  N  N60  1  0.23026844  0.85376149  0.36118590  1
  N  N61  1  0.09551923  0.78374851  0.11850674  1
  N  N62  1  0.89581473  0.88525449  0.86984097  1
  N  N63  1  0.79177498  0.75368350  0.59519294  1
  N  N64  1  0.53574243  0.87640072  0.33977991  1
  N  N65  1  0.41439670  0.77335219  0.09365677  1
  N  N66  1  0.19603046  0.88780928  0.85868500  1
  N  N67  1  0.08750878  0.77176638  0.62417005  1
  N  N68  1  0.90258197  0.87946698  0.36600743  1
  N  N69  1  0.79314630  0.75775148  0.09337217  1
  N  N70  1  0.54680885  0.88791588  0.84439822  1
  N  N71  1  0.45136439  0.73402758  0.62634280  1
