# generated using pymatgen
data_Sc4Al5N9
_symmetry_space_group_name_H-M   'P 1'
_cell_length_a   10.39302682
_cell_length_b   10.36275368
_cell_length_c   9.39583749
_cell_angle_alpha   90.22119064
_cell_angle_beta   89.95792334
_cell_angle_gamma   60.14630271
_symmetry_Int_Tables_number   1
_chemical_formula_structural   Sc4Al5N9
_chemical_formula_sum   'Sc16 Al20 N36'
_cell_volume   877.64007975
_cell_formula_units_Z   4
loop_
 _symmetry_equiv_pos_site_id
 _symmetry_equiv_pos_as_xyz
  1  'x, y, z'
loop_
 _atom_site_type_symbol
 _atom_site_label
 _atom_site_symmetry_multiplicity
 _atom_site_fract_x
 _atom_site_fract_y
 _atom_site_fract_z
 _atom_site_occupancy
  Sc  Sc0  1  0.10592960  0.08844960  0.34275974  1
  Sc  Sc1  1  0.22439759  0.20062141  0.09739353  1
  Sc  Sc2  1  0.87056896  0.21391929  0.60028926  1
  Sc  Sc3  1  0.22694122  0.20581966  0.60140154  1
  Sc  Sc4  1  0.11433635  0.43347152  0.35015708  1
  Sc  Sc5  1  0.23065807  0.54631993  0.08881018  1
  Sc  Sc6  1  0.55780658  0.52750716  0.09929567  1
  Sc  Sc7  1  0.10937314  0.43100004  0.84948370  1
  Sc  Sc8  1  0.22859158  0.54618451  0.59480895  1
  Sc  Sc9  1  0.77848747  0.42629750  0.34478024  1
  Sc  Sc10  1  0.78217208  0.76513568  0.85009340  1
  Sc  Sc11  1  0.55138765  0.87686870  0.09964401  1
  Sc  Sc12  1  0.21902800  0.86637270  0.59525849  1
  Sc  Sc13  1  0.78024986  0.76598322  0.34527908  1
  Sc  Sc14  1  0.44220225  0.74956405  0.84904219  1
  Sc  Sc15  1  0.55421916  0.86711467  0.59967621  1
  Al  Al16  1  0.77498626  0.09026820  0.82915030  1
  Al  Al17  1  0.44997247  0.09437427  0.37265031  1
  Al  Al18  1  0.56400377  0.19837935  0.12698842  1
  Al  Al19  1  0.10564532  0.09558325  0.82673474  1
  Al  Al20  1  0.78133309  0.09024117  0.32615346  1
  Al  Al21  1  0.89061975  0.19524280  0.07157800  1
  Al  Al22  1  0.45057004  0.09972578  0.87066396  1
  Al  Al23  1  0.56542205  0.19652277  0.61199519  1
  Al  Al24  1  0.77937471  0.42086711  0.87621485  1
  Al  Al25  1  0.87997806  0.54211589  0.62335053  1
  Al  Al26  1  0.44771039  0.42255168  0.33774309  1
  Al  Al27  1  0.89382094  0.53826283  0.11247776  1
  Al  Al28  1  0.46218885  0.41842443  0.81741510  1
  Al  Al29  1  0.55847442  0.53848277  0.56536841  1
  Al  Al30  1  0.11195903  0.76884185  0.32137625  1
  Al  Al31  1  0.20183995  0.88298281  0.06652770  1
  Al  Al32  1  0.88777992  0.87446953  0.57235921  1
  Al  Al33  1  0.42709156  0.76482054  0.31794392  1
  Al  Al34  1  0.10020067  0.77401754  0.82794317  1
  Al  Al35  1  0.89175045  0.88082616  0.07837107  1
  N  N36  1  0.23934218  0.19686846  0.34469316  1
  N  N37  1  0.09693846  0.08860753  0.10693716  1
  N  N38  1  0.88551953  0.20339938  0.85677422  1
  N  N39  1  0.77282002  0.07645273  0.62331118  1
  N  N40  1  0.56402664  0.19405533  0.34237136  1
  N  N41  1  0.45714200  0.10444405  0.07783003  1
  N  N42  1  0.23048979  0.19024878  0.84815812  1
  N  N43  1  0.10429534  0.09850405  0.61286934  1
  N  N44  1  0.87521965  0.19708653  0.36974332  1
  N  N45  1  0.77876058  0.09484304  0.11459648  1
  N  N46  1  0.55528428  0.20553953  0.83155592  1
  N  N47  1  0.45698161  0.09994216  0.57872253  1
  N  N48  1  0.23142972  0.55329551  0.35369343  1
  N  N49  1  0.10305853  0.43762284  0.08764586  1
  N  N50  1  0.87565526  0.52967365  0.83440732  1
  N  N51  1  0.76667339  0.45139789  0.57929447  1
  N  N52  1  0.53766523  0.55071330  0.35027678  1
  N  N53  1  0.45598204  0.40384381  0.12883491  1
  N  N54  1  0.24126580  0.54927830  0.84803674  1
  N  N55  1  0.09414224  0.44204165  0.59849388  1
  N  N56  1  0.89115259  0.54107745  0.31784662  1
  N  N57  1  0.80064539  0.41259379  0.09149729  1
  N  N58  1  0.57116757  0.51056390  0.87040884  1
  N  N59  1  0.47480564  0.41195217  0.60134051  1
  N  N60  1  0.22688747  0.85702039  0.36747963  1
  N  N61  1  0.09852264  0.78279485  0.11689281  1
  N  N62  1  0.89600560  0.88560223  0.87661142  1
  N  N63  1  0.79191839  0.75509710  0.59679908  1
  N  N64  1  0.53548876  0.87621557  0.34389120  1
  N  N65  1  0.41429292  0.77075983  0.10223557  1
  N  N66  1  0.20004447  0.88516817  0.85796165  1
  N  N67  1  0.08554873  0.77184694  0.62695887  1
  N  N68  1  0.90195483  0.88120417  0.36607268  1
  N  N69  1  0.79225968  0.75863451  0.09620443  1
  N  N70  1  0.54684230  0.88661859  0.84805210  1
  N  N71  1  0.44962979  0.73663132  0.62194164  1
