# generated using pymatgen
data_Sc4Al5N9
_symmetry_space_group_name_H-M   'P 1'
_cell_length_a   10.37563417
_cell_length_b   10.33441079
_cell_length_c   9.46463413
_cell_angle_alpha   90.22460266
_cell_angle_beta   90.00941114
_cell_angle_gamma   60.03469978
_symmetry_Int_Tables_number   1
_chemical_formula_structural   Sc4Al5N9
_chemical_formula_sum   'Sc16 Al20 N36'
_cell_volume   879.18913774
_cell_formula_units_Z   4
loop_
 _symmetry_equiv_pos_site_id
 _symmetry_equiv_pos_as_xyz
  1  'x, y, z'
loop_
 _atom_site_type_symbol
 _atom_site_label
 _atom_site_symmetry_multiplicity
 _atom_site_fract_x
 _atom_site_fract_y
 _atom_site_fract_z
 _atom_site_occupancy
  Sc  Sc0  1  0.10427411  0.08865301  0.34290430  1
  Sc  Sc1  1  0.22353851  0.20073045  0.09860085  1
  Sc  Sc2  1  0.86932321  0.21450584  0.60046029  1
  Sc  Sc3  1  0.22673778  0.20600476  0.60131896  1
  Sc  Sc4  1  0.11485679  0.43409396  0.35180948  1
  Sc  Sc5  1  0.23097223  0.54648365  0.08792679  1
  Sc  Sc6  1  0.55868496  0.52741610  0.09986378  1
  Sc  Sc7  1  0.10968517  0.43119115  0.84993759  1
  Sc  Sc8  1  0.23097677  0.54497616  0.59578316  1
  Sc  Sc9  1  0.77839308  0.42652270  0.34571705  1
  Sc  Sc10  1  0.78227800  0.76504460  0.85051901  1
  Sc  Sc11  1  0.55151383  0.87589777  0.10063246  1
  Sc  Sc12  1  0.21888694  0.86613833  0.59484352  1
  Sc  Sc13  1  0.77989189  0.76695978  0.34635297  1
  Sc  Sc14  1  0.44208378  0.74851736  0.84921081  1
  Sc  Sc15  1  0.55385696  0.86712128  0.60018441  1
  Al  Al16  1  0.77459566  0.09013118  0.82686002  1
  Al  Al17  1  0.44876760  0.09467112  0.36914217  1
  Al  Al18  1  0.56541472  0.20218470  0.07311125  1
  Al  Al19  1  0.10541713  0.09545506  0.82523067  1
  Al  Al20  1  0.77632303  0.09437396  0.31891125  1
  Al  Al21  1  0.89139648  0.19488661  0.07028953  1
  Al  Al22  1  0.44868054  0.09742035  0.86857096  1
  Al  Al23  1  0.56871750  0.19797192  0.57133682  1
  Al  Al24  1  0.78041192  0.42106227  0.87831207  1
  Al  Al25  1  0.88007594  0.54244998  0.62378446  1
  Al  Al26  1  0.44905202  0.41898019  0.32945762  1
  Al  Al27  1  0.89452436  0.53869077  0.11485586  1
  Al  Al28  1  0.46656041  0.41490962  0.81688481  1
  Al  Al29  1  0.55821092  0.53733015  0.56505576  1
  Al  Al30  1  0.11119025  0.76919739  0.32196262  1
  Al  Al31  1  0.20126614  0.88283424  0.06647228  1
  Al  Al32  1  0.88620186  0.87654739  0.57202183  1
  Al  Al33  1  0.42634544  0.76425216  0.31804604  1
  Al  Al34  1  0.10035106  0.77363255  0.82677955  1
  Al  Al35  1  0.89181481  0.88064335  0.07769028  1
  N  N36  1  0.23808237  0.19715735  0.34642262  1
  N  N37  1  0.09658524  0.08814123  0.10962804  1
  N  N38  1  0.88601923  0.20320388  0.85742924  1
  N  N39  1  0.76824132  0.07873451  0.62773355  1
  N  N40  1  0.56380906  0.19862043  0.36566258  1
  N  N41  1  0.45560020  0.10307490  0.08321375  1
  N  N42  1  0.23008628  0.18999092  0.84894664  1
  N  N43  1  0.10349553  0.09874194  0.61434496  1
  N  N44  1  0.87320619  0.19707401  0.37169490  1
  N  N45  1  0.77733673  0.09605945  0.11482600  1
  N  N46  1  0.56002538  0.20525030  0.86674102  1
  N  N47  1  0.45682826  0.10072323  0.58406879  1
  N  N48  1  0.23355720  0.55210961  0.35470549  1
  N  N49  1  0.10326454  0.43827784  0.08715822  1
  N  N50  1  0.87595169  0.52941939  0.83252114  1
  N  N51  1  0.76678252  0.45206098  0.57769655  1
  N  N52  1  0.53679895  0.54909740  0.35112136  1
  N  N53  1  0.45811070  0.40084514  0.12918347  1
  N  N54  1  0.24226991  0.54868291  0.84899135  1
  N  N55  1  0.09472784  0.44279850  0.59860884  1
  N  N56  1  0.89152092  0.54142757  0.31788111  1
  N  N57  1  0.80201529  0.41266944  0.09201186  1
  N  N58  1  0.57227046  0.51000972  0.87387717  1
  N  N59  1  0.47838570  0.40903614  0.61149148  1
  N  N60  1  0.22655317  0.85683497  0.36944189  1
  N  N61  1  0.09806515  0.78296484  0.11923778  1
  N  N62  1  0.89654233  0.88547829  0.87762790  1
  N  N63  1  0.79152515  0.75592627  0.59682503  1
  N  N64  1  0.53509362  0.87599611  0.34522387  1
  N  N65  1  0.41364463  0.77030354  0.10390496  1
  N  N66  1  0.19960438  0.88511892  0.85940127  1
  N  N67  1  0.08486939  0.77194824  0.62745732  1
  N  N68  1  0.89973792  0.88420209  0.36715908  1
  N  N69  1  0.79263042  0.75868617  0.09641314  1
  N  N70  1  0.54689875  0.88526928  0.84925157  1
  N  N71  1  0.44952539  0.73544239  0.62381571  1
