# generated using pymatgen
data_Sc4Al5N9
_symmetry_space_group_name_H-M   'P 1'
_cell_length_a   10.34318962
_cell_length_b   10.30247967
_cell_length_c   9.54256448
_cell_angle_alpha   90.04960891
_cell_angle_beta   90.14441975
_cell_angle_gamma   60.19448126
_symmetry_Int_Tables_number   1
_chemical_formula_structural   Sc4Al5N9
_chemical_formula_sum   'Sc16 Al20 N36'
_cell_volume   882.34479855
_cell_formula_units_Z   4
loop_
 _symmetry_equiv_pos_site_id
 _symmetry_equiv_pos_as_xyz
  1  'x, y, z'
loop_
 _atom_site_type_symbol
 _atom_site_label
 _atom_site_symmetry_multiplicity
 _atom_site_fract_x
 _atom_site_fract_y
 _atom_site_fract_z
 _atom_site_occupancy
  Sc  Sc0  1  0.11080801  0.08883183  0.34426558  1
  Sc  Sc1  1  0.22831991  0.20348772  0.10146377  1
  Sc  Sc2  1  0.87969621  0.20786017  0.60708175  1
  Sc  Sc3  1  0.22617263  0.20234856  0.61147112  1
  Sc  Sc4  1  0.11438926  0.43223194  0.35823956  1
  Sc  Sc5  1  0.23003588  0.54420460  0.09639932  1
  Sc  Sc6  1  0.55892131  0.52898168  0.09437276  1
  Sc  Sc7  1  0.10797089  0.43196770  0.85299759  1
  Sc  Sc8  1  0.23315511  0.54328069  0.60307597  1
  Sc  Sc9  1  0.76501380  0.43654280  0.35623846  1
  Sc  Sc10  1  0.78111444  0.76325816  0.85619222  1
  Sc  Sc11  1  0.55269948  0.87822510  0.10213562  1
  Sc  Sc12  1  0.22083843  0.86741611  0.58937505  1
  Sc  Sc13  1  0.78151426  0.76546983  0.35030442  1
  Sc  Sc14  1  0.43651413  0.75931309  0.85007216  1
  Sc  Sc15  1  0.55323514  0.86740533  0.59865931  1
  Al  Al16  1  0.77666550  0.09886950  0.87701324  1
  Al  Al17  1  0.44903540  0.09910872  0.37178271  1
  Al  Al18  1  0.56517552  0.20064761  0.12753293  1
  Al  Al19  1  0.09664120  0.10041893  0.87627965  1
  Al  Al20  1  0.77324009  0.09035956  0.37253096  1
  Al  Al21  1  0.88138808  0.20091546  0.12710466  1
  Al  Al22  1  0.45259179  0.09797667  0.87131558  1
  Al  Al23  1  0.56488168  0.19960553  0.62090297  1
  Al  Al24  1  0.78780086  0.41229690  0.87973680  1
  Al  Al25  1  0.88148783  0.53994827  0.62632226  1
  Al  Al26  1  0.45432428  0.42666094  0.37431612  1
  Al  Al27  1  0.89301911  0.53666134  0.11728125  1
  Al  Al28  1  0.45837632  0.40941554  0.87072822  1
  Al  Al29  1  0.56835834  0.52497949  0.63721499  1
  Al  Al30  1  0.11312825  0.76736437  0.31699175  1
  Al  Al31  1  0.20296031  0.87985523  0.06624767  1
  Al  Al32  1  0.88317996  0.87467784  0.60645417  1
  Al  Al33  1  0.42923970  0.76099226  0.31062316  1
  Al  Al34  1  0.10112076  0.77425294  0.82563368  1
  Al  Al35  1  0.88913620  0.88077127  0.10079015  1
  N  N36  1  0.24211396  0.19847464  0.33241844  1
  N  N37  1  0.09402949  0.09225126  0.09064086  1
  N  N38  1  0.88686375  0.20390160  0.83564210  1
  N  N39  1  0.76882987  0.08087686  0.57381538  1
  N  N40  1  0.55907599  0.20351202  0.32652791  1
  N  N41  1  0.46007134  0.10507493  0.07115100  1
  N  N42  1  0.22853866  0.18864856  0.84810944  1
  N  N43  1  0.10625846  0.09815496  0.57102834  1
  N  N44  1  0.87064528  0.20027443  0.33158176  1
  N  N45  1  0.77399337  0.09853971  0.07849771  1
  N  N46  1  0.56158347  0.20027844  0.82083405  1
  N  N47  1  0.45615167  0.10336237  0.57226033  1
  N  N48  1  0.23612639  0.54887381  0.34743007  1
  N  N49  1  0.10047569  0.43898319  0.08466259  1
  N  N50  1  0.87608040  0.52780262  0.82964231  1
  N  N51  1  0.76842711  0.44695407  0.57990708  1
  N  N52  1  0.53450916  0.54932364  0.31730541  1
  N  N53  1  0.45960719  0.39912924  0.06975260  1
  N  N54  1  0.23836120  0.55022153  0.84530949  1
  N  N55  1  0.09590834  0.44027037  0.59816577  1
  N  N56  1  0.88998987  0.53901571  0.31702679  1
  N  N57  1  0.79981213  0.41344200  0.08478216  1
  N  N58  1  0.57494839  0.50780235  0.84610663  1
  N  N59  1  0.47824440  0.40994808  0.57663412  1
  N  N60  1  0.22962405  0.85436672  0.36017660  1
  N  N61  1  0.09995317  0.78053537  0.11063173  1
  N  N62  1  0.89215185  0.88697585  0.85297677  1
  N  N63  1  0.79164175  0.75351844  0.59434990  1
  N  N64  1  0.53560166  0.87714217  0.34067066  1
  N  N65  1  0.41503999  0.77410211  0.09359437  1
  N  N66  1  0.19647076  0.88878833  0.85768870  1
  N  N67  1  0.08801239  0.77193348  0.62230183  1
  N  N68  1  0.89955133  0.88171585  0.33314612  1
  N  N69  1  0.79239346  0.75612655  0.09238799  1
  N  N70  1  0.54653169  0.88824627  0.84365984  1
  N  N71  1  0.45108496  0.73435966  0.62602291  1
