# generated using pymatgen
data_Sc4Al5N9
_symmetry_space_group_name_H-M   'P 1'
_cell_length_a   10.41403082
_cell_length_b   10.38280232
_cell_length_c   9.32866081
_cell_angle_alpha   90.19572621
_cell_angle_beta   90.02973818
_cell_angle_gamma   60.10040845
_symmetry_Int_Tables_number   1
_chemical_formula_structural   Sc4Al5N9
_chemical_formula_sum   'Sc16 Al20 N36'
_cell_volume   874.41774486
_cell_formula_units_Z   4
loop_
 _symmetry_equiv_pos_site_id
 _symmetry_equiv_pos_as_xyz
  1  'x, y, z'
loop_
 _atom_site_type_symbol
 _atom_site_label
 _atom_site_symmetry_multiplicity
 _atom_site_fract_x
 _atom_site_fract_y
 _atom_site_fract_z
 _atom_site_occupancy
  Sc  Sc0  1  0.10550437  0.08881167  0.34317892  1
  Sc  Sc1  1  0.22451750  0.20029437  0.09748471  1
  Sc  Sc2  1  0.87015544  0.21271883  0.60002170  1
  Sc  Sc3  1  0.22715089  0.20547275  0.60083289  1
  Sc  Sc4  1  0.11419451  0.43355412  0.35087343  1
  Sc  Sc5  1  0.22833878  0.54740740  0.09470789  1
  Sc  Sc6  1  0.55850735  0.52962347  0.10119691  1
  Sc  Sc7  1  0.10907633  0.43104998  0.85002488  1
  Sc  Sc8  1  0.23239978  0.54372674  0.59764446  1
  Sc  Sc9  1  0.77872222  0.42651626  0.34516458  1
  Sc  Sc10  1  0.78216458  0.76493179  0.84924420  1
  Sc  Sc11  1  0.55128294  0.87702802  0.09911542  1
  Sc  Sc12  1  0.21883238  0.86629864  0.59541111  1
  Sc  Sc13  1  0.78057086  0.76607968  0.34494645  1
  Sc  Sc14  1  0.44218552  0.74974087  0.84804186  1
  Sc  Sc15  1  0.55405354  0.86801089  0.59819531  1
  Al  Al16  1  0.77603010  0.08992316  0.83198581  1
  Al  Al17  1  0.45024032  0.09575945  0.37109322  1
  Al  Al18  1  0.56354662  0.19819493  0.12302487  1
  Al  Al19  1  0.10529019  0.09567394  0.82741727  1
  Al  Al20  1  0.78004690  0.09082713  0.32364558  1
  Al  Al21  1  0.89043187  0.19619630  0.07207398  1
  Al  Al22  1  0.44946904  0.09877302  0.86855136  1
  Al  Al23  1  0.56369465  0.20008759  0.61729447  1
  Al  Al24  1  0.77915077  0.42114214  0.87343767  1
  Al  Al25  1  0.88077568  0.54198537  0.62215173  1
  Al  Al26  1  0.45100580  0.42039449  0.35247157  1
  Al  Al27  1  0.89350605  0.53805870  0.11152676  1
  Al  Al28  1  0.45847001  0.41650323  0.85566309  1
  Al  Al29  1  0.55932590  0.53651259  0.56972040  1
  Al  Al30  1  0.11159684  0.76941869  0.32235044  1
  Al  Al31  1  0.20215944  0.88310770  0.06698462  1
  Al  Al32  1  0.88748953  0.87494022  0.57330882  1
  Al  Al33  1  0.42755346  0.76509867  0.31925979  1
  Al  Al34  1  0.10065235  0.77332005  0.82845903  1
  Al  Al35  1  0.89204989  0.88029585  0.07824115  1
  N  N36  1  0.23925896  0.19683715  0.34469497  1
  N  N37  1  0.09700287  0.08895833  0.10505824  1
  N  N38  1  0.88554757  0.20371928  0.85586439  1
  N  N39  1  0.77145385  0.07695760  0.62401217  1
  N  N40  1  0.56295579  0.19504277  0.33412704  1
  N  N41  1  0.45648568  0.10386366  0.07655677  1
  N  N42  1  0.23000553  0.19023684  0.84729989  1
  N  N43  1  0.10391390  0.09855413  0.61085267  1
  N  N44  1  0.87432352  0.19709355  0.36684270  1
  N  N45  1  0.77875936  0.09467694  0.10966631  1
  N  N46  1  0.55429928  0.20625870  0.83239637  1
  N  N47  1  0.45758108  0.10159248  0.57900038  1
  N  N48  1  0.23261003  0.55223761  0.34949389  1
  N  N49  1  0.10268488  0.43718490  0.08875753  1
  N  N50  1  0.87599333  0.52989338  0.83514391  1
  N  N51  1  0.76750626  0.45026055  0.58141461  1
  N  N52  1  0.53907363  0.55064517  0.34633942  1
  N  N53  1  0.45726585  0.40325800  0.10597527  1
  N  N54  1  0.24048848  0.54916936  0.84928695  1
  N  N55  1  0.09521516  0.44189605  0.59869491  1
  N  N56  1  0.89104090  0.54116766  0.31919949  1
  N  N57  1  0.80045675  0.41304309  0.09091118  1
  N  N58  1  0.57117875  0.51131402  0.86644012  1
  N  N59  1  0.47515502  0.40948116  0.57998173  1
  N  N60  1  0.22674424  0.85745342  0.36585730  1
  N  N61  1  0.09821911  0.78375528  0.11590472  1
  N  N62  1  0.89658990  0.88417470  0.87481758  1
  N  N63  1  0.79195378  0.75508188  0.59634385  1
  N  N64  1  0.53564819  0.87711273  0.34395638  1
  N  N65  1  0.41429373  0.77191778  0.10118347  1
  N  N66  1  0.20014952  0.88481554  0.85652994  1
  N  N67  1  0.08662994  0.77038883  0.62503845  1
  N  N68  1  0.90115555  0.88217455  0.36478091  1
  N  N69  1  0.79231978  0.75861272  0.09600448  1
  N  N70  1  0.54687772  0.88628895  0.84658398  1
  N  N71  1  0.44987265  0.73691858  0.61874357  1
