# generated using pymatgen
data_Sc4Al5N9
_symmetry_space_group_name_H-M   'P 1'
_cell_length_a   10.33097168
_cell_length_b   10.29005342
_cell_length_c   9.55998506
_cell_angle_alpha   89.86897225
_cell_angle_beta   89.78490568
_cell_angle_gamma   60.01149206
_symmetry_Int_Tables_number   1
_chemical_formula_structural   Sc4Al5N9
_chemical_formula_sum   'Sc16 Al20 N36'
_cell_volume   880.22523894
_cell_formula_units_Z   4
loop_
 _symmetry_equiv_pos_site_id
 _symmetry_equiv_pos_as_xyz
  1  'x, y, z'
loop_
 _atom_site_type_symbol
 _atom_site_label
 _atom_site_symmetry_multiplicity
 _atom_site_fract_x
 _atom_site_fract_y
 _atom_site_fract_z
 _atom_site_occupancy
  Sc  Sc0  1  0.10461782  0.08877583  0.32862303  1
  Sc  Sc1  1  0.22546397  0.19883088  0.07995203  1
  Sc  Sc2  1  0.87549420  0.20222272  0.59210576  1
  Sc  Sc3  1  0.22757032  0.20602347  0.58196921  1
  Sc  Sc4  1  0.11751746  0.43290674  0.33426670  1
  Sc  Sc5  1  0.23196695  0.54706569  0.07798231  1
  Sc  Sc6  1  0.56667858  0.52384578  0.08730479  1
  Sc  Sc7  1  0.10772575  0.43155306  0.83750158  1
  Sc  Sc8  1  0.23040717  0.54474023  0.58646162  1
  Sc  Sc9  1  0.77888362  0.42279845  0.33953293  1
  Sc  Sc10  1  0.78165050  0.76505289  0.83627544  1
  Sc  Sc11  1  0.55276845  0.87586073  0.08504091  1
  Sc  Sc12  1  0.22004410  0.86557128  0.58526723  1
  Sc  Sc13  1  0.77919573  0.76883629  0.33337621  1
  Sc  Sc14  1  0.44137643  0.75099927  0.84136930  1
  Sc  Sc15  1  0.55064497  0.87060805  0.58107661  1
  Al  Al16  1  0.77292862  0.09043289  0.82203562  1
  Al  Al17  1  0.45004156  0.09728929  0.31577121  1
  Al  Al18  1  0.56419062  0.20180392  0.06648844  1
  Al  Al19  1  0.10657766  0.09589702  0.81767989  1
  Al  Al20  1  0.77620229  0.09479185  0.31152405  1
  Al  Al21  1  0.88750099  0.20380507  0.05632631  1
  Al  Al22  1  0.44984757  0.09876743  0.81726211  1
  Al  Al23  1  0.56609990  0.19745635  0.56557492  1
  Al  Al24  1  0.77196460  0.42708862  0.81250638  1
  Al  Al25  1  0.88395635  0.54517244  0.59310124  1
  Al  Al26  1  0.44969384  0.42025799  0.32206566  1
  Al  Al27  1  0.89163313  0.53549406  0.09794345  1
  Al  Al28  1  0.46362929  0.41507512  0.81182664  1
  Al  Al29  1  0.55521886  0.53706075  0.56070289  1
  Al  Al30  1  0.11186244  0.76917754  0.31445747  1
  Al  Al31  1  0.20139844  0.88259973  0.05869992  1
  Al  Al32  1  0.88518843  0.87667180  0.56363007  1
  Al  Al33  1  0.42808384  0.76308993  0.30913793  1
  Al  Al34  1  0.09983675  0.77419047  0.81893957  1
  Al  Al35  1  0.89212495  0.88086899  0.07074111  1
  N  N36  1  0.23934341  0.19546687  0.34689281  1
  N  N37  1  0.09513126  0.08973309  0.10051350  1
  N  N38  1  0.88326728  0.20695593  0.84777667  1
  N  N39  1  0.76597061  0.07678490  0.62522317  1
  N  N40  1  0.56213636  0.19801009  0.36613430  1
  N  N41  1  0.45856386  0.10385514  0.11648463  1
  N  N42  1  0.23057336  0.19006886  0.84744348  1
  N  N43  1  0.10793792  0.09642040  0.61222862  1
  N  N44  1  0.87499711  0.19341576  0.37219553  1
  N  N45  1  0.77739151  0.09801759  0.10953830  1
  N  N46  1  0.55712214  0.20439689  0.86723888  1
  N  N47  1  0.45651500  0.10437397  0.61795612  1
  N  N48  1  0.23459289  0.55244032  0.34994200  1
  N  N49  1  0.10262481  0.43796696  0.08794912  1
  N  N50  1  0.87555535  0.53109979  0.83694572  1
  N  N51  1  0.76640240  0.44670225  0.59830147  1
  N  N52  1  0.53824009  0.54831094  0.35205880  1
  N  N53  1  0.46006305  0.40174551  0.12458278  1
  N  N54  1  0.24049063  0.54955107  0.84429481  1
  N  N55  1  0.09681200  0.44182090  0.59526493  1
  N  N56  1  0.89053500  0.54117153  0.34193606  1
  N  N57  1  0.80361811  0.41077136  0.11013857  1
  N  N58  1  0.57123109  0.51023227  0.86574571  1
  N  N59  1  0.47668303  0.40854735  0.60973330  1
  N  N60  1  0.22744416  0.85704809  0.36250817  1
  N  N61  1  0.09835853  0.78292684  0.11475241  1
  N  N62  1  0.89625996  0.88510006  0.87381054  1
  N  N63  1  0.78806521  0.75907416  0.59154364  1
  N  N64  1  0.53421353  0.87707015  0.34232352  1
  N  N65  1  0.41548472  0.76877106  0.09868897  1
  N  N66  1  0.19946334  0.88489776  0.85458453  1
  N  N67  1  0.08381317  0.77304894  0.62215700  1
  N  N68  1  0.90014517  0.88470739  0.36207429  1
  N  N69  1  0.79456259  0.75530751  0.09533719  1
  N  N70  1  0.54587760  0.88779652  0.85214800  1
  N  N71  1  0.45107658  0.73640054  0.61921912  1
