# generated using pymatgen
data_Sc4Al5N9
_symmetry_space_group_name_H-M   'P 1'
_cell_length_a   10.27436450
_cell_length_b   10.22814838
_cell_length_c   9.75313763
_cell_angle_alpha   90.07692167
_cell_angle_beta   90.26767365
_cell_angle_gamma   60.23586208
_symmetry_Int_Tables_number   1
_chemical_formula_structural   Sc4Al5N9
_chemical_formula_sum   'Sc16 Al20 N36'
_cell_volume   889.71159249
_cell_formula_units_Z   4
loop_
 _symmetry_equiv_pos_site_id
 _symmetry_equiv_pos_as_xyz
  1  'x, y, z'
loop_
 _atom_site_type_symbol
 _atom_site_label
 _atom_site_symmetry_multiplicity
 _atom_site_fract_x
 _atom_site_fract_y
 _atom_site_fract_z
 _atom_site_occupancy
  Sc  Sc0  1  0.11179409  0.08773645  0.34356089  1
  Sc  Sc1  1  0.22825376  0.20327249  0.10127924  1
  Sc  Sc2  1  0.87869936  0.20872568  0.61166526  1
  Sc  Sc3  1  0.22531749  0.20200703  0.61920929  1
  Sc  Sc4  1  0.11597347  0.42914526  0.36341191  1
  Sc  Sc5  1  0.23010073  0.54291751  0.09770112  1
  Sc  Sc6  1  0.55524339  0.53610462  0.09940193  1
  Sc  Sc7  1  0.10699086  0.43288897  0.85525072  1
  Sc  Sc8  1  0.23428901  0.54149999  0.60479792  1
  Sc  Sc9  1  0.76821317  0.43368267  0.35795094  1
  Sc  Sc10  1  0.77889285  0.76390455  0.86575640  1
  Sc  Sc11  1  0.54975026  0.87452670  0.11487014  1
  Sc  Sc12  1  0.21456548  0.87180659  0.59076561  1
  Sc  Sc13  1  0.78472478  0.76422057  0.36248493  1
  Sc  Sc14  1  0.43660042  0.76012665  0.84622759  1
  Sc  Sc15  1  0.55565503  0.87256529  0.60461206  1
  Al  Al16  1  0.77614061  0.09793419  0.87853756  1
  Al  Al17  1  0.44810365  0.10062474  0.37389714  1
  Al  Al18  1  0.56603624  0.19929116  0.12695695  1
  Al  Al19  1  0.09477663  0.10171990  0.88000324  1
  Al  Al20  1  0.77378336  0.08982117  0.37480252  1
  Al  Al21  1  0.88069889  0.20086849  0.12610506  1
  Al  Al22  1  0.45344533  0.09670602  0.87478950  1
  Al  Al23  1  0.56445297  0.20084189  0.62249364  1
  Al  Al24  1  0.78547323  0.41447649  0.88165499  1
  Al  Al25  1  0.88099675  0.54095965  0.62905636  1
  Al  Al26  1  0.45517036  0.42422304  0.37474575  1
  Al  Al27  1  0.89294377  0.53775769  0.12048428  1
  Al  Al28  1  0.45886649  0.41071744  0.87273084  1
  Al  Al29  1  0.56967187  0.52371682  0.63529335  1
  Al  Al30  1  0.11687007  0.76542212  0.31504241  1
  Al  Al31  1  0.20549937  0.87721590  0.06007545  1
  Al  Al32  1  0.87958214  0.87815960  0.62948728  1
  Al  Al33  1  0.43806104  0.75402708  0.36043999  1
  Al  Al34  1  0.10166225  0.77236072  0.82129378  1
  Al  Al35  1  0.88766542  0.88224521  0.12269232  1
  N  N36  1  0.24348457  0.19700815  0.32444445  1
  N  N37  1  0.09404986  0.09101937  0.08703336  1
  N  N38  1  0.88546411  0.20512870  0.83466353  1
  N  N39  1  0.76843582  0.08033218  0.56976284  1
  N  N40  1  0.55983942  0.20243921  0.32220334  1
  N  N41  1  0.46224238  0.10099416  0.06866097  1
  N  N42  1  0.22816715  0.18824103  0.84818934  1
  N  N43  1  0.10324809  0.10250338  0.56483887  1
  N  N44  1  0.87069196  0.19900857  0.32482211  1
  N  N45  1  0.77544235  0.09522572  0.07380021  1
  N  N46  1  0.56053929  0.20118476  0.81878649  1
  N  N47  1  0.45277643  0.10869570  0.56821572  1
  N  N48  1  0.23696181  0.54662177  0.34390239  1
  N  N49  1  0.09889694  0.43951702  0.07898223  1
  N  N50  1  0.87427239  0.52920600  0.82600730  1
  N  N51  1  0.76949321  0.44671636  0.57623621  1
  N  N52  1  0.53595100  0.54835247  0.31816056  1
  N  N53  1  0.46162696  0.39912379  0.06681640  1
  N  N54  1  0.23858581  0.55010509  0.84322187  1
  N  N55  1  0.09588939  0.43920925  0.59712208  1
  N  N56  1  0.89164086  0.53878562  0.31443636  1
  N  N57  1  0.79809119  0.41550616  0.08179190  1
  N  N58  1  0.57385714  0.50964503  0.83901957  1
  N  N59  1  0.47939720  0.40939075  0.57225596  1
  N  N60  1  0.23109302  0.85276274  0.36557744  1
  N  N61  1  0.10068909  0.78032372  0.11036414  1
  N  N62  1  0.88749822  0.88969109  0.83084224  1
  N  N63  1  0.79333189  0.75323924  0.59127373  1
  N  N64  1  0.53771425  0.87566136  0.34615150  1
  N  N65  1  0.41659916  0.77376287  0.07317172  1
  N  N66  1  0.19391140  0.88998177  0.85292217  1
  N  N67  1  0.08804099  0.76976635  0.62079989  1
  N  N68  1  0.89887476  0.88353215  0.32192878  1
  N  N69  1  0.79117474  0.75763108  0.09118673  1
  N  N70  1  0.54637544  0.88967633  0.83301797  1
  N  N71  1  0.45153522  0.73530285  0.60860648  1
