# generated using pymatgen
data_Sc4Al5N9
_symmetry_space_group_name_H-M   'P 1'
_cell_length_a   10.15736690
_cell_length_b   10.12117410
_cell_length_c   10.02260605
_cell_angle_alpha   89.94000283
_cell_angle_beta   90.05124705
_cell_angle_gamma   60.04249924
_symmetry_Int_Tables_number   1
_chemical_formula_structural   Sc4Al5N9
_chemical_formula_sum   'Sc16 Al20 N36'
_cell_volume   892.70575765
_cell_formula_units_Z   4
loop_
 _symmetry_equiv_pos_site_id
 _symmetry_equiv_pos_as_xyz
  1  'x, y, z'
loop_
 _atom_site_type_symbol
 _atom_site_label
 _atom_site_symmetry_multiplicity
 _atom_site_fract_x
 _atom_site_fract_y
 _atom_site_fract_z
 _atom_site_occupancy
  Sc  Sc0  1  0.10997558  0.09287330  0.35922440  1
  Sc  Sc1  1  0.22803255  0.20458872  0.11335259  1
  Sc  Sc2  1  0.87933281  0.20799950  0.63235039  1
  Sc  Sc3  1  0.22550528  0.19946467  0.64478279  1
  Sc  Sc4  1  0.11693557  0.42467220  0.38794628  1
  Sc  Sc5  1  0.22702743  0.54505104  0.13006285  1
  Sc  Sc6  1  0.55496924  0.53580406  0.11933365  1
  Sc  Sc7  1  0.10756646  0.43665608  0.87306924  1
  Sc  Sc8  1  0.23370224  0.54312933  0.62622175  1
  Sc  Sc9  1  0.76892715  0.43237721  0.37579546  1
  Sc  Sc10  1  0.77657060  0.76740457  0.87950873  1
  Sc  Sc11  1  0.55007844  0.87265018  0.14004867  1
  Sc  Sc12  1  0.20685766  0.87797264  0.62476509  1
  Sc  Sc13  1  0.78678698  0.76258801  0.37959355  1
  Sc  Sc14  1  0.43296932  0.76364966  0.86822445  1
  Sc  Sc15  1  0.55524056  0.87330332  0.61536330  1
  Al  Al16  1  0.77829352  0.09597930  0.89017741  1
  Al  Al17  1  0.44723089  0.10149834  0.38801946  1
  Al  Al18  1  0.56596156  0.19868892  0.13778477  1
  Al  Al19  1  0.10037006  0.09172536  0.90296282  1
  Al  Al20  1  0.77439221  0.09028617  0.38573588  1
  Al  Al21  1  0.88127967  0.20043235  0.13658687  1
  Al  Al22  1  0.45426054  0.09486624  0.88961937  1
  Al  Al23  1  0.56428450  0.20033216  0.63598081  1
  Al  Al24  1  0.78376947  0.41693336  0.89382888  1
  Al  Al25  1  0.88125848  0.54103314  0.64525127  1
  Al  Al26  1  0.45530341  0.42141606  0.38974231  1
  Al  Al27  1  0.89279069  0.53812555  0.13428972  1
  Al  Al28  1  0.45586259  0.41513816  0.88566684  1
  Al  Al29  1  0.56676824  0.52546345  0.64471992  1
  Al  Al30  1  0.10883198  0.76414656  0.38519411  1
  Al  Al31  1  0.21382000  0.86997390  0.13988551  1
  Al  Al32  1  0.88640349  0.87441272  0.63929093  1
  Al  Al33  1  0.43739953  0.75021060  0.39392680  1
  Al  Al34  1  0.10505947  0.77680364  0.89032353  1
  Al  Al35  1  0.89073750  0.87994071  0.13600603  1
  N  N36  1  0.24489752  0.19743703  0.32810997  1
  N  N37  1  0.09748977  0.08574467  0.10031200  1
  N  N38  1  0.88856441  0.20393178  0.84844616  1
  N  N39  1  0.76975883  0.07989254  0.57674195  1
  N  N40  1  0.55980982  0.20181783  0.32978922  1
  N  N41  1  0.46600923  0.09601012  0.07736646  1
  N  N42  1  0.22806476  0.18838276  0.86535257  1
  N  N43  1  0.10359852  0.10406799  0.56947867  1
  N  N44  1  0.86949597  0.20001101  0.32879367  1
  N  N45  1  0.77617992  0.09349548  0.08072606  1
  N  N46  1  0.56023464  0.20168103  0.82834559  1
  N  N47  1  0.44911663  0.11227934  0.57662200  1
  N  N48  1  0.23610841  0.54367455  0.35342288  1
  N  N49  1  0.09827105  0.44275265  0.08589518  1
  N  N50  1  0.87277930  0.53238160  0.83521169  1
  N  N51  1  0.77039439  0.44583248  0.58808130  1
  N  N52  1  0.53579718  0.54673193  0.33066649  1
  N  N53  1  0.45788582  0.40148466  0.07461807  1
  N  N54  1  0.23703427  0.55641833  0.84449234  1
  N  N55  1  0.09764066  0.43635729  0.61160618  1
  N  N56  1  0.89379049  0.53626249  0.32312352  1
  N  N57  1  0.79747248  0.41664694  0.08818578  1
  N  N58  1  0.57131946  0.51343622  0.84203899  1
  N  N59  1  0.47823796  0.40884122  0.58109622  1
  N  N60  1  0.23016565  0.85177715  0.33590685  1
  N  N61  1  0.09761721  0.78181428  0.08048015  1
  N  N62  1  0.89610790  0.88562511  0.83049238  1
  N  N63  1  0.79527691  0.75213550  0.59925616  1
  N  N64  1  0.53879752  0.87489992  0.36193048  1
  N  N65  1  0.41786956  0.77361555  0.07974740  1
  N  N66  1  0.19515508  0.89188328  0.83577519  1
  N  N67  1  0.08577609  0.77158571  0.57261550  1
  N  N68  1  0.90063326  0.88241407  0.32488233  1
  N  N69  1  0.79003649  0.75812981  0.09909279  1
  N  N70  1  0.54402435  0.89066337  0.83245662  1
  N  N71  1  0.44534612  0.73605502  0.59339332  1
