# generated using pymatgen
data_Sc4Al5N9
_symmetry_space_group_name_H-M   'P 1'
_cell_length_a   10.32577245
_cell_length_b   10.28544781
_cell_length_c   9.59119095
_cell_angle_alpha   89.89629904
_cell_angle_beta   89.76529491
_cell_angle_gamma   60.00528700
_symmetry_Int_Tables_number   1
_chemical_formula_structural   Sc4Al5N9
_chemical_formula_sum   'Sc16 Al20 N36'
_cell_volume   882.20273319
_cell_formula_units_Z   4
loop_
 _symmetry_equiv_pos_site_id
 _symmetry_equiv_pos_as_xyz
  1  'x, y, z'
loop_
 _atom_site_type_symbol
 _atom_site_label
 _atom_site_symmetry_multiplicity
 _atom_site_fract_x
 _atom_site_fract_y
 _atom_site_fract_z
 _atom_site_occupancy
  Sc  Sc0  1  0.10464789  0.08857515  0.33576243  1
  Sc  Sc1  1  0.22533205  0.19887616  0.08728233  1
  Sc  Sc2  1  0.87357323  0.20607829  0.59864654  1
  Sc  Sc3  1  0.22742722  0.20573058  0.58947836  1
  Sc  Sc4  1  0.11694762  0.43324443  0.34658237  1
  Sc  Sc5  1  0.23160200  0.54679202  0.08504718  1
  Sc  Sc6  1  0.56462511  0.52475352  0.09548930  1
  Sc  Sc7  1  0.10942053  0.43066000  0.84733321  1
  Sc  Sc8  1  0.23025092  0.54476857  0.59389884  1
  Sc  Sc9  1  0.77844262  0.42458979  0.34724555  1
  Sc  Sc10  1  0.78147927  0.76621889  0.84759641  1
  Sc  Sc11  1  0.55260681  0.87589867  0.09240890  1
  Sc  Sc12  1  0.21983090  0.86569719  0.59159659  1
  Sc  Sc13  1  0.77958717  0.76841308  0.34206700  1
  Sc  Sc14  1  0.44148880  0.75087259  0.84777124  1
  Sc  Sc15  1  0.55155882  0.86967672  0.58825638  1
  Al  Al16  1  0.77316991  0.09031300  0.82738072  1
  Al  Al17  1  0.44999612  0.09729229  0.32245016  1
  Al  Al18  1  0.56427464  0.20141651  0.07296286  1
  Al  Al19  1  0.10693394  0.09517746  0.82355910  1
  Al  Al20  1  0.77617259  0.09482758  0.31860497  1
  Al  Al21  1  0.88852853  0.20115255  0.06471012  1
  Al  Al22  1  0.45007891  0.09844183  0.82368712  1
  Al  Al23  1  0.56609972  0.19744219  0.57204235  1
  Al  Al24  1  0.77462014  0.42352756  0.83973912  1
  Al  Al25  1  0.88150565  0.54395294  0.62175623  1
  Al  Al26  1  0.44930030  0.41996296  0.32843857  1
  Al  Al27  1  0.89363948  0.53615395  0.11835723  1
  Al  Al28  1  0.46385743  0.41495664  0.81794695  1
  Al  Al29  1  0.55608128  0.53695280  0.56689277  1
  Al  Al30  1  0.11173188  0.76918753  0.32085970  1
  Al  Al31  1  0.20137259  0.88252180  0.06537226  1
  Al  Al32  1  0.88538549  0.87635579  0.57052150  1
  Al  Al33  1  0.42762780  0.76352316  0.31553156  1
  Al  Al34  1  0.10022801  0.77416385  0.82524718  1
  Al  Al35  1  0.89198140  0.88120956  0.07681354  1
  N  N36  1  0.23921532  0.19561087  0.35403264  1
  N  N37  1  0.09554965  0.08916070  0.10874745  1
  N  N38  1  0.88455607  0.20473279  0.85568115  1
  N  N39  1  0.76627230  0.07732077  0.63136977  1
  N  N40  1  0.56190098  0.19800226  0.37332392  1
  N  N41  1  0.45848575  0.10384513  0.12378557  1
  N  N42  1  0.23073107  0.18946126  0.85399385  1
  N  N43  1  0.10692882  0.09686621  0.61920399  1
  N  N44  1  0.87446390  0.19484001  0.37730818  1
  N  N45  1  0.77728547  0.09751433  0.11722001  1
  N  N46  1  0.55750983  0.20412324  0.87412981  1
  N  N47  1  0.45677593  0.10403913  0.62510463  1
  N  N48  1  0.23423398  0.55246790  0.35681673  1
  N  N49  1  0.10353444  0.43733155  0.08859152  1
  N  N50  1  0.87601827  0.53113779  0.82943302  1
  N  N51  1  0.76640435  0.44759826  0.59500727  1
  N  N52  1  0.53765161  0.54854556  0.35686754  1
  N  N53  1  0.45952865  0.40110206  0.13168451  1
  N  N54  1  0.24071462  0.54929759  0.85047495  1
  N  N55  1  0.09515825  0.44242446  0.59803360  1
  N  N56  1  0.89134074  0.54112315  0.32304563  1
  N  N57  1  0.80265200  0.41170874  0.10509161  1
  N  N58  1  0.57010525  0.51066212  0.87352310  1
  N  N59  1  0.47699374  0.40860491  0.61656411  1
  N  N60  1  0.22732604  0.85684960  0.36984516  1
  N  N61  1  0.09811607  0.78302698  0.12173136  1
  N  N62  1  0.89673194  0.88582967  0.88012795  1
  N  N63  1  0.78909608  0.75734409  0.59596264  1
  N  N64  1  0.53461813  0.87669026  0.34909019  1
  N  N65  1  0.41482031  0.76951859  0.10573295  1
  N  N66  1  0.19963071  0.88480000  0.86183299  1
  N  N67  1  0.08398674  0.77294383  0.62935573  1
  N  N68  1  0.90026450  0.88460741  0.36934942  1
  N  N69  1  0.79395266  0.75705387  0.09792190  1
  N  N70  1  0.54600891  0.88767396  0.85911228  1
  N  N71  1  0.45084558  0.73631001  0.62627728  1
