# generated using pymatgen
data_Sc4Al5N9
_symmetry_space_group_name_H-M   'P 1'
_cell_length_a   10.34333780
_cell_length_b   10.30669634
_cell_length_c   9.55540116
_cell_angle_alpha   90.12978622
_cell_angle_beta   90.04747395
_cell_angle_gamma   60.18412430
_symmetry_Int_Tables_number   1
_chemical_formula_structural   Sc4Al5N9
_chemical_formula_sum   'Sc16 Al20 N36'
_cell_volume   883.81504710
_cell_formula_units_Z   4
loop_
 _symmetry_equiv_pos_site_id
 _symmetry_equiv_pos_as_xyz
  1  'x, y, z'
loop_
 _atom_site_type_symbol
 _atom_site_label
 _atom_site_symmetry_multiplicity
 _atom_site_fract_x
 _atom_site_fract_y
 _atom_site_fract_z
 _atom_site_occupancy
  Sc  Sc0  1  0.10497020  0.09017249  0.33989719  1
  Sc  Sc1  1  0.22431440  0.20136620  0.09955749  1
  Sc  Sc2  1  0.87389547  0.20975959  0.59643362  1
  Sc  Sc3  1  0.22957106  0.20405142  0.60503758  1
  Sc  Sc4  1  0.11387739  0.43291887  0.35691902  1
  Sc  Sc5  1  0.22804717  0.54692158  0.09845275  1
  Sc  Sc6  1  0.55879689  0.52902174  0.09535431  1
  Sc  Sc7  1  0.10885643  0.43136669  0.85329480  1
  Sc  Sc8  1  0.23265260  0.54312793  0.60308578  1
  Sc  Sc9  1  0.76571403  0.43455322  0.35544449  1
  Sc  Sc10  1  0.78201095  0.76488736  0.84922688  1
  Sc  Sc11  1  0.55312090  0.87720843  0.10006202  1
  Sc  Sc12  1  0.22253314  0.86357375  0.58985544  1
  Sc  Sc13  1  0.78055566  0.76574789  0.34447011  1
  Sc  Sc14  1  0.43671764  0.75900709  0.85082071  1
  Sc  Sc15  1  0.55461363  0.86599378  0.59642544  1
  Al  Al16  1  0.77708552  0.08874545  0.82530776  1
  Al  Al17  1  0.44980963  0.09815641  0.36991428  1
  Al  Al18  1  0.56183551  0.20205866  0.12543329  1
  Al  Al19  1  0.10510441  0.09531505  0.82664842  1
  Al  Al20  1  0.77971380  0.09345468  0.32022744  1
  Al  Al21  1  0.88965442  0.19647978  0.06918509  1
  Al  Al22  1  0.45005626  0.09865793  0.87344511  1
  Al  Al23  1  0.56293116  0.19960252  0.62136167  1
  Al  Al24  1  0.78417716  0.41849831  0.87501152  1
  Al  Al25  1  0.88157261  0.54160964  0.62458413  1
  Al  Al26  1  0.45491221  0.42603309  0.37511793  1
  Al  Al27  1  0.89308436  0.53694496  0.11683132  1
  Al  Al28  1  0.45587630  0.41077973  0.87287175  1
  Al  Al29  1  0.56718955  0.52571020  0.63722009  1
  Al  Al30  1  0.11221752  0.76925274  0.32115197  1
  Al  Al31  1  0.19914835  0.88422347  0.06407579  1
  Al  Al32  1  0.88748757  0.87489644  0.56924238  1
  Al  Al33  1  0.42779730  0.76204026  0.30976824  1
  Al  Al34  1  0.09976155  0.77368536  0.82349700  1
  Al  Al35  1  0.89191055  0.88075003  0.07494678  1
  N  N36  1  0.23941089  0.19722423  0.33983886  1
  N  N37  1  0.09582799  0.08982518  0.10627182  1
  N  N38  1  0.88654531  0.20188317  0.85529116  1
  N  N39  1  0.77242175  0.07619867  0.62418213  1
  N  N40  1  0.55842600  0.20445275  0.32768456  1
  N  N41  1  0.45746073  0.10480519  0.07423432  1
  N  N42  1  0.23090058  0.18920500  0.84671674  1
  N  N43  1  0.10714401  0.09607051  0.61077193  1
  N  N44  1  0.87270374  0.20088005  0.36929521  1
  N  N45  1  0.77895313  0.09485799  0.11321756  1
  N  N46  1  0.55367751  0.20353300  0.82485986  1
  N  N47  1  0.45929182  0.10078118  0.57001984  1
  N  N48  1  0.23567389  0.54979937  0.34987207  1
  N  N49  1  0.10117806  0.43812422  0.08597412  1
  N  N50  1  0.87652235  0.52988474  0.82888801  1
  N  N51  1  0.76704197  0.44989610  0.58309226  1
  N  N52  1  0.53412891  0.54967843  0.31793377  1
  N  N53  1  0.45789091  0.40082761  0.07142737  1
  N  N54  1  0.23666193  0.55151307  0.84736707  1
  N  N55  1  0.09598752  0.44072256  0.59722860  1
  N  N56  1  0.88947680  0.53895397  0.31698217  1
  N  N57  1  0.79966719  0.41423120  0.08248682  1
  N  N58  1  0.57295489  0.50848508  0.84609057  1
  N  N59  1  0.47857914  0.40928058  0.57721064  1
  N  N60  1  0.22899127  0.85671073  0.36619416  1
  N  N61  1  0.09731298  0.78405895  0.12034336  1
  N  N62  1  0.89687630  0.88492563  0.87666939  1
  N  N63  1  0.79222796  0.75445639  0.59401656  1
  N  N64  1  0.53595745  0.87617105  0.33951440  1
  N  N65  1  0.41324313  0.77441252  0.09412160  1
  N  N66  1  0.19665185  0.88645306  0.85895499  1
  N  N67  1  0.08628038  0.77127258  0.62558242  1
  N  N68  1  0.90087302  0.88360690  0.36729644  1
  N  N69  1  0.79372807  0.75727873  0.09494776  1
  N  N70  1  0.54743897  0.88817239  0.84518661  1
  N  N71  1  0.45121684  0.73447675  0.62769693  1
