# generated using pymatgen
data_Sc4Al5N9
_symmetry_space_group_name_H-M   'P 1'
_cell_length_a   10.32258796
_cell_length_b   10.28307579
_cell_length_c   9.63299050
_cell_angle_alpha   90.03806547
_cell_angle_beta   89.98669803
_cell_angle_gamma   60.19127144
_symmetry_Int_Tables_number   1
_chemical_formula_structural   Sc4Al5N9
_chemical_formula_sum   'Sc16 Al20 N36'
_cell_volume   887.23166369
_cell_formula_units_Z   4
loop_
 _symmetry_equiv_pos_site_id
 _symmetry_equiv_pos_as_xyz
  1  'x, y, z'
loop_
 _atom_site_type_symbol
 _atom_site_label
 _atom_site_symmetry_multiplicity
 _atom_site_fract_x
 _atom_site_fract_y
 _atom_site_fract_z
 _atom_site_occupancy
  Sc  Sc0  1  0.11449625  0.08757987  0.34507021  1
  Sc  Sc1  1  0.22733237  0.20442200  0.10186404  1
  Sc  Sc2  1  0.88117602  0.20836375  0.59820268  1
  Sc  Sc3  1  0.22728157  0.20124844  0.61530789  1
  Sc  Sc4  1  0.11430017  0.43142351  0.36171777  1
  Sc  Sc5  1  0.22727395  0.54662723  0.09884501  1
  Sc  Sc6  1  0.55888327  0.52827967  0.09436834  1
  Sc  Sc7  1  0.10726259  0.43230670  0.85434151  1
  Sc  Sc8  1  0.23271762  0.54307427  0.60501567  1
  Sc  Sc9  1  0.76353157  0.43950139  0.35699379  1
  Sc  Sc10  1  0.78167992  0.76455230  0.84910547  1
  Sc  Sc11  1  0.55360303  0.87725876  0.09994662  1
  Sc  Sc12  1  0.22204255  0.86604002  0.58885277  1
  Sc  Sc13  1  0.78060128  0.76595418  0.34481876  1
  Sc  Sc14  1  0.43617102  0.75914984  0.85035931  1
  Sc  Sc15  1  0.55444014  0.86611655  0.59748143  1
  Al  Al16  1  0.77945104  0.09192010  0.82076486  1
  Al  Al17  1  0.44890032  0.09875190  0.37181274  1
  Al  Al18  1  0.56186079  0.20148330  0.12703112  1
  Al  Al19  1  0.09571453  0.09984108  0.87749126  1
  Al  Al20  1  0.77682071  0.09001279  0.32376138  1
  Al  Al21  1  0.88378181  0.20200078  0.12528493  1
  Al  Al22  1  0.45110772  0.09824547  0.87340101  1
  Al  Al23  1  0.56192248  0.20071603  0.62010814  1
  Al  Al24  1  0.78778965  0.41104177  0.87920873  1
  Al  Al25  1  0.88096518  0.54067041  0.62664842  1
  Al  Al26  1  0.45355763  0.42705150  0.37589164  1
  Al  Al27  1  0.89312978  0.53780405  0.11692902  1
  Al  Al28  1  0.45638737  0.40996928  0.87344892  1
  Al  Al29  1  0.56836574  0.52438693  0.63933232  1
  Al  Al30  1  0.11200511  0.76813781  0.32076728  1
  Al  Al31  1  0.20121514  0.87908035  0.06664034  1
  Al  Al32  1  0.88795040  0.87422125  0.56950150  1
  Al  Al33  1  0.42900095  0.76072608  0.30803790  1
  Al  Al34  1  0.09953658  0.77511759  0.82231090  1
  Al  Al35  1  0.89041542  0.88249603  0.07133053  1
  N  N36  1  0.24297834  0.19883882  0.32946951  1
  N  N37  1  0.09452105  0.09181915  0.09066047  1
  N  N38  1  0.88743013  0.20353094  0.83411321  1
  N  N39  1  0.77260358  0.07860851  0.61695403  1
  N  N40  1  0.55706905  0.20493033  0.32836586  1
  N  N41  1  0.45922842  0.10440637  0.07089280  1
  N  N42  1  0.22796424  0.18805390  0.84861390  1
  N  N43  1  0.10956554  0.09661696  0.56946567  1
  N  N44  1  0.87435189  0.20283912  0.33704880  1
  N  N45  1  0.77693137  0.09235186  0.11625121  1
  N  N46  1  0.55439426  0.20336808  0.82149028  1
  N  N47  1  0.45645824  0.10213126  0.56958771  1
  N  N48  1  0.23491354  0.54903682  0.34967432  1
  N  N49  1  0.09998597  0.43969824  0.08239089  1
  N  N50  1  0.87473400  0.52880424  0.82838748  1
  N  N51  1  0.76727429  0.44887203  0.57847360  1
  N  N52  1  0.53384683  0.54883169  0.31521558  1
  N  N53  1  0.45750370  0.39988973  0.07033656  1
  N  N54  1  0.23655020  0.55190385  0.84687712  1
  N  N55  1  0.09603830  0.43921620  0.59839545  1
  N  N56  1  0.89042429  0.53955775  0.31480395  1
  N  N57  1  0.80025922  0.41348024  0.08314079  1
  N  N58  1  0.57443073  0.50698998  0.84652814  1
  N  N59  1  0.47790931  0.41055487  0.57589478  1
  N  N60  1  0.23115120  0.85286049  0.36309630  1
  N  N61  1  0.09516257  0.78422965  0.12149659  1
  N  N62  1  0.89568077  0.88707040  0.87448768  1
  N  N63  1  0.79227579  0.75378302  0.59437763  1
  N  N64  1  0.53602364  0.87613234  0.33859810  1
  N  N65  1  0.41411256  0.77373715  0.09364600  1
  N  N66  1  0.19574990  0.88764652  0.86060272  1
  N  N67  1  0.08668901  0.77231587  0.62634162  1
  N  N68  1  0.90178942  0.88220051  0.37007308  1
  N  N69  1  0.79369198  0.75753280  0.09330146  1
  N  N70  1  0.54719731  0.88816171  0.84390300  1
  N  N71  1  0.45134423  0.73413734  0.62896952  1
