# generated using pymatgen
data_Sc4Al5N9
_symmetry_space_group_name_H-M   'P 1'
_cell_length_a   10.24821750
_cell_length_b   10.20483206
_cell_length_c   9.83184692
_cell_angle_alpha   89.97892996
_cell_angle_beta   90.17139075
_cell_angle_gamma   60.19525303
_symmetry_Int_Tables_number   1
_chemical_formula_structural   Sc4Al5N9
_chemical_formula_sum   'Sc16 Al20 N36'
_cell_volume   892.21211608
_cell_formula_units_Z   4
loop_
 _symmetry_equiv_pos_site_id
 _symmetry_equiv_pos_as_xyz
  1  'x, y, z'
loop_
 _atom_site_type_symbol
 _atom_site_label
 _atom_site_symmetry_multiplicity
 _atom_site_fract_x
 _atom_site_fract_y
 _atom_site_fract_z
 _atom_site_occupancy
  Sc  Sc0  1  0.11392476  0.08525399  0.34395176  1
  Sc  Sc1  1  0.22793258  0.20315306  0.10035996  1
  Sc  Sc2  1  0.87797836  0.20929766  0.61343636  1
  Sc  Sc3  1  0.22480311  0.20222949  0.62261207  1
  Sc  Sc4  1  0.11706299  0.42711952  0.36532745  1
  Sc  Sc5  1  0.22992670  0.54188716  0.09858282  1
  Sc  Sc6  1  0.55296445  0.53926602  0.10393287  1
  Sc  Sc7  1  0.10575915  0.43408711  0.85603324  1
  Sc  Sc8  1  0.23455557  0.54054228  0.60558006  1
  Sc  Sc9  1  0.77010824  0.43183748  0.35844779  1
  Sc  Sc10  1  0.77581928  0.76562302  0.86915730  1
  Sc  Sc11  1  0.54666267  0.87359776  0.12440299  1
  Sc  Sc12  1  0.21058626  0.87447675  0.59372116  1
  Sc  Sc13  1  0.78690748  0.76284272  0.36402076  1
  Sc  Sc14  1  0.43788178  0.76069203  0.84440856  1
  Sc  Sc15  1  0.55725374  0.87608613  0.60338913  1
  Al  Al16  1  0.77573186  0.09805475  0.87939221  1
  Al  Al17  1  0.44782200  0.10169756  0.37496230  1
  Al  Al18  1  0.56620233  0.19865699  0.12663968  1
  Al  Al19  1  0.09395078  0.10263855  0.88021104  1
  Al  Al20  1  0.77463977  0.08928089  0.37482859  1
  Al  Al21  1  0.88077780  0.20062732  0.12573005  1
  Al  Al22  1  0.45384257  0.09602906  0.87560753  1
  Al  Al23  1  0.56419644  0.20193175  0.62344272  1
  Al  Al24  1  0.78338830  0.41616744  0.88196386  1
  Al  Al25  1  0.88068257  0.54166873  0.62986672  1
  Al  Al26  1  0.45571842  0.42333196  0.37473315  1
  Al  Al27  1  0.89223662  0.53780614  0.12123537  1
  Al  Al28  1  0.45889586  0.41200499  0.87327110  1
  Al  Al29  1  0.57062302  0.52280114  0.63338834  1
  Al  Al30  1  0.11928574  0.76491296  0.31419631  1
  Al  Al31  1  0.20640517  0.87631438  0.05592873  1
  Al  Al32  1  0.87885204  0.87798838  0.63072400  1
  Al  Al33  1  0.44169902  0.74865015  0.38730591  1
  Al  Al34  1  0.10111089  0.77135047  0.82055294  1
  Al  Al35  1  0.88763437  0.88213048  0.12408608  1
  N  N36  1  0.24445832  0.19578212  0.32079153  1
  N  N37  1  0.09436542  0.09010772  0.08441306  1
  N  N38  1  0.88448221  0.20612173  0.83440535  1
  N  N39  1  0.76838365  0.08015602  0.56876428  1
  N  N40  1  0.56039932  0.20211006  0.32064728  1
  N  N41  1  0.46368404  0.09827088  0.06771991  1
  N  N42  1  0.22772790  0.18877240  0.84858570  1
  N  N43  1  0.10199399  0.10461106  0.56357429  1
  N  N44  1  0.87210230  0.19759891  0.32237374  1
  N  N45  1  0.77578209  0.09467430  0.07294889  1
  N  N46  1  0.56018388  0.20194272  0.81854789  1
  N  N47  1  0.45054499  0.11302599  0.56701985  1
  N  N48  1  0.23742251  0.54526243  0.34201889  1
  N  N49  1  0.09771633  0.43990699  0.07642813  1
  N  N50  1  0.87227994  0.53111076  0.82498078  1
  N  N51  1  0.77061235  0.44644850  0.57480180  1
  N  N52  1  0.53655732  0.54896608  0.32042752  1
  N  N53  1  0.46256240  0.39954992  0.06586347  1
  N  N54  1  0.23865048  0.54977952  0.84255440  1
  N  N55  1  0.09577106  0.43893150  0.59696624  1
  N  N56  1  0.89320744  0.53722774  0.31318090  1
  N  N57  1  0.79619557  0.41657625  0.08060848  1
  N  N58  1  0.57284644  0.51101807  0.83396623  1
  N  N59  1  0.47962623  0.40953139  0.57067096  1
  N  N60  1  0.23274050  0.85081258  0.37050717  1
  N  N61  1  0.10196829  0.78005952  0.11049995  1
  N  N62  1  0.88623767  0.88960610  0.83046836  1
  N  N63  1  0.79462704  0.75283979  0.58912268  1
  N  N64  1  0.53867587  0.87518780  0.35175893  1
  N  N65  1  0.41753806  0.77409296  0.06366743  1
  N  N66  1  0.19334173  0.89032980  0.84910272  1
  N  N67  1  0.08753636  0.76876219  0.62236287  1
  N  N68  1  0.90014361  0.88295254  0.32097764  1
  N  N69  1  0.78847364  0.75859029  0.09247072  1
  N  N70  1  0.54530400  0.89156237  0.82534635  1
  N  N71  1  0.45288612  0.73518422  0.59707053  1
