# generated using pymatgen
data_Sc4Al5N9
_symmetry_space_group_name_H-M   'P 1'
_cell_length_a   10.30639603
_cell_length_b   10.26287599
_cell_length_c   9.64773893
_cell_angle_alpha   90.08852951
_cell_angle_beta   90.11630966
_cell_angle_gamma   60.13920238
_symmetry_Int_Tables_number   1
_chemical_formula_structural   Sc4Al5N9
_chemical_formula_sum   'Sc16 Al20 N36'
_cell_volume   884.99044240
_cell_formula_units_Z   4
loop_
 _symmetry_equiv_pos_site_id
 _symmetry_equiv_pos_as_xyz
  1  'x, y, z'
loop_
 _atom_site_type_symbol
 _atom_site_label
 _atom_site_symmetry_multiplicity
 _atom_site_fract_x
 _atom_site_fract_y
 _atom_site_fract_z
 _atom_site_occupancy
  Sc  Sc0  1  0.11352114  0.08476843  0.35142512  1
  Sc  Sc1  1  0.22818023  0.20301326  0.10852402  1
  Sc  Sc2  1  0.87711973  0.20948153  0.61660259  1
  Sc  Sc3  1  0.22459665  0.20302787  0.62389672  1
  Sc  Sc4  1  0.11548946  0.42947125  0.36916601  1
  Sc  Sc5  1  0.22963716  0.54377160  0.10663106  1
  Sc  Sc6  1  0.55256303  0.53886288  0.10895991  1
  Sc  Sc7  1  0.10644766  0.43295562  0.86270910  1
  Sc  Sc8  1  0.23394338  0.54138372  0.61447536  1
  Sc  Sc9  1  0.76942394  0.43294660  0.36274937  1
  Sc  Sc10  1  0.77721968  0.76479160  0.87274704  1
  Sc  Sc11  1  0.54697378  0.87379565  0.12620824  1
  Sc  Sc12  1  0.21010369  0.87481872  0.60701474  1
  Sc  Sc13  1  0.78562958  0.76449505  0.36804953  1
  Sc  Sc14  1  0.43822837  0.76017104  0.85195338  1
  Sc  Sc15  1  0.55683740  0.87535475  0.61032610  1
  Al  Al16  1  0.77602003  0.09822426  0.88545373  1
  Al  Al17  1  0.44847152  0.10090588  0.38156651  1
  Al  Al18  1  0.56582013  0.19911735  0.13341122  1
  Al  Al19  1  0.09486618  0.10229709  0.88481423  1
  Al  Al20  1  0.77493219  0.08857069  0.38080376  1
  Al  Al21  1  0.88080193  0.20025996  0.13305341  1
  Al  Al22  1  0.45331095  0.09667128  0.88143005  1
  Al  Al23  1  0.56502218  0.20100137  0.63003141  1
  Al  Al24  1  0.78414546  0.41506649  0.88896329  1
  Al  Al25  1  0.88080359  0.54130363  0.63606078  1
  Al  Al26  1  0.45623118  0.42314096  0.38176765  1
  Al  Al27  1  0.89192028  0.53837980  0.12689769  1
  Al  Al28  1  0.45912312  0.41110188  0.87977939  1
  Al  Al29  1  0.57038411  0.52289761  0.64002102  1
  Al  Al30  1  0.11703106  0.76370785  0.33824908  1
  Al  Al31  1  0.20696747  0.87758896  0.06813742  1
  Al  Al32  1  0.88095241  0.87709828  0.63788167  1
  Al  Al33  1  0.44049457  0.74924256  0.39224605  1
  Al  Al34  1  0.10129749  0.77138032  0.84407394  1
  Al  Al35  1  0.88927723  0.88139463  0.12677950  1
  N  N36  1  0.24325671  0.19645188  0.33508941  1
  N  N37  1  0.09452826  0.09048002  0.09440917  1
  N  N38  1  0.88474914  0.20565161  0.84287257  1
  N  N39  1  0.76882925  0.07893188  0.57777854  1
  N  N40  1  0.56053287  0.20169953  0.33052112  1
  N  N41  1  0.46223239  0.09982896  0.07792882  1
  N  N42  1  0.22788038  0.18906452  0.85607722  1
  N  N43  1  0.10201540  0.10327136  0.57478283  1
  N  N44  1  0.87200120  0.19773378  0.33440646  1
  N  N45  1  0.77536437  0.09528906  0.08250356  1
  N  N46  1  0.56116049  0.20110260  0.82820294  1
  N  N47  1  0.45240810  0.11079434  0.57792309  1
  N  N48  1  0.23724828  0.54628201  0.35119262  1
  N  N49  1  0.09910275  0.43934011  0.08963744  1
  N  N50  1  0.87339969  0.52982205  0.83616887  1
  N  N51  1  0.77028250  0.44680481  0.58376308  1
  N  N52  1  0.53634142  0.54849839  0.32956403  1
  N  N53  1  0.46160865  0.40005082  0.07624274  1
  N  N54  1  0.23920936  0.54822603  0.85074265  1
  N  N55  1  0.09533844  0.43979504  0.60567899  1
  N  N56  1  0.89140092  0.53946761  0.32333561  1
  N  N57  1  0.79623679  0.41611525  0.09175452  1
  N  N58  1  0.57300384  0.51088351  0.84478726  1
  N  N59  1  0.47948897  0.40907204  0.58094641  1
  N  N60  1  0.23252748  0.85136348  0.37363516  1
  N  N61  1  0.09888194  0.77993684  0.09831226  1
  N  N62  1  0.88730674  0.88938617  0.83969833  1
  N  N63  1  0.79386675  0.75337153  0.60008313  1
  N  N64  1  0.53832251  0.87529588  0.35869372  1
  N  N65  1  0.41648897  0.77387534  0.07466128  1
  N  N66  1  0.19523728  0.89093738  0.85368873  1
  N  N67  1  0.08747376  0.76867894  0.62277480  1
  N  N68  1  0.90270965  0.88172182  0.32741031  1
  N  N69  1  0.78883259  0.75875900  0.10075638  1
  N  N70  1  0.54568480  0.89026777  0.83854194  1
  N  N71  1  0.45241087  0.73510704  0.60533372  1
