# generated using pymatgen
data_Sc4Al5N9
_symmetry_space_group_name_H-M   'P 1'
_cell_length_a   10.39955712
_cell_length_b   10.36369838
_cell_length_c   9.37748663
_cell_angle_alpha   90.21505599
_cell_angle_beta   90.00339695
_cell_angle_gamma   60.06136420
_symmetry_Int_Tables_number   1
_chemical_formula_structural   Sc4Al5N9
_chemical_formula_sum   'Sc16 Al20 N36'
_cell_volume   875.81201031
_cell_formula_units_Z   4
loop_
 _symmetry_equiv_pos_site_id
 _symmetry_equiv_pos_as_xyz
  1  'x, y, z'
loop_
 _atom_site_type_symbol
 _atom_site_label
 _atom_site_symmetry_multiplicity
 _atom_site_fract_x
 _atom_site_fract_y
 _atom_site_fract_z
 _atom_site_occupancy
  Sc  Sc0  1  0.10477420  0.08868462  0.34347297  1
  Sc  Sc1  1  0.22391023  0.20058069  0.09816672  1
  Sc  Sc2  1  0.87041131  0.21336029  0.60122497  1
  Sc  Sc3  1  0.22701196  0.20597041  0.60080934  1
  Sc  Sc4  1  0.11421682  0.43417629  0.35035425  1
  Sc  Sc5  1  0.23138736  0.54599102  0.08925645  1
  Sc  Sc6  1  0.55832400  0.52737751  0.09980638  1
  Sc  Sc7  1  0.10959157  0.43121760  0.84985838  1
  Sc  Sc8  1  0.22974053  0.54561420  0.59588720  1
  Sc  Sc9  1  0.77849674  0.42628862  0.34563978  1
  Sc  Sc10  1  0.78219082  0.76538872  0.85033847  1
  Sc  Sc11  1  0.55142013  0.87586032  0.10032661  1
  Sc  Sc12  1  0.21870949  0.86636822  0.59588561  1
  Sc  Sc13  1  0.78034419  0.76632413  0.34575242  1
  Sc  Sc14  1  0.44220157  0.74889937  0.84929360  1
  Sc  Sc15  1  0.55358060  0.86799248  0.59933994  1
  Al  Al16  1  0.77396363  0.09052109  0.82835289  1
  Al  Al17  1  0.44893288  0.09481807  0.36616454  1
  Al  Al18  1  0.56511929  0.20228173  0.07690901  1
  Al  Al19  1  0.10563472  0.09544300  0.82764334  1
  Al  Al20  1  0.77708911  0.09373964  0.32002665  1
  Al  Al21  1  0.89080272  0.19551776  0.07140997  1
  Al  Al22  1  0.44922108  0.09780249  0.86739708  1
  Al  Al23  1  0.56862136  0.19748237  0.57156262  1
  Al  Al24  1  0.77957657  0.42109061  0.87541350  1
  Al  Al25  1  0.88022948  0.54241988  0.62345444  1
  Al  Al26  1  0.44927273  0.41972108  0.33285248  1
  Al  Al27  1  0.89382651  0.53836991  0.11243444  1
  Al  Al28  1  0.46569369  0.41468024  0.81682869  1
  Al  Al29  1  0.55876674  0.53726005  0.56728579  1
  Al  Al30  1  0.11120895  0.76919267  0.32228449  1
  Al  Al31  1  0.20208003  0.88242027  0.06753826  1
  Al  Al32  1  0.88620394  0.87636375  0.57292728  1
  Al  Al33  1  0.42707284  0.76389883  0.31983681  1
  Al  Al34  1  0.10017895  0.77373356  0.82855904  1
  Al  Al35  1  0.89169478  0.88070180  0.07884494  1
  N  N36  1  0.23801147  0.19739062  0.34644871  1
  N  N37  1  0.09684641  0.08833037  0.10695054  1
  N  N38  1  0.88568690  0.20333982  0.85671035  1
  N  N39  1  0.76822692  0.07885890  0.62658963  1
  N  N40  1  0.56437700  0.19773425  0.36382442  1
  N  N41  1  0.45590003  0.10291966  0.08605435  1
  N  N42  1  0.23048773  0.19021964  0.84931284  1
  N  N43  1  0.10414510  0.09856355  0.61319350  1
  N  N44  1  0.87391633  0.19700835  0.36984422  1
  N  N45  1  0.77763855  0.09582137  0.11394537  1
  N  N46  1  0.55948011  0.20566628  0.86689876  1
  N  N47  1  0.45676317  0.10110114  0.58504726  1
  N  N48  1  0.23277390  0.55254420  0.35395809  1
  N  N49  1  0.10330055  0.43803520  0.08859147  1
  N  N50  1  0.87594122  0.52998311  0.83532035  1
  N  N51  1  0.76720718  0.45084022  0.58108855  1
  N  N52  1  0.53758580  0.54926887  0.35165649  1
  N  N53  1  0.45802555  0.40142977  0.12985882  1
  N  N54  1  0.24224578  0.54818469  0.84858821  1
  N  N55  1  0.09437764  0.44266251  0.59906981  1
  N  N56  1  0.89091468  0.54120398  0.31873117  1
  N  N57  1  0.80092942  0.41265865  0.09188948  1
  N  N58  1  0.57153241  0.51032639  0.87096408  1
  N  N59  1  0.47720265  0.40921803  0.60833515  1
  N  N60  1  0.22637063  0.85717400  0.36758963  1
  N  N61  1  0.09844040  0.78248957  0.11712925  1
  N  N62  1  0.89597572  0.88568597  0.87662977  1
  N  N63  1  0.79151919  0.75573358  0.59713810  1
  N  N64  1  0.53542588  0.87597274  0.34561232  1
  N  N65  1  0.41433299  0.76989909  0.10331212  1
  N  N66  1  0.20019571  0.88471545  0.85828711  1
  N  N67  1  0.08489311  0.77209299  0.62669351  1
  N  N68  1  0.89995695  0.88370089  0.36572434  1
  N  N69  1  0.79243532  0.75876718  0.09667868  1
  N  N70  1  0.54680817  0.88577411  0.84950946  1
  N  N71  1  0.44955945  0.73639782  0.62163834  1
