# generated using pymatgen
data_Sc4Al5N9
_symmetry_space_group_name_H-M   'P 1'
_cell_length_a   10.28425918
_cell_length_b   10.24272981
_cell_length_c   9.73534740
_cell_angle_alpha   89.87086529
_cell_angle_beta   89.93275402
_cell_angle_gamma   60.25258564
_symmetry_Int_Tables_number   1
_chemical_formula_structural   Sc4Al5N9
_chemical_formula_sum   'Sc16 Al20 N36'
_cell_volume   890.36784789
_cell_formula_units_Z   4
loop_
 _symmetry_equiv_pos_site_id
 _symmetry_equiv_pos_as_xyz
  1  'x, y, z'
loop_
 _atom_site_type_symbol
 _atom_site_label
 _atom_site_symmetry_multiplicity
 _atom_site_fract_x
 _atom_site_fract_y
 _atom_site_fract_z
 _atom_site_occupancy
  Sc  Sc0  1  0.11128877  0.08924544  0.34494438  1
  Sc  Sc1  1  0.22787177  0.20487919  0.10311383  1
  Sc  Sc2  1  0.88132869  0.20661638  0.61234373  1
  Sc  Sc3  1  0.22658674  0.20091297  0.61837922  1
  Sc  Sc4  1  0.11460764  0.43074549  0.36483181  1
  Sc  Sc5  1  0.22791921  0.54563342  0.09971774  1
  Sc  Sc6  1  0.55959482  0.52807326  0.09546715  1
  Sc  Sc7  1  0.10753873  0.43298768  0.85547008  1
  Sc  Sc8  1  0.23348441  0.54280815  0.60640361  1
  Sc  Sc9  1  0.76419761  0.43577427  0.35992374  1
  Sc  Sc10  1  0.78165879  0.76465652  0.84875654  1
  Sc  Sc11  1  0.55351831  0.87785290  0.10011894  1
  Sc  Sc12  1  0.22272977  0.86621830  0.58535415  1
  Sc  Sc13  1  0.78024748  0.76440731  0.34357230  1
  Sc  Sc14  1  0.43588008  0.75921736  0.84993062  1
  Sc  Sc15  1  0.55438836  0.86690250  0.59812987  1
  Al  Al16  1  0.77552791  0.10118616  0.87833828  1
  Al  Al17  1  0.44822709  0.09914541  0.37256014  1
  Al  Al18  1  0.56482387  0.20084080  0.12936324  1
  Al  Al19  1  0.09668262  0.10037175  0.88196537  1
  Al  Al20  1  0.77120386  0.09412503  0.37563387  1
  Al  Al21  1  0.88117007  0.20113454  0.12868049  1
  Al  Al22  1  0.45222663  0.09842450  0.87422766  1
  Al  Al23  1  0.56439397  0.19982733  0.62307872  1
  Al  Al24  1  0.78798995  0.41274330  0.88138569  1
  Al  Al25  1  0.88123235  0.53967247  0.62736470  1
  Al  Al26  1  0.45333056  0.42722504  0.37637475  1
  Al  Al27  1  0.89351149  0.53619139  0.11876664  1
  Al  Al28  1  0.45673434  0.41026128  0.87400496  1
  Al  Al29  1  0.56870643  0.52378263  0.64046893  1
  Al  Al30  1  0.11254252  0.76743534  0.31829294  1
  Al  Al31  1  0.20151081  0.87914570  0.06600431  1
  Al  Al32  1  0.88917803  0.87071454  0.56723741  1
  Al  Al33  1  0.42901772  0.76126898  0.30636709  1
  Al  Al34  1  0.09924173  0.77663554  0.82045134  1
  Al  Al35  1  0.89158512  0.87908311  0.07249476  1
  N  N36  1  0.24267849  0.19890803  0.32701381  1
  N  N37  1  0.09396491  0.09247082  0.09027785  1
  N  N38  1  0.88792850  0.20382051  0.83524202  1
  N  N39  1  0.76775846  0.08367876  0.57458821  1
  N  N40  1  0.55868499  0.20361804  0.32469635  1
  N  N41  1  0.46036199  0.10520249  0.06890360  1
  N  N42  1  0.22858092  0.18832861  0.84847155  1
  N  N43  1  0.10729417  0.09809157  0.56669403  1
  N  N44  1  0.87072137  0.19995803  0.32748940  1
  N  N45  1  0.77282263  0.09994974  0.07825732  1
  N  N46  1  0.56022641  0.20121138  0.81953098  1
  N  N47  1  0.45524862  0.10397895  0.56884030  1
  N  N48  1  0.23566935  0.54815622  0.34802881  1
  N  N49  1  0.09943744  0.44022182  0.07961096  1
  N  N50  1  0.87526554  0.52861088  0.82583703  1
  N  N51  1  0.76826869  0.44617749  0.57875367  1
  N  N52  1  0.53454145  0.54845320  0.31413761  1
  N  N53  1  0.45775640  0.39947762  0.06838843  1
  N  N54  1  0.23777654  0.55170690  0.84469706  1
  N  N55  1  0.09641993  0.43897704  0.59774308  1
  N  N56  1  0.89091895  0.53657426  0.31410132  1
  N  N57  1  0.80074058  0.41348489  0.08135200  1
  N  N58  1  0.57524065  0.50663338  0.84598856  1
  N  N59  1  0.47787522  0.41051479  0.57475183  1
  N  N60  1  0.23114834  0.85312396  0.36274096  1
  N  N61  1  0.09592039  0.78381719  0.12140479  1
  N  N62  1  0.89627745  0.88558974  0.87287557  1
  N  N63  1  0.79204838  0.75302728  0.59355062  1
  N  N64  1  0.53525303  0.87718070  0.33747131  1
  N  N65  1  0.41441317  0.77369772  0.09362109  1
  N  N66  1  0.19560461  0.88841146  0.86235908  1
  N  N67  1  0.08662530  0.77369091  0.62656095  1
  N  N68  1  0.90377340  0.87724617  0.36548769  1
  N  N69  1  0.79366041  0.75633617  0.09311515  1
  N  N70  1  0.54690945  0.88880354  0.84283056  1
  N  N71  1  0.45136600  0.73426167  0.63041583  1
