# generated using pymatgen
data_Sc4Al5N9
_symmetry_space_group_name_H-M   'P 1'
_cell_length_a   10.27509288
_cell_length_b   10.23189892
_cell_length_c   9.75697793
_cell_angle_alpha   90.13516447
_cell_angle_beta   90.32910689
_cell_angle_gamma   60.22825278
_symmetry_Int_Tables_number   1
_chemical_formula_structural   Sc4Al5N9
_chemical_formula_sum   'Sc16 Al20 N36'
_cell_volume   890.37922455
_cell_formula_units_Z   4
loop_
 _symmetry_equiv_pos_site_id
 _symmetry_equiv_pos_as_xyz
  1  'x, y, z'
loop_
 _atom_site_type_symbol
 _atom_site_label
 _atom_site_symmetry_multiplicity
 _atom_site_fract_x
 _atom_site_fract_y
 _atom_site_fract_z
 _atom_site_occupancy
  Sc  Sc0  1  0.11057370  0.08938195  0.34400024  1
  Sc  Sc1  1  0.22806419  0.20363621  0.10205991  1
  Sc  Sc2  1  0.87962675  0.20797664  0.61143907  1
  Sc  Sc3  1  0.22561336  0.20139963  0.61894240  1
  Sc  Sc4  1  0.11544684  0.42964246  0.36389319  1
  Sc  Sc5  1  0.22981456  0.54295288  0.09825388  1
  Sc  Sc6  1  0.55874395  0.53047936  0.09627281  1
  Sc  Sc7  1  0.10738192  0.43249442  0.85536728  1
  Sc  Sc8  1  0.23420054  0.54164208  0.60528251  1
  Sc  Sc9  1  0.76584596  0.43571376  0.35901292  1
  Sc  Sc10  1  0.78057892  0.76326464  0.86412878  1
  Sc  Sc11  1  0.55376720  0.87735954  0.10952767  1
  Sc  Sc12  1  0.22046258  0.86764205  0.58561578  1
  Sc  Sc13  1  0.78314671  0.76489132  0.36238778  1
  Sc  Sc14  1  0.43653201  0.75973250  0.84875308  1
  Sc  Sc15  1  0.55386980  0.86939508  0.60433566  1
  Al  Al16  1  0.77642308  0.09783301  0.87835291  1
  Al  Al17  1  0.44837121  0.09969721  0.37341382  1
  Al  Al18  1  0.56598695  0.19975348  0.12778863  1
  Al  Al19  1  0.09535419  0.10108318  0.88071636  1
  Al  Al20  1  0.77327779  0.09032901  0.37515818  1
  Al  Al21  1  0.88079959  0.20103855  0.12699655  1
  Al  Al22  1  0.45306484  0.09755341  0.87453382  1
  Al  Al23  1  0.56447611  0.20032039  0.62195787  1
  Al  Al24  1  0.78714418  0.41324145  0.88166351  1
  Al  Al25  1  0.88085381  0.54078231  0.62917524  1
  Al  Al26  1  0.45484599  0.42559383  0.37507471  1
  Al  Al27  1  0.89339277  0.53758695  0.12071106  1
  Al  Al28  1  0.45841366  0.40983647  0.87277713  1
  Al  Al29  1  0.56877028  0.52477104  0.63834959  1
  Al  Al30  1  0.11549912  0.76551304  0.31542886  1
  Al  Al31  1  0.20299963  0.87864813  0.06280089  1
  Al  Al32  1  0.88006242  0.87836458  0.62903727  1
  Al  Al33  1  0.43086744  0.76039196  0.31456507  1
  Al  Al34  1  0.10265930  0.77307125  0.82085411  1
  Al  Al35  1  0.88776397  0.88223306  0.12291375  1
  N  N36  1  0.24306150  0.19760111  0.32514266  1
  N  N37  1  0.09347949  0.09201369  0.08848640  1
  N  N38  1  0.88633270  0.20429294  0.83437396  1
  N  N39  1  0.76854367  0.08057035  0.56983641  1
  N  N40  1  0.55944268  0.20289692  0.32283329  1
  N  N41  1  0.46126396  0.10357850  0.06830200  1
  N  N42  1  0.22825610  0.18791874  0.84813513  1
  N  N43  1  0.10490500  0.10010252  0.56528371  1
  N  N44  1  0.86970778  0.20019103  0.32566368  1
  N  N45  1  0.77539654  0.09545947  0.07387656  1
  N  N46  1  0.56061294  0.20089280  0.81817657  1
  N  N47  1  0.45373638  0.10623335  0.56834542  1
  N  N48  1  0.23642775  0.54702381  0.34458685  1
  N  N49  1  0.09907137  0.43937974  0.07916050  1
  N  N50  1  0.87484704  0.52861716  0.82596821  1
  N  N51  1  0.76839070  0.44711236  0.57740034  1
  N  N52  1  0.53517991  0.54819866  0.31478938  1
  N  N53  1  0.46069269  0.39838988  0.06659831  1
  N  N54  1  0.23848990  0.55018022  0.84326176  1
  N  N55  1  0.09583310  0.43902428  0.59721785  1
  N  N56  1  0.89085753  0.53926151  0.31462706  1
  N  N57  1  0.80001322  0.41435272  0.08157102  1
  N  N58  1  0.57475037  0.50801914  0.84383416  1
  N  N59  1  0.47930428  0.40990027  0.57285292  1
  N  N60  1  0.23077695  0.85331014  0.36241856  1
  N  N61  1  0.10009581  0.77996421  0.11145023  1
  N  N62  1  0.88831159  0.88983780  0.83022847  1
  N  N63  1  0.79242957  0.75359301  0.59199387  1
  N  N64  1  0.53721017  0.87643456  0.34095799  1
  N  N65  1  0.41540155  0.77484444  0.09185044  1
  N  N66  1  0.19517738  0.88894318  0.85921969  1
  N  N67  1  0.08915774  0.77069433  0.62049744  1
  N  N68  1  0.89782925  0.88398110  0.32233121  1
  N  N69  1  0.79351895  0.75688627  0.08992881  1
  N  N70  1  0.54684925  0.88915908  0.83870537  1
  N  N71  1  0.45079796  0.73540599  0.62729643  1
