# generated using pymatgen
data_Sc4Al5N9
_symmetry_space_group_name_H-M   'P 1'
_cell_length_a   10.27454798
_cell_length_b   10.22867152
_cell_length_c   9.75347261
_cell_angle_alpha   90.08674563
_cell_angle_beta   90.27647160
_cell_angle_gamma   60.23660304
_symmetry_Int_Tables_number   1
_chemical_formula_structural   Sc4Al5N9
_chemical_formula_sum   'Sc16 Al20 N36'
_cell_volume   889.80958411
_cell_formula_units_Z   4
loop_
 _symmetry_equiv_pos_site_id
 _symmetry_equiv_pos_as_xyz
  1  'x, y, z'
loop_
 _atom_site_type_symbol
 _atom_site_label
 _atom_site_symmetry_multiplicity
 _atom_site_fract_x
 _atom_site_fract_y
 _atom_site_fract_z
 _atom_site_occupancy
  Sc  Sc0  1  0.11153262  0.08807285  0.34364434  1
  Sc  Sc1  1  0.22821811  0.20331605  0.10136598  1
  Sc  Sc2  1  0.87882924  0.20861788  0.61166196  1
  Sc  Sc3  1  0.22536005  0.20192672  0.61917988  1
  Sc  Sc4  1  0.11591999  0.42922331  0.36347355  1
  Sc  Sc5  1  0.23006672  0.54294348  0.09772614  1
  Sc  Sc6  1  0.55575487  0.53533173  0.09882138  1
  Sc  Sc7  1  0.10704266  0.43283599  0.85526293  1
  Sc  Sc8  1  0.23430338  0.54154376  0.60489914  1
  Sc  Sc9  1  0.76795789  0.43391954  0.35812117  1
  Sc  Sc10  1  0.77915256  0.76380333  0.86550599  1
  Sc  Sc11  1  0.55034228  0.87491675  0.11386455  1
  Sc  Sc12  1  0.21557947  0.87114218  0.59012349  1
  Sc  Sc13  1  0.78454435  0.76429823  0.36248608  1
  Sc  Sc14  1  0.43659810  0.76003239  0.84654318  1
  Sc  Sc15  1  0.55529632  0.87196354  0.60464666  1
  Al  Al16  1  0.77617656  0.09791864  0.87850887  1
  Al  Al17  1  0.44808968  0.10059147  0.37385124  1
  Al  Al18  1  0.56602752  0.19935948  0.12705836  1
  Al  Al19  1  0.09485047  0.10162632  0.88009925  1
  Al  Al20  1  0.77371709  0.08988739  0.37486855  1
  Al  Al21  1  0.88071809  0.20089083  0.12619863  1
  Al  Al22  1  0.45340000  0.09683401  0.87475707  1
  Al  Al23  1  0.56445896  0.20074375  0.62242713  1
  Al  Al24  1  0.78571796  0.41428572  0.88167359  1
  Al  Al25  1  0.88097027  0.54093429  0.62907023  1
  Al  Al26  1  0.45510552  0.42436329  0.37483300  1
  Al  Al27  1  0.89302170  0.53772923  0.12050487  1
  Al  Al28  1  0.45882907  0.41056855  0.87276572  1
  Al  Al29  1  0.56948944  0.52395573  0.63580349  1
  Al  Al30  1  0.11661842  0.76539811  0.31507345  1
  Al  Al31  1  0.20516212  0.87740751  0.06040434  1
  Al  Al32  1  0.87964424  0.87818500  0.62941904  1
  Al  Al33  1  0.43703085  0.75523012  0.35266539  1
  Al  Al34  1  0.10179198  0.77248009  0.82121099  1
  Al  Al35  1  0.88767944  0.88224309  0.12269648  1
  N  N36  1  0.24341562  0.19708717  0.32454831  1
  N  N37  1  0.09395913  0.09116301  0.08725379  1
  N  N38  1  0.88558913  0.20500538  0.83463883  1
  N  N39  1  0.76845025  0.08036444  0.56977356  1
  N  N40  1  0.55979410  0.20248342  0.32228772  1
  N  N41  1  0.46207690  0.10139342  0.06862778  1
  N  N42  1  0.22817644  0.18820493  0.84818453  1
  N  N43  1  0.10347706  0.10217761  0.56488545  1
  N  N44  1  0.87054204  0.19917210  0.32492911  1
  N  N45  1  0.77543011  0.09525672  0.07381398  1
  N  N46  1  0.56054707  0.20114047  0.81870879  1
  N  N47  1  0.45292951  0.10828700  0.56821511  1
  N  N48  1  0.23691035  0.54668422  0.34399422  1
  N  N49  1  0.09893312  0.43949610  0.07902268  1
  N  N50  1  0.87436227  0.52910639  0.82600248  1
  N  N51  1  0.76932282  0.44677084  0.57638930  1
  N  N52  1  0.53591537  0.54820207  0.31768950  1
  N  N53  1  0.46148634  0.39902115  0.06683095  1
  N  N54  1  0.23857340  0.55011650  0.84325231  1
  N  N55  1  0.09589185  0.43919453  0.59712706  1
  N  N56  1  0.89154164  0.53886254  0.31447141  1
  N  N57  1  0.79838911  0.41534104  0.08179415  1
  N  N58  1  0.57405100  0.50930329  0.83984880  1
  N  N59  1  0.47940870  0.40943896  0.57233574  1
  N  N60  1  0.23091956  0.85289447  0.36513455  1
  N  N61  1  0.10059105  0.78029393  0.11054185  1
  N  N62  1  0.88761010  0.88971360  0.83075642  1
  N  N63  1  0.79317599  0.75328885  0.59134784  1
  N  N64  1  0.53761984  0.87577560  0.34534265  1
  N  N65  1  0.41644502  0.77387660  0.07585589  1
  N  N66  1  0.19405171  0.88986115  0.85383826  1
  N  N67  1  0.08819576  0.76990980  0.62073393  1
  N  N68  1  0.89872228  0.88359394  0.32198996  1
  N  N69  1  0.79153059  0.75751186  0.09101843  1
  N  N70  1  0.54648695  0.88961990  0.83391595  1
  N  N71  1  0.45132792  0.73537873  0.61242778  1
