# generated using pymatgen
data_Sc4Al5N9
_symmetry_space_group_name_H-M   'P 1'
_cell_length_a   10.18510878
_cell_length_b   10.14800954
_cell_length_c   9.96242508
_cell_angle_alpha   89.92901847
_cell_angle_beta   89.90511897
_cell_angle_gamma   60.03362134
_symmetry_Int_Tables_number   1
_chemical_formula_structural   Sc4Al5N9
_chemical_formula_sum   'Sc16 Al20 N36'
_cell_volume   892.04883340
_cell_formula_units_Z   4
loop_
 _symmetry_equiv_pos_site_id
 _symmetry_equiv_pos_as_xyz
  1  'x, y, z'
loop_
 _atom_site_type_symbol
 _atom_site_label
 _atom_site_symmetry_multiplicity
 _atom_site_fract_x
 _atom_site_fract_y
 _atom_site_fract_z
 _atom_site_occupancy
  Sc  Sc0  1  0.10466010  0.08968338  0.30784321  1
  Sc  Sc1  1  0.22716632  0.19689992  0.05835483  1
  Sc  Sc2  1  0.87605648  0.20486219  0.57733737  1
  Sc  Sc3  1  0.22502092  0.20862339  0.56371611  1
  Sc  Sc4  1  0.11491454  0.43269197  0.30300899  1
  Sc  Sc5  1  0.23128355  0.54763237  0.05733722  1
  Sc  Sc6  1  0.56635387  0.52466379  0.06865604  1
  Sc  Sc7  1  0.10842651  0.43063435  0.81876020  1
  Sc  Sc8  1  0.22808457  0.54314723  0.56956985  1
  Sc  Sc9  1  0.77866150  0.42355405  0.31935615  1
  Sc  Sc10  1  0.78054142  0.76606136  0.81066220  1
  Sc  Sc11  1  0.55626217  0.87435434  0.06867162  1
  Sc  Sc12  1  0.21942376  0.86642180  0.56473514  1
  Sc  Sc13  1  0.78239679  0.76506536  0.31284401  1
  Sc  Sc14  1  0.44092792  0.75363934  0.82346484  1
  Sc  Sc15  1  0.55058273  0.87149954  0.55814962  1
  Al  Al16  1  0.77355478  0.09158133  0.80728166  1
  Al  Al17  1  0.44987153  0.09795083  0.30082050  1
  Al  Al18  1  0.56432607  0.20190307  0.05341946  1
  Al  Al19  1  0.10718179  0.09443269  0.80434569  1
  Al  Al20  1  0.77606638  0.09474245  0.30019892  1
  Al  Al21  1  0.88745059  0.20298507  0.04316711  1
  Al  Al22  1  0.44970253  0.09845196  0.80207623  1
  Al  Al23  1  0.56494508  0.19872266  0.55303518  1
  Al  Al24  1  0.77247424  0.42839686  0.79889600  1
  Al  Al25  1  0.88552565  0.54503922  0.55566288  1
  Al  Al26  1  0.44829908  0.42172820  0.30779354  1
  Al  Al27  1  0.88888755  0.53428470  0.04829795  1
  Al  Al28  1  0.46238217  0.41613200  0.79813471  1
  Al  Al29  1  0.55674337  0.53683080  0.55000159  1
  Al  Al30  1  0.11178202  0.76775326  0.30061339  1
  Al  Al31  1  0.20232887  0.88104778  0.04680045  1
  Al  Al32  1  0.88492259  0.87687169  0.55083260  1
  Al  Al33  1  0.42974613  0.76203196  0.29513763  1
  Al  Al34  1  0.10088825  0.77451111  0.80395306  1
  Al  Al35  1  0.89180865  0.87935178  0.05542324  1
  N  N36  1  0.23869508  0.19694040  0.34159391  1
  N  N37  1  0.09551162  0.08939700  0.09262636  1
  N  N38  1  0.88362911  0.20720092  0.84182481  1
  N  N39  1  0.76602232  0.07790190  0.61781754  1
  N  N40  1  0.56094283  0.19952780  0.36001568  1
  N  N41  1  0.45885523  0.10403013  0.11125000  1
  N  N42  1  0.23186043  0.18832550  0.84102956  1
  N  N43  1  0.10922196  0.09555280  0.61086609  1
  N  N44  1  0.87554848  0.19434821  0.36599156  1
  N  N45  1  0.77777883  0.09690397  0.10451239  1
  N  N46  1  0.55687205  0.20476964  0.86051892  1
  N  N47  1  0.45544035  0.10464369  0.61161618  1
  N  N48  1  0.23220091  0.55069205  0.34521025  1
  N  N49  1  0.10183533  0.43744814  0.07970765  1
  N  N50  1  0.87262111  0.53201113  0.85765177  1
  N  N51  1  0.76720318  0.44962552  0.60090063  1
  N  N52  1  0.53813462  0.54812196  0.34936008  1
  N  N53  1  0.45904583  0.40303106  0.11818326  1
  N  N54  1  0.23982383  0.55039204  0.83683751  1
  N  N55  1  0.09406053  0.44203902  0.60254954  1
  N  N56  1  0.89267070  0.53845192  0.36554580  1
  N  N57  1  0.80442210  0.41086194  0.10558291  1
  N  N58  1  0.57033027  0.51161143  0.85767379  1
  N  N59  1  0.47580256  0.40945903  0.60495754  1
  N  N60  1  0.22768707  0.85735051  0.35228068  1
  N  N61  1  0.09793070  0.78231545  0.10929821  1
  N  N62  1  0.89598570  0.88469524  0.86609154  1
  N  N63  1  0.78755857  0.75947249  0.58832944  1
  N  N64  1  0.53628625  0.87665667  0.33336420  1
  N  N65  1  0.41664972  0.76837142  0.09422960  1
  N  N66  1  0.19952080  0.88448673  0.85199596  1
  N  N67  1  0.08421924  0.77365182  0.61577730  1
  N  N68  1  0.90015282  0.88400074  0.35780592  1
  N  N69  1  0.79866198  0.75147292  0.09320387  1
  N  N70  1  0.54678128  0.88909585  0.84933138  1
  N  N71  1  0.45056801  0.73863745  0.61100459  1
