# generated using pymatgen
data_Sc4Al5N9
_symmetry_space_group_name_H-M   'P 1'
_cell_length_a   10.37871663
_cell_length_b   10.33417410
_cell_length_c   9.44264503
_cell_angle_alpha   90.16598820
_cell_angle_beta   89.94422553
_cell_angle_gamma   60.03294177
_symmetry_Int_Tables_number   1
_chemical_formula_structural   Sc4Al5N9
_chemical_formula_sum   'Sc16 Al20 N36'
_cell_volume   877.37301245
_cell_formula_units_Z   4
loop_
 _symmetry_equiv_pos_site_id
 _symmetry_equiv_pos_as_xyz
  1  'x, y, z'
loop_
 _atom_site_type_symbol
 _atom_site_label
 _atom_site_symmetry_multiplicity
 _atom_site_fract_x
 _atom_site_fract_y
 _atom_site_fract_z
 _atom_site_occupancy
  Sc  Sc0  1  0.10381607  0.08885556  0.34296996  1
  Sc  Sc1  1  0.22452544  0.19971687  0.09485759  1
  Sc  Sc2  1  0.86893094  0.21472956  0.60123378  1
  Sc  Sc3  1  0.22651674  0.20605305  0.59709049  1
  Sc  Sc4  1  0.11494800  0.43431645  0.35070767  1
  Sc  Sc5  1  0.23155886  0.54609013  0.08832526  1
  Sc  Sc6  1  0.55866590  0.52738697  0.10080630  1
  Sc  Sc7  1  0.10983376  0.43096907  0.84929756  1
  Sc  Sc8  1  0.23115982  0.54478028  0.59617149  1
  Sc  Sc9  1  0.77837996  0.42673460  0.34606884  1
  Sc  Sc10  1  0.78251474  0.76502010  0.84988136  1
  Sc  Sc11  1  0.55181550  0.87596678  0.09694534  1
  Sc  Sc12  1  0.21867021  0.86639962  0.59555637  1
  Sc  Sc13  1  0.77995192  0.76716110  0.34570031  1
  Sc  Sc14  1  0.44210677  0.74843654  0.84953857  1
  Sc  Sc15  1  0.55319404  0.86772172  0.59691572  1
  Al  Al16  1  0.77490896  0.08998295  0.82822582  1
  Al  Al17  1  0.44926190  0.09534958  0.34343433  1
  Al  Al18  1  0.56454662  0.20133908  0.07327192  1
  Al  Al19  1  0.10522680  0.09563617  0.82566962  1
  Al  Al20  1  0.77598846  0.09421408  0.32008995  1
  Al  Al21  1  0.89108181  0.19499084  0.07144020  1
  Al  Al22  1  0.44926211  0.09768855  0.84112465  1
  Al  Al23  1  0.56785788  0.19717400  0.57341395  1
  Al  Al24  1  0.78042161  0.42111618  0.87881177  1
  Al  Al25  1  0.88012357  0.54256902  0.62366473  1
  Al  Al26  1  0.44912773  0.41894073  0.33106335  1
  Al  Al27  1  0.89475103  0.53859153  0.11477075  1
  Al  Al28  1  0.46649076  0.41493583  0.81783769  1
  Al  Al29  1  0.55830277  0.53742077  0.56591516  1
  Al  Al30  1  0.11129011  0.76915276  0.32264037  1
  Al  Al31  1  0.20135719  0.88274700  0.06724131  1
  Al  Al32  1  0.88620493  0.87661771  0.57276396  1
  Al  Al33  1  0.42627990  0.76454490  0.31856422  1
  Al  Al34  1  0.10051831  0.77350603  0.82760490  1
  Al  Al35  1  0.89183098  0.88055998  0.07852379  1
  N  N36  1  0.23806010  0.19704998  0.35073332  1
  N  N37  1  0.09652982  0.08823765  0.11014548  1
  N  N38  1  0.88575265  0.20330493  0.85821258  1
  N  N39  1  0.76834605  0.07883670  0.62861454  1
  N  N40  1  0.56282296  0.19730878  0.36973897  1
  N  N41  1  0.45676868  0.10318234  0.10575447  1
  N  N42  1  0.22978859  0.18987507  0.85114751  1
  N  N43  1  0.10310185  0.09898035  0.61507768  1
  N  N44  1  0.87264561  0.19728081  0.37191023  1
  N  N45  1  0.77693902  0.09614409  0.11559115  1
  N  N46  1  0.55929212  0.20452162  0.86931007  1
  N  N47  1  0.45680671  0.10244243  0.61026063  1
  N  N48  1  0.23373248  0.55210556  0.35523999  1
  N  N49  1  0.10382042  0.43777873  0.08805412  1
  N  N50  1  0.87613082  0.52937967  0.83327574  1
  N  N51  1  0.76672839  0.45228159  0.57843601  1
  N  N52  1  0.53683004  0.54918272  0.35183108  1
  N  N53  1  0.45875282  0.40027647  0.13044805  1
  N  N54  1  0.24259594  0.54844631  0.84952177  1
  N  N55  1  0.09462905  0.44307895  0.59901670  1
  N  N56  1  0.89157903  0.54153498  0.31866100  1
  N  N57  1  0.80197864  0.41283146  0.09276791  1
  N  N58  1  0.57231615  0.50989581  0.87437104  1
  N  N59  1  0.47871594  0.40900936  0.61217455  1
  N  N60  1  0.22634380  0.85711508  0.36971391  1
  N  N61  1  0.09822075  0.78267002  0.11949348  1
  N  N62  1  0.89673265  0.88529203  0.87811041  1
  N  N63  1  0.79110993  0.75630863  0.59737090  1
  N  N64  1  0.53495967  0.87632899  0.34806185  1
  N  N65  1  0.41358629  0.77043487  0.10472610  1
  N  N66  1  0.19965902  0.88507589  0.85980955  1
  N  N67  1  0.08497891  0.77175452  0.62777399  1
  N  N68  1  0.89983096  0.88414185  0.36754163  1
  N  N69  1  0.79299868  0.75848574  0.09690209  1
  N  N70  1  0.54707862  0.88500335  0.85300467  1
  N  N71  1  0.44948236  0.73588569  0.62414686  1
