# generated using pymatgen
data_Sc4Al5N9
_symmetry_space_group_name_H-M   'P 1'
_cell_length_a   10.32519764
_cell_length_b   10.28522290
_cell_length_c   9.59245594
_cell_angle_alpha   89.88554410
_cell_angle_beta   89.76142538
_cell_angle_gamma   60.00465240
_symmetry_Int_Tables_number   1
_chemical_formula_structural   Sc4Al5N9
_chemical_formula_sum   'Sc16 Al20 N36'
_cell_volume   882.24482045
_cell_formula_units_Z   4
loop_
 _symmetry_equiv_pos_site_id
 _symmetry_equiv_pos_as_xyz
  1  'x, y, z'
loop_
 _atom_site_type_symbol
 _atom_site_label
 _atom_site_symmetry_multiplicity
 _atom_site_fract_x
 _atom_site_fract_y
 _atom_site_fract_z
 _atom_site_occupancy
  Sc  Sc0  1  0.10466783  0.08855751  0.33551445  1
  Sc  Sc1  1  0.22530387  0.19889986  0.08724625  1
  Sc  Sc2  1  0.87402395  0.20511778  0.59839865  1
  Sc  Sc3  1  0.22744074  0.20572125  0.58945832  1
  Sc  Sc4  1  0.11705658  0.43321665  0.34648584  1
  Sc  Sc5  1  0.23166151  0.54681382  0.08506504  1
  Sc  Sc6  1  0.56522537  0.52445387  0.09502448  1
  Sc  Sc7  1  0.10929121  0.43070761  0.84742875  1
  Sc  Sc8  1  0.23025218  0.54475922  0.59389906  1
  Sc  Sc9  1  0.77857121  0.42436226  0.34696873  1
  Sc  Sc10  1  0.78147104  0.76617912  0.84770844  1
  Sc  Sc11  1  0.55257488  0.87591781  0.09243546  1
  Sc  Sc12  1  0.21992018  0.86562212  0.59153790  1
  Sc  Sc13  1  0.77951837  0.76855666  0.34203289  1
  Sc  Sc14  1  0.44142555  0.75094509  0.84782016  1
  Sc  Sc15  1  0.55149933  0.86975166  0.58824912  1
  Al  Al16  1  0.77312927  0.09037368  0.82747766  1
  Al  Al17  1  0.44998360  0.09730164  0.32243283  1
  Al  Al18  1  0.56428085  0.20146210  0.07297690  1
  Al  Al19  1  0.10686324  0.09525539  0.82363715  1
  Al  Al20  1  0.77618589  0.09485370  0.31848274  1
  Al  Al21  1  0.88821513  0.20187812  0.06429712  1
  Al  Al22  1  0.45004919  0.09847059  0.82370421  1
  Al  Al23  1  0.56606657  0.19743557  0.57203837  1
  Al  Al24  1  0.77381891  0.42402649  0.83418077  1
  Al  Al25  1  0.88182796  0.54419375  0.62150679  1
  Al  Al26  1  0.44939373  0.42000373  0.32838487  1
  Al  Al27  1  0.89349729  0.53600801  0.11869464  1
  Al  Al28  1  0.46377268  0.41496235  0.81801611  1
  Al  Al29  1  0.55581951  0.53695809  0.56692058  1
  Al  Al30  1  0.11175771  0.76918600  0.32084640  1
  Al  Al31  1  0.20135617  0.88253904  0.06535520  1
  Al  Al32  1  0.88537281  0.87630103  0.57049661  1
  Al  Al33  1  0.42772088  0.76340445  0.31549571  1
  Al  Al34  1  0.10020646  0.77418062  0.82525740  1
  Al  Al35  1  0.89199265  0.88126897  0.07684170  1
  N  N36  1  0.23920013  0.19557893  0.35405154  1
  N  N37  1  0.09543149  0.08925230  0.10854114  1
  N  N38  1  0.88430943  0.20515626  0.85539093  1
  N  N39  1  0.76620254  0.07715991  0.63147339  1
  N  N40  1  0.56191919  0.19801497  0.37333178  1
  N  N41  1  0.45846951  0.10388801  0.12381380  1
  N  N42  1  0.23071026  0.18950790  0.85402820  1
  N  N43  1  0.10714003  0.09669730  0.61927179  1
  N  N44  1  0.87453917  0.19468604  0.37761816  1
  N  N45  1  0.77731177  0.09762291  0.11714256  1
  N  N46  1  0.55745405  0.20414254  0.87416830  1
  N  N47  1  0.45675180  0.10405338  0.62513647  1
  N  N48  1  0.23432183  0.55246986  0.35683024  1
  N  N49  1  0.10343116  0.43740117  0.08885845  1
  N  N50  1  0.87602862  0.53122974  0.82946032  1
  N  N51  1  0.76630003  0.44719856  0.59744412  1
  N  N52  1  0.53782305  0.54847628  0.35736126  1
  N  N53  1  0.45965623  0.40119547  0.13167147  1
  N  N54  1  0.24067112  0.54931948  0.85054023  1
  N  N55  1  0.09527409  0.44237560  0.59805057  1
  N  N56  1  0.89132004  0.54123797  0.32396483  1
  N  N57  1  0.80274787  0.41147970  0.10753337  1
  N  N58  1  0.57025310  0.51060276  0.87329847  1
  N  N59  1  0.47691012  0.40855698  0.61665674  1
  N  N60  1  0.22737064  0.85684414  0.36979924  1
  N  N61  1  0.09812844  0.78302338  0.12176510  1
  N  N62  1  0.89671616  0.88582971  0.88019023  1
  N  N63  1  0.78901084  0.75741661  0.59593803  1
  N  N64  1  0.53456747  0.87671902  0.34911304  1
  N  N65  1  0.41492467  0.76935967  0.10574171  1
  N  N66  1  0.19960357  0.88481213  0.86185345  1
  N  N67  1  0.08396781  0.77296926  0.62937599  1
  N  N68  1  0.90028784  0.88465525  0.36935959  1
  N  N69  1  0.79395713  0.75697804  0.09811545  1
  N  N70  1  0.54597539  0.88770273  0.85917679  1
  N  N71  1  0.45091458  0.73628707  0.62633334  1
