# generated using pymatgen
data_Sc4Al5N9
_symmetry_space_group_name_H-M   'P 1'
_cell_length_a   10.41168635
_cell_length_b   10.38215105
_cell_length_c   9.33199303
_cell_angle_alpha   90.21894215
_cell_angle_beta   89.98152664
_cell_angle_gamma   60.11126622
_symmetry_Int_Tables_number   1
_chemical_formula_structural   Sc4Al5N9
_chemical_formula_sum   'Sc16 Al20 N36'
_cell_volume   874.57023146
_cell_formula_units_Z   4
loop_
 _symmetry_equiv_pos_site_id
 _symmetry_equiv_pos_as_xyz
  1  'x, y, z'
loop_
 _atom_site_type_symbol
 _atom_site_label
 _atom_site_symmetry_multiplicity
 _atom_site_fract_x
 _atom_site_fract_y
 _atom_site_fract_z
 _atom_site_occupancy
  Sc  Sc0  1  0.10571775  0.08858634  0.34335994  1
  Sc  Sc1  1  0.22421063  0.20057860  0.09747051  1
  Sc  Sc2  1  0.87134091  0.21335262  0.60122553  1
  Sc  Sc3  1  0.22689493  0.20584653  0.60132855  1
  Sc  Sc4  1  0.11401663  0.43387019  0.34962188  1
  Sc  Sc5  1  0.23132509  0.54587570  0.08951880  1
  Sc  Sc6  1  0.55794797  0.52728772  0.09941188  1
  Sc  Sc7  1  0.10955641  0.43108342  0.84962369  1
  Sc  Sc8  1  0.22825665  0.54650014  0.59553595  1
  Sc  Sc9  1  0.77868659  0.42636282  0.34500018  1
  Sc  Sc10  1  0.78206537  0.76554802  0.85019976  1
  Sc  Sc11  1  0.55125833  0.87623883  0.09971212  1
  Sc  Sc12  1  0.21868727  0.86653464  0.59613765  1
  Sc  Sc13  1  0.78041849  0.76582220  0.34519709  1
  Sc  Sc14  1  0.44213198  0.74935954  0.84927418  1
  Sc  Sc15  1  0.55378769  0.86767865  0.59945452  1
  Al  Al16  1  0.77289912  0.09110985  0.82857870  1
  Al  Al17  1  0.44908256  0.09408621  0.36976012  1
  Al  Al18  1  0.56473824  0.19931240  0.11582804  1
  Al  Al19  1  0.10567702  0.09547598  0.82878487  1
  Al  Al20  1  0.78095022  0.09081003  0.32597844  1
  Al  Al21  1  0.89016903  0.19568867  0.07210151  1
  Al  Al22  1  0.45096927  0.09955591  0.86951770  1
  Al  Al23  1  0.56671804  0.19679378  0.59326146  1
  Al  Al24  1  0.77905935  0.42100548  0.87422454  1
  Al  Al25  1  0.88025785  0.54233818  0.62317772  1
  Al  Al26  1  0.44816209  0.42270019  0.33891907  1
  Al  Al27  1  0.89355804  0.53819327  0.11100912  1
  Al  Al28  1  0.46385572  0.41571660  0.81659498  1
  Al  Al29  1  0.55901156  0.53832133  0.56721362  1
  Al  Al30  1  0.11172763  0.76881638  0.32185976  1
  Al  Al31  1  0.20231686  0.88248792  0.06764230  1
  Al  Al32  1  0.88752102  0.87470186  0.57298714  1
  Al  Al33  1  0.42740359  0.76427138  0.31963413  1
  Al  Al34  1  0.09990017  0.77415798  0.82945724  1
  Al  Al35  1  0.89148983  0.88095257  0.07928238  1
  N  N36  1  0.23847966  0.19726845  0.34513624  1
  N  N37  1  0.09689274  0.08860446  0.10529955  1
  N  N38  1  0.88514533  0.20342664  0.85631850  1
  N  N39  1  0.77180405  0.07726972  0.62215820  1
  N  N40  1  0.56448294  0.19506633  0.35086398  1
  N  N41  1  0.45673724  0.10363278  0.08197643  1
  N  N42  1  0.23072583  0.19034239  0.84881748  1
  N  N43  1  0.10459712  0.09839123  0.61240058  1
  N  N44  1  0.87524511  0.19732893  0.36878867  1
  N  N45  1  0.77856502  0.09499971  0.11502115  1
  N  N46  1  0.55670843  0.20538655  0.84184986  1
  N  N47  1  0.45639089  0.10003885  0.58032866  1
  N  N48  1  0.23139039  0.55344763  0.35346970  1
  N  N49  1  0.10329826  0.43771303  0.08875339  1
  N  N50  1  0.87584057  0.53013702  0.83640740  1
  N  N51  1  0.76714908  0.45080301  0.58188153  1
  N  N52  1  0.53827345  0.55051183  0.35097504  1
  N  N53  1  0.45670403  0.40341861  0.13034245  1
  N  N54  1  0.24190514  0.54839086  0.84789225  1
  N  N55  1  0.09412053  0.44225437  0.59896445  1
  N  N56  1  0.89085536  0.54112863  0.31873915  1
  N  N57  1  0.80026510  0.41265234  0.09157515  1
  N  N58  1  0.57092524  0.51040937  0.86877481  1
  N  N59  1  0.47491177  0.41166158  0.60070415  1
  N  N60  1  0.22647693  0.85725493  0.36634091  1
  N  N61  1  0.09860740  0.78236972  0.11552252  1
  N  N62  1  0.89522604  0.88629553  0.87588389  1
  N  N63  1  0.79175705  0.75533146  0.59709354  1
  N  N64  1  0.53555068  0.87591970  0.34457624  1
  N  N65  1  0.41463034  0.77005511  0.10230550  1
  N  N66  1  0.20036229  0.88475040  0.85753862  1
  N  N67  1  0.08537442  0.77199885  0.62653641  1
  N  N68  1  0.90158054  0.88145186  0.36497709  1
  N  N69  1  0.79210883  0.75886122  0.09651284  1
  N  N70  1  0.54664558  0.88651565  0.84875102  1
  N  N71  1  0.44942829  0.73715556  0.62059118  1
