# generated using pymatgen
data_Sc4Al5N9
_symmetry_space_group_name_H-M   'P 1'
_cell_length_a   10.35309003
_cell_length_b   10.31332616
_cell_length_c   9.51787336
_cell_angle_alpha   89.98925564
_cell_angle_beta   89.97578903
_cell_angle_gamma   60.20477893
_symmetry_Int_Tables_number   1
_chemical_formula_structural   Sc4Al5N9
_chemical_formula_sum   'Sc16 Al20 N36'
_cell_volume   881.92514720
_cell_formula_units_Z   4
loop_
 _symmetry_equiv_pos_site_id
 _symmetry_equiv_pos_as_xyz
  1  'x, y, z'
loop_
 _atom_site_type_symbol
 _atom_site_label
 _atom_site_symmetry_multiplicity
 _atom_site_fract_x
 _atom_site_fract_y
 _atom_site_fract_z
 _atom_site_occupancy
  Sc  Sc0  1  0.11343178  0.08771815  0.34448796  1
  Sc  Sc1  1  0.22796141  0.20393602  0.10117723  1
  Sc  Sc2  1  0.88112970  0.20861294  0.60108488  1
  Sc  Sc3  1  0.22705434  0.20200915  0.61142260  1
  Sc  Sc4  1  0.11392613  0.43231406  0.35825831  1
  Sc  Sc5  1  0.22794112  0.54656051  0.09742062  1
  Sc  Sc6  1  0.55855409  0.52825985  0.09418896  1
  Sc  Sc7  1  0.10747696  0.43211183  0.85297319  1
  Sc  Sc8  1  0.23262573  0.54330034  0.60337252  1
  Sc  Sc9  1  0.76447395  0.43819671  0.35523602  1
  Sc  Sc10  1  0.78149240  0.76438880  0.84823100  1
  Sc  Sc11  1  0.55310167  0.87748324  0.09911273  1
  Sc  Sc12  1  0.22147529  0.86670368  0.59038440  1
  Sc  Sc13  1  0.78061049  0.76554517  0.34383165  1
  Sc  Sc14  1  0.43620065  0.75898329  0.85036046  1
  Sc  Sc15  1  0.55392765  0.86635543  0.59632175  1
  Al  Al16  1  0.77789276  0.09517753  0.83810608  1
  Al  Al17  1  0.44902029  0.09851453  0.37101692  1
  Al  Al18  1  0.56434415  0.20038569  0.12638164  1
  Al  Al19  1  0.09680362  0.09962229  0.87584125  1
  Al  Al20  1  0.77477014  0.09145660  0.34486757  1
  Al  Al21  1  0.88269032  0.20057969  0.12484857  1
  Al  Al22  1  0.45140318  0.09800738  0.87161351  1
  Al  Al23  1  0.56299069  0.20043426  0.61938602  1
  Al  Al24  1  0.78749658  0.41180614  0.87903209  1
  Al  Al25  1  0.88106692  0.54051984  0.62538674  1
  Al  Al26  1  0.45345013  0.42731285  0.37473600  1
  Al  Al27  1  0.89280823  0.53760622  0.11518985  1
  Al  Al28  1  0.45683049  0.40989885  0.87194057  1
  Al  Al29  1  0.56807468  0.52484851  0.63727439  1
  Al  Al30  1  0.11201235  0.76796448  0.32085238  1
  Al  Al31  1  0.20164022  0.87935335  0.06801744  1
  Al  Al32  1  0.88820029  0.87298438  0.57142032  1
  Al  Al33  1  0.42921691  0.76051102  0.31012465  1
  Al  Al34  1  0.09980537  0.77468293  0.82319504  1
  Al  Al35  1  0.89002569  0.88247413  0.07262198  1
  N  N36  1  0.24245767  0.19889685  0.33264942  1
  N  N37  1  0.09471595  0.09184665  0.09113333  1
  N  N38  1  0.88758396  0.20397518  0.83572537  1
  N  N39  1  0.77154905  0.08073877  0.60344120  1
  N  N40  1  0.55807359  0.20417624  0.32929076  1
  N  N41  1  0.45946608  0.10449344  0.07237636  1
  N  N42  1  0.22839422  0.18850929  0.84860750  1
  N  N43  1  0.10896386  0.09668223  0.57180181  1
  N  N44  1  0.87378242  0.20163219  0.33618500  1
  N  N45  1  0.77554704  0.09489431  0.10159149  1
  N  N46  1  0.55670578  0.20231099  0.82212476  1
  N  N47  1  0.45673985  0.10204969  0.57172535  1
  N  N48  1  0.23537398  0.54913556  0.34932482  1
  N  N49  1  0.10052597  0.43934511  0.08496427  1
  N  N50  1  0.87525172  0.52870628  0.83061160  1
  N  N51  1  0.76769806  0.44830204  0.57961974  1
  N  N52  1  0.53428749  0.54914435  0.31758246  1
  N  N53  1  0.45772746  0.39969022  0.07172953  1
  N  N54  1  0.23699900  0.55135951  0.84701533  1
  N  N55  1  0.09567031  0.43993296  0.59856468  1
  N  N56  1  0.88989256  0.53968045  0.31620494  1
  N  N57  1  0.79961480  0.41340334  0.08508356  1
  N  N58  1  0.57444301  0.50728887  0.84662194  1
  N  N59  1  0.47724044  0.41065457  0.57719249  1
  N  N60  1  0.23027715  0.85371508  0.36128400  1
  N  N61  1  0.09539704  0.78379334  0.11880184  1
  N  N62  1  0.89565088  0.88578196  0.87098739  1
  N  N63  1  0.79182679  0.75373923  0.59522390  1
  N  N64  1  0.53580367  0.87633608  0.33980412  1
  N  N65  1  0.41436806  0.77338146  0.09369329  1
  N  N66  1  0.19602255  0.88776362  0.85877475  1
  N  N67  1  0.08736477  0.77176880  0.62441721  1
  N  N68  1  0.90217857  0.88023474  0.36727751  1
  N  N69  1  0.79317644  0.75776655  0.09347434  1
  N  N70  1  0.54687839  0.88788640  0.84445025  1
  N  N71  1  0.45132875  0.73406348  0.62637293  1
