# generated using pymatgen
data_Sc4Al5N9
_symmetry_space_group_name_H-M   'P 1'
_cell_length_a   10.32957320
_cell_length_b   10.28870700
_cell_length_c   9.56103535
_cell_angle_alpha   89.87537721
_cell_angle_beta   89.79075651
_cell_angle_gamma   60.01182874
_symmetry_Int_Tables_number   1
_chemical_formula_structural   Sc4Al5N9
_chemical_formula_sum   'Sc16 Al20 N36'
_cell_volume   880.09094842
_cell_formula_units_Z   4
loop_
 _symmetry_equiv_pos_site_id
 _symmetry_equiv_pos_as_xyz
  1  'x, y, z'
loop_
 _atom_site_type_symbol
 _atom_site_label
 _atom_site_symmetry_multiplicity
 _atom_site_fract_x
 _atom_site_fract_y
 _atom_site_fract_z
 _atom_site_occupancy
  Sc  Sc0  1  0.10459805  0.08881744  0.32865651  1
  Sc  Sc1  1  0.22547307  0.19881906  0.07982345  1
  Sc  Sc2  1  0.87545481  0.20236744  0.59219051  1
  Sc  Sc3  1  0.22754526  0.20609693  0.58183257  1
  Sc  Sc4  1  0.11716132  0.43301989  0.33319444  1
  Sc  Sc5  1  0.23194371  0.54707063  0.07786422  1
  Sc  Sc6  1  0.56660776  0.52386957  0.08728710  1
  Sc  Sc7  1  0.10774318  0.43155596  0.83673509  1
  Sc  Sc8  1  0.23039376  0.54469503  0.58633573  1
  Sc  Sc9  1  0.77900882  0.42277358  0.33900853  1
  Sc  Sc10  1  0.78169938  0.76493161  0.83533711  1
  Sc  Sc11  1  0.55282390  0.87583184  0.08490208  1
  Sc  Sc12  1  0.22003470  0.86557982  0.58526463  1
  Sc  Sc13  1  0.77933561  0.76858335  0.33267811  1
  Sc  Sc14  1  0.44138964  0.75098406  0.84134812  1
  Sc  Sc15  1  0.55065464  0.87061787  0.58095251  1
  Al  Al16  1  0.77294047  0.09044025  0.82204690  1
  Al  Al17  1  0.45004579  0.09729741  0.31575506  1
  Al  Al18  1  0.56418385  0.20180790  0.06647818  1
  Al  Al19  1  0.10656443  0.09591484  0.81767394  1
  Al  Al20  1  0.77617603  0.09479324  0.31156234  1
  Al  Al21  1  0.88751307  0.20377449  0.05634418  1
  Al  Al22  1  0.44985144  0.09876014  0.81723118  1
  Al  Al23  1  0.56610923  0.19745824  0.56557627  1
  Al  Al24  1  0.77208434  0.42739759  0.81225313  1
  Al  Al25  1  0.88423675  0.54529950  0.58588350  1
  Al  Al26  1  0.44967977  0.42025156  0.32210503  1
  Al  Al27  1  0.89118201  0.53522784  0.08993250  1
  Al  Al28  1  0.46365645  0.41508167  0.81182717  1
  Al  Al29  1  0.55537289  0.53703321  0.56081437  1
  Al  Al30  1  0.11185766  0.76915862  0.31447626  1
  Al  Al31  1  0.20139743  0.88260208  0.05870015  1
  Al  Al32  1  0.88515076  0.87669638  0.56363478  1
  Al  Al33  1  0.42811166  0.76308250  0.30916745  1
  Al  Al34  1  0.09982605  0.77417308  0.81892701  1
  Al  Al35  1  0.89213066  0.88081655  0.07074137  1
  N  N36  1  0.23929982  0.19557433  0.34690882  1
  N  N37  1  0.09513703  0.08974200  0.10056215  1
  N  N38  1  0.88326670  0.20699679  0.84787495  1
  N  N39  1  0.76598815  0.07682768  0.62524724  1
  N  N40  1  0.56213010  0.19801731  0.36614848  1
  N  N41  1  0.45856979  0.10383736  0.11649609  1
  N  N42  1  0.23059645  0.19005612  0.84749062  1
  N  N43  1  0.10793099  0.09644559  0.61223861  1
  N  N44  1  0.87493837  0.19347006  0.37231058  1
  N  N45  1  0.77739053  0.09801276  0.10958281  1
  N  N46  1  0.55711791  0.20439930  0.86725672  1
  N  N47  1  0.45650671  0.10438169  0.61795323  1
  N  N48  1  0.23450249  0.55237129  0.34999092  1
  N  N49  1  0.10249298  0.43804846  0.08866548  1
  N  N50  1  0.87545024  0.53089454  0.84349516  1
  N  N51  1  0.76659964  0.44697705  0.59941356  1
  N  N52  1  0.53831897  0.54826713  0.35217208  1
  N  N53  1  0.46003818  0.40176323  0.12462872  1
  N  N54  1  0.24049947  0.54956071  0.84436978  1
  N  N55  1  0.09685173  0.44177957  0.59638623  1
  N  N56  1  0.89038450  0.54118130  0.34916588  1
  N  N57  1  0.80370744  0.41077868  0.11089477  1
  N  N58  1  0.57128554  0.51020113  0.86584803  1
  N  N59  1  0.47672099  0.40855805  0.60974568  1
  N  N60  1  0.22744212  0.85705174  0.36251409  1
  N  N61  1  0.09836974  0.78292001  0.11478975  1
  N  N62  1  0.89619706  0.88503332  0.87387809  1
  N  N63  1  0.78801782  0.75920961  0.59235536  1
  N  N64  1  0.53427997  0.87705665  0.34232053  1
  N  N65  1  0.41550044  0.76876249  0.09872696  1
  N  N66  1  0.19945022  0.88489968  0.85460313  1
  N  N67  1  0.08381971  0.77303230  0.62215632  1
  N  N68  1  0.90007657  0.88466905  0.36212074  1
  N  N69  1  0.79474339  0.75502407  0.09591819  1
  N  N70  1  0.54591368  0.88778543  0.85218768  1
  N  N71  1  0.45107512  0.73642374  0.61922829  1
