# generated using pymatgen
data_Sc4Al5N9
_symmetry_space_group_name_H-M   'P 1'
_cell_length_a   10.24755191
_cell_length_b   10.20410198
_cell_length_c   9.83381205
_cell_angle_alpha   89.97804774
_cell_angle_beta   90.17137122
_cell_angle_gamma   60.19465036
_symmetry_Int_Tables_number   1
_chemical_formula_structural   Sc4Al5N9
_chemical_formula_sum   'Sc16 Al20 N36'
_cell_volume   892.26323983
_cell_formula_units_Z   4
loop_
 _symmetry_equiv_pos_site_id
 _symmetry_equiv_pos_as_xyz
  1  'x, y, z'
loop_
 _atom_site_type_symbol
 _atom_site_label
 _atom_site_symmetry_multiplicity
 _atom_site_fract_x
 _atom_site_fract_y
 _atom_site_fract_z
 _atom_site_occupancy
  Sc  Sc0  1  0.11393330  0.08524600  0.34597479  1
  Sc  Sc1  1  0.22793434  0.20314351  0.10237408  1
  Sc  Sc2  1  0.87799605  0.20927376  0.61555018  1
  Sc  Sc3  1  0.22481207  0.20219345  0.62476634  1
  Sc  Sc4  1  0.11709053  0.42704396  0.36745867  1
  Sc  Sc5  1  0.22991179  0.54185755  0.10070139  1
  Sc  Sc6  1  0.55295927  0.53926252  0.10600317  1
  Sc  Sc7  1  0.10573260  0.43411268  0.85809221  1
  Sc  Sc8  1  0.23457320  0.54050301  0.60765846  1
  Sc  Sc9  1  0.77012423  0.43178296  0.36053084  1
  Sc  Sc10  1  0.77578456  0.76564593  0.87125221  1
  Sc  Sc11  1  0.54664303  0.87359187  0.12653313  1
  Sc  Sc12  1  0.21059575  0.87447125  0.59572340  1
  Sc  Sc13  1  0.78693506  0.76278522  0.36606563  1
  Sc  Sc14  1  0.43789184  0.76069627  0.84643871  1
  Sc  Sc15  1  0.55726902  0.87609156  0.60539861  1
  Al  Al16  1  0.77572811  0.09803351  0.88143214  1
  Al  Al17  1  0.44781319  0.10170971  0.37701170  1
  Al  Al18  1  0.56621281  0.19864030  0.12868196  1
  Al  Al19  1  0.09395018  0.10262204  0.88229785  1
  Al  Al20  1  0.77464055  0.08928123  0.37687661  1
  Al  Al21  1  0.88078323  0.20060747  0.12774350  1
  Al  Al22  1  0.45386082  0.09601775  0.87766474  1
  Al  Al23  1  0.56418834  0.20194314  0.62548386  1
  Al  Al24  1  0.78336355  0.41618276  0.88400968  1
  Al  Al25  1  0.88067188  0.54166349  0.63192386  1
  Al  Al26  1  0.45571373  0.42332402  0.37678236  1
  Al  Al27  1  0.89223933  0.53777245  0.12330215  1
  Al  Al28  1  0.45887321  0.41201967  0.87532522  1
  Al  Al29  1  0.57062537  0.52278772  0.63543800  1
  Al  Al30  1  0.11928908  0.76489617  0.31624824  1
  Al  Al31  1  0.20640934  0.87627328  0.05794279  1
  Al  Al32  1  0.87883804  0.87797461  0.63273395  1
  Al  Al33  1  0.44171963  0.74862409  0.38938684  1
  Al  Al34  1  0.10111112  0.77133926  0.82252300  1
  Al  Al35  1  0.88763385  0.88211499  0.12618245  1
  N  N36  1  0.24448248  0.19575046  0.32273488  1
  N  N37  1  0.09437678  0.09007823  0.08642586  1
  N  N38  1  0.88448517  0.20611416  0.83646018  1
  N  N39  1  0.76838320  0.08016117  0.57077674  1
  N  N40  1  0.56040294  0.20210579  0.32265765  1
  N  N41  1  0.46371632  0.09823452  0.06972991  1
  N  N42  1  0.22772465  0.18876682  0.85066029  1
  N  N43  1  0.10199899  0.10462325  0.56556364  1
  N  N44  1  0.87211342  0.19756833  0.32433289  1
  N  N45  1  0.77578952  0.09463931  0.07495312  1
  N  N46  1  0.56017422  0.20195161  0.82056176  1
  N  N47  1  0.45050782  0.11306761  0.56902011  1
  N  N48  1  0.23741428  0.54522527  0.34403509  1
  N  N49  1  0.09769361  0.43990546  0.07840622  1
  N  N50  1  0.87223726  0.53114864  0.82699376  1
  N  N51  1  0.77062608  0.44641462  0.57683915  1
  N  N52  1  0.53656443  0.54895556  0.32245578  1
  N  N53  1  0.46255305  0.39954253  0.06788046  1
  N  N54  1  0.23864462  0.54977762  0.84454821  1
  N  N55  1  0.09577785  0.43889197  0.59903711  1
  N  N56  1  0.89325051  0.53714518  0.31520304  1
  N  N57  1  0.79618560  0.41657234  0.08260739  1
  N  N58  1  0.57283128  0.51101709  0.83596774  1
  N  N59  1  0.47962447  0.40953578  0.57267416  1
  N  N60  1  0.23275244  0.85079042  0.37257166  1
  N  N61  1  0.10197819  0.78003611  0.11259819  1
  N  N62  1  0.88622623  0.88958977  0.83243782  1
  N  N63  1  0.79464434  0.75281226  0.59108612  1
  N  N64  1  0.53868626  0.87517446  0.35382359  1
  N  N65  1  0.41756003  0.77408603  0.06566487  1
  N  N66  1  0.19333731  0.89030975  0.85114286  1
  N  N67  1  0.08754500  0.76875126  0.62437592  1
  N  N68  1  0.90013473  0.88294027  0.32302495  1
  N  N69  1  0.78845842  0.75857801  0.09453419  1
  N  N70  1  0.54529898  0.89158427  0.82729145  1
  N  N71  1  0.45289860  0.73517941  0.59908942  1
