# generated using pymatgen
data_Sc4Al5N9
_symmetry_space_group_name_H-M   'P 1'
_cell_length_a   10.37949025
_cell_length_b   10.33525379
_cell_length_c   9.45291883
_cell_angle_alpha   90.20282218
_cell_angle_beta   89.98381382
_cell_angle_gamma   60.02425827
_symmetry_Int_Tables_number   1
_chemical_formula_structural   Sc4Al5N9
_chemical_formula_sum   'Sc16 Al20 N36'
_cell_volume   878.40722721
_cell_formula_units_Z   4
loop_
 _symmetry_equiv_pos_site_id
 _symmetry_equiv_pos_as_xyz
  1  'x, y, z'
loop_
 _atom_site_type_symbol
 _atom_site_label
 _atom_site_symmetry_multiplicity
 _atom_site_fract_x
 _atom_site_fract_y
 _atom_site_fract_z
 _atom_site_occupancy
  Sc  Sc0  1  0.10393687  0.08880315  0.34328498  1
  Sc  Sc1  1  0.22391126  0.20027525  0.09778328  1
  Sc  Sc2  1  0.86895819  0.21477323  0.60099329  1
  Sc  Sc3  1  0.22624801  0.20613256  0.60047934  1
  Sc  Sc4  1  0.11501594  0.43415403  0.35155267  1
  Sc  Sc5  1  0.23134452  0.54621406  0.08833545  1
  Sc  Sc6  1  0.55865767  0.52742394  0.10062357  1
  Sc  Sc7  1  0.10975593  0.43114615  0.84994849  1
  Sc  Sc8  1  0.23114977  0.54484921  0.59615518  1
  Sc  Sc9  1  0.77840619  0.42672778  0.34604661  1
  Sc  Sc10  1  0.78247411  0.76498316  0.85050419  1
  Sc  Sc11  1  0.55158358  0.87605472  0.09982417  1
  Sc  Sc12  1  0.21871067  0.86626542  0.59542011  1
  Sc  Sc13  1  0.77993344  0.76710557  0.34636582  1
  Sc  Sc14  1  0.44203589  0.74844488  0.84967310  1
  Sc  Sc15  1  0.55378677  0.86694984  0.59980520  1
  Al  Al16  1  0.77490410  0.09002561  0.82765678  1
  Al  Al17  1  0.44884353  0.09469767  0.36685567  1
  Al  Al18  1  0.56517382  0.20192339  0.07311434  1
  Al  Al19  1  0.10514046  0.09557341  0.82563527  1
  Al  Al20  1  0.77603546  0.09436586  0.31966756  1
  Al  Al21  1  0.89120182  0.19495372  0.07116636  1
  Al  Al22  1  0.44869558  0.09740403  0.86383264  1
  Al  Al23  1  0.56861421  0.19776065  0.57291108  1
  Al  Al24  1  0.78045172  0.42113217  0.87890214  1
  Al  Al25  1  0.88016302  0.54251388  0.62388903  1
  Al  Al26  1  0.44922263  0.41878583  0.33041094  1
  Al  Al27  1  0.89469078  0.53867687  0.11507817  1
  Al  Al28  1  0.46663574  0.41503221  0.81745299  1
  Al  Al29  1  0.55823153  0.53744296  0.56553722  1
  Al  Al30  1  0.11128608  0.76913509  0.32251758  1
  Al  Al31  1  0.20125232  0.88282769  0.06708024  1
  Al  Al32  1  0.88629335  0.87650613  0.57257111  1
  Al  Al33  1  0.42624260  0.76448470  0.31850295  1
  Al  Al34  1  0.10047693  0.77352767  0.82741286  1
  Al  Al35  1  0.89187475  0.88054852  0.07833229  1
  N  N36  1  0.23811218  0.19703816  0.34809361  1
  N  N37  1  0.09646666  0.08818860  0.11011581  1
  N  N38  1  0.88586627  0.20329532  0.85807349  1
  N  N39  1  0.76846825  0.07866243  0.62831240  1
  N  N40  1  0.56353046  0.19813443  0.36731048  1
  N  N41  1  0.45567309  0.10312669  0.08584575  1
  N  N42  1  0.22972363  0.19000162  0.84956675  1
  N  N43  1  0.10302033  0.09889811  0.61474527  1
  N  N44  1  0.87278853  0.19728283  0.37192602  1
  N  N45  1  0.77708745  0.09607000  0.11530717  1
  N  N46  1  0.55999921  0.20514059  0.86704795  1
  N  N47  1  0.45668074  0.10106146  0.58964986  1
  N  N48  1  0.23375944  0.55203850  0.35515914  1
  N  N49  1  0.10356110  0.43806356  0.08780139  1
  N  N50  1  0.87611064  0.52934728  0.83309092  1
  N  N51  1  0.76670450  0.45233009  0.57818642  1
  N  N52  1  0.53680952  0.54918950  0.35158396  1
  N  N53  1  0.45848604  0.40048433  0.12992268  1
  N  N54  1  0.24254319  0.54852376  0.84944833  1
  N  N55  1  0.09471262  0.44298518  0.59900066  1
  N  N56  1  0.89164783  0.54150994  0.31851645  1
  N  N57  1  0.80200304  0.41281188  0.09266843  1
  N  N58  1  0.57236231  0.50998342  0.87443278  1
  N  N59  1  0.47860582  0.40910186  0.61191867  1
  N  N60  1  0.22642057  0.85699933  0.36977496  1
  N  N61  1  0.09819535  0.78275913  0.11956807  1
  N  N62  1  0.89669970  0.88534385  0.87807870  1
  N  N63  1  0.79146950  0.75606497  0.59730216  1
  N  N64  1  0.53502792  0.87623081  0.34640411  1
  N  N65  1  0.41359903  0.77045849  0.10445798  1
  N  N66  1  0.19956292  0.88514552  0.85979515  1
  N  N67  1  0.08497330  0.77178444  0.62781568  1
  N  N68  1  0.89981720  0.88416954  0.36750544  1
  N  N69  1  0.79276965  0.75864904  0.09687846  1
  N  N70  1  0.54713732  0.88480883  0.85028247  1
  N  N71  1  0.44933309  0.73557460  0.62417884  1
