# generated using pymatgen
data_Sc4Al5N9
_symmetry_space_group_name_H-M   'P 1'
_cell_length_a   10.30909835
_cell_length_b   10.27021684
_cell_length_c   9.61033070
_cell_angle_alpha   89.91699553
_cell_angle_beta   89.83528033
_cell_angle_gamma   60.02435201
_symmetry_Int_Tables_number   1
_chemical_formula_structural   Sc4Al5N9
_chemical_formula_sum   'Sc16 Al20 N36'
_cell_volume   881.40190278
_cell_formula_units_Z   4
loop_
 _symmetry_equiv_pos_site_id
 _symmetry_equiv_pos_as_xyz
  1  'x, y, z'
loop_
 _atom_site_type_symbol
 _atom_site_label
 _atom_site_symmetry_multiplicity
 _atom_site_fract_x
 _atom_site_fract_y
 _atom_site_fract_z
 _atom_site_occupancy
  Sc  Sc0  1  0.10450182  0.08894419  0.32809021  1
  Sc  Sc1  1  0.22543679  0.19882080  0.07848209  1
  Sc  Sc2  1  0.87517818  0.20349798  0.59229411  1
  Sc  Sc3  1  0.22712726  0.20693564  0.58044415  1
  Sc  Sc4  1  0.11509113  0.43374052  0.32719501  1
  Sc  Sc5  1  0.23159926  0.54706874  0.07659222  1
  Sc  Sc6  1  0.56652095  0.52387658  0.08684349  1
  Sc  Sc7  1  0.10850706  0.43123468  0.83368205  1
  Sc  Sc8  1  0.23010477  0.54431894  0.58519797  1
  Sc  Sc9  1  0.77967770  0.42285704  0.33667085  1
  Sc  Sc10  1  0.78171210  0.76490586  0.83127844  1
  Sc  Sc11  1  0.55346802  0.87554415  0.08374533  1
  Sc  Sc12  1  0.22002836  0.86563210  0.58458543  1
  Sc  Sc13  1  0.78022125  0.76705176  0.32889599  1
  Sc  Sc14  1  0.44130839  0.75112424  0.84083185  1
  Sc  Sc15  1  0.55096356  0.87053545  0.57953804  1
  Al  Al16  1  0.77306400  0.09059545  0.82159701  1
  Al  Al17  1  0.45004941  0.09741737  0.31511384  1
  Al  Al18  1  0.56418244  0.20180237  0.06614471  1
  Al  Al19  1  0.10661503  0.09591086  0.81709683  1
  Al  Al20  1  0.77603910  0.09479414  0.31154204  1
  Al  Al21  1  0.88750939  0.20364841  0.05634938  1
  Al  Al22  1  0.44986966  0.09871397  0.81651560  1
  Al  Al23  1  0.56612332  0.19756260  0.56529870  1
  Al  Al24  1  0.77250142  0.42846622  0.81151598  1
  Al  Al25  1  0.88511896  0.54584130  0.56911606  1
  Al  Al26  1  0.44953898  0.42024397  0.32180517  1
  Al  Al27  1  0.88949062  0.53353073  0.06585252  1
  Al  Al28  1  0.46384118  0.41519048  0.81147113  1
  Al  Al29  1  0.55641993  0.53685952  0.56128244  1
  Al  Al30  1  0.11178137  0.76898877  0.31412688  1
  Al  Al31  1  0.20134272  0.88257833  0.05845860  1
  Al  Al32  1  0.88488619  0.87669019  0.56340730  1
  Al  Al33  1  0.42834673  0.76298974  0.30884547  1
  Al  Al34  1  0.09982037  0.77410623  0.81827741  1
  Al  Al35  1  0.89194489  0.88028519  0.07016560  1
  N  N36  1  0.23884165  0.19654564  0.34719955  1
  N  N37  1  0.09519700  0.08965461  0.10135353  1
  N  N38  1  0.88348494  0.20726399  0.84860299  1
  N  N39  1  0.76613406  0.07707182  0.62569786  1
  N  N40  1  0.56198485  0.19817796  0.36670282  1
  N  N41  1  0.45858357  0.10377077  0.11706083  1
  N  N42  1  0.23081150  0.18991762  0.84801930  1
  N  N43  1  0.10803226  0.09660152  0.61291540  1
  N  N44  1  0.87458599  0.19395660  0.37335276  1
  N  N45  1  0.77745818  0.09776361  0.11033236  1
  N  N46  1  0.55713354  0.20444583  0.86773942  1
  N  N47  1  0.45634546  0.10447575  0.61834312  1
  N  N48  1  0.23375328  0.55181340  0.35049977  1
  N  N49  1  0.10140185  0.43849664  0.09041484  1
  N  N50  1  0.87482546  0.53020909  0.86283692  1
  N  N51  1  0.76747153  0.44843509  0.60433538  1
  N  N52  1  0.53883868  0.54802266  0.35321466  1
  N  N53  1  0.45978638  0.40188559  0.12528402  1
  N  N54  1  0.24056798  0.54954533  0.84486405  1
  N  N55  1  0.09628765  0.44201995  0.60231655  1
  N  N56  1  0.89025461  0.54109552  0.36842285  1
  N  N57  1  0.80412589  0.41049149  0.11379706  1
  N  N58  1  0.57158587  0.51025728  0.86674394  1
  N  N59  1  0.47696108  0.40867827  0.61041336  1
  N  N60  1  0.22753874  0.85693892  0.36290808  1
  N  N61  1  0.09829686  0.78292105  0.11544225  1
  N  N62  1  0.89591148  0.88480167  0.87429028  1
  N  N63  1  0.78813089  0.75931879  0.59613642  1
  N  N64  1  0.53491553  0.87685977  0.34242057  1
  N  N65  1  0.41556471  0.76874254  0.09925381  1
  N  N66  1  0.19926602  0.88498805  0.85522885  1
  N  N67  1  0.08388657  0.77292648  0.62253555  1
  N  N68  1  0.89965332  0.88429807  0.36289909  1
  N  N69  1  0.79564121  0.75360063  0.09771998  1
  N  N70  1  0.54623439  0.88779430  0.85275992  1
  N  N71  1  0.45112368  0.73660061  0.61977915  1
