# generated using pymatgen
data_Sc4Al5N9
_symmetry_space_group_name_H-M   'P 1'
_cell_length_a   10.32603785
_cell_length_b   10.28454869
_cell_length_c   9.59327987
_cell_angle_alpha   89.93534544
_cell_angle_beta   89.77999941
_cell_angle_gamma   60.00871761
_symmetry_Int_Tables_number   1
_chemical_formula_structural   Sc4Al5N9
_chemical_formula_sum   'Sc16 Al20 N36'
_cell_volume   882.37147174
_cell_formula_units_Z   4
loop_
 _symmetry_equiv_pos_site_id
 _symmetry_equiv_pos_as_xyz
  1  'x, y, z'
loop_
 _atom_site_type_symbol
 _atom_site_label
 _atom_site_symmetry_multiplicity
 _atom_site_fract_x
 _atom_site_fract_y
 _atom_site_fract_z
 _atom_site_occupancy
  Sc  Sc0  1  0.10458127  0.08863699  0.33656362  1
  Sc  Sc1  1  0.22546424  0.19878675  0.08728017  1
  Sc  Sc2  1  0.87192890  0.20960270  0.59967935  1
  Sc  Sc3  1  0.22739030  0.20575237  0.58952703  1
  Sc  Sc4  1  0.11659925  0.43330313  0.34701876  1
  Sc  Sc5  1  0.23132339  0.54672471  0.08480253  1
  Sc  Sc6  1  0.56204585  0.52604426  0.09724348  1
  Sc  Sc7  1  0.10964524  0.43054113  0.84688126  1
  Sc  Sc8  1  0.23027040  0.54477387  0.59395665  1
  Sc  Sc9  1  0.77792275  0.42544165  0.34845104  1
  Sc  Sc10  1  0.78151722  0.76619198  0.84709700  1
  Sc  Sc11  1  0.55270638  0.87586463  0.09224410  1
  Sc  Sc12  1  0.21954590  0.86594009  0.59174999  1
  Sc  Sc13  1  0.77977830  0.76791833  0.34225048  1
  Sc  Sc14  1  0.44190994  0.75038349  0.84750248  1
  Sc  Sc15  1  0.55175324  0.86942645  0.58820282  1
  Al  Al16  1  0.77337508  0.09022356  0.82698736  1
  Al  Al17  1  0.45002951  0.09726393  0.32245651  1
  Al  Al18  1  0.56423975  0.20124258  0.07280969  1
  Al  Al19  1  0.10699538  0.09500062  0.82326217  1
  Al  Al20  1  0.77612163  0.09470677  0.31905597  1
  Al  Al21  1  0.88991260  0.19794291  0.06605539  1
  Al  Al22  1  0.45017366  0.09836570  0.82357996  1
  Al  Al23  1  0.56622358  0.19747165  0.57204227  1
  Al  Al24  1  0.77774417  0.42210408  0.86244087  1
  Al  Al25  1  0.88027541  0.54306984  0.62257500  1
  Al  Al26  1  0.44889823  0.41980807  0.32853858  1
  Al  Al27  1  0.89430647  0.53688758  0.11741362  1
  Al  Al28  1  0.46442280  0.41497700  0.81775479  1
  Al  Al29  1  0.55692193  0.53696836  0.56650720  1
  Al  Al30  1  0.11165450  0.76918014  0.32089226  1
  Al  Al31  1  0.20144202  0.88244581  0.06532172  1
  Al  Al32  1  0.88542385  0.87655182  0.57058552  1
  Al  Al33  1  0.42726959  0.76399103  0.31561987  1
  Al  Al34  1  0.10029510  0.77412896  0.82513716  1
  Al  Al35  1  0.89193611  0.88096192  0.07661072  1
  N  N36  1  0.23927349  0.19571693  0.35404210  1
  N  N37  1  0.09603011  0.08880798  0.10955106  1
  N  N38  1  0.88528074  0.20346853  0.85672807  1
  N  N39  1  0.76654859  0.07789952  0.63102769  1
  N  N40  1  0.56180382  0.19799078  0.37336109  1
  N  N41  1  0.45855041  0.10370510  0.12377819  1
  N  N42  1  0.23077668  0.18931548  0.85391450  1
  N  N43  1  0.10615642  0.09745752  0.61904735  1
  N  N44  1  0.87423659  0.19529709  0.37623281  1
  N  N45  1  0.77716675  0.09708443  0.11761002  1
  N  N46  1  0.55771102  0.20404791  0.87404659  1
  N  N47  1  0.45686249  0.10399309  0.62507129  1
  N  N48  1  0.23392508  0.55245262  0.35686700  1
  N  N49  1  0.10386166  0.43709275  0.08759830  1
  N  N50  1  0.87566477  0.53058187  0.82894757  1
  N  N51  1  0.76669363  0.44930032  0.58469672  1
  N  N52  1  0.53688604  0.54881426  0.35490363  1
  N  N53  1  0.45900308  0.40078607  0.13175802  1
  N  N54  1  0.24084125  0.54924110  0.85026102  1
  N  N55  1  0.09473559  0.44258023  0.59792191  1
  N  N56  1  0.89143885  0.54066900  0.31963853  1
  N  N57  1  0.80254147  0.41244542  0.09524993  1
  N  N58  1  0.57010556  0.51068241  0.87456022  1
  N  N59  1  0.47737793  0.40877421  0.61634498  1
  N  N60  1  0.22716458  0.85687472  0.37007771  1
  N  N61  1  0.09805586  0.78305389  0.12170587  1
  N  N62  1  0.89676717  0.88581116  0.87995336  1
  N  N63  1  0.78936165  0.75710390  0.59600679  1
  N  N64  1  0.53477678  0.87659751  0.34902406  1
  N  N65  1  0.41442249  0.77007793  0.10577355  1
  N  N66  1  0.19976619  0.88473899  0.86182463  1
  N  N67  1  0.08405835  0.77286954  0.62933918  1
  N  N68  1  0.90018874  0.88440607  0.36939691  1
  N  N69  1  0.79394418  0.75729574  0.09727073  1
  N  N70  1  0.54610986  0.88758551  0.85898907  1
  N  N71  1  0.45068365  0.73630220  0.62609248  1
