# generated using pymatgen
data_Sc4Al5N9
_symmetry_space_group_name_H-M   'P 1'
_cell_length_a   10.34216742
_cell_length_b   10.30255985
_cell_length_c   9.54493329
_cell_angle_alpha   90.01649649
_cell_angle_beta   90.10293785
_cell_angle_gamma   60.20229129
_symmetry_Int_Tables_number   1
_chemical_formula_structural   Sc4Al5N9
_chemical_formula_sum   'Sc16 Al20 N36'
_cell_volume   882.55362559
_cell_formula_units_Z   4
loop_
 _symmetry_equiv_pos_site_id
 _symmetry_equiv_pos_as_xyz
  1  'x, y, z'
loop_
 _atom_site_type_symbol
 _atom_site_label
 _atom_site_symmetry_multiplicity
 _atom_site_fract_x
 _atom_site_fract_y
 _atom_site_fract_z
 _atom_site_occupancy
  Sc  Sc0  1  0.11093274  0.08870933  0.34440385  1
  Sc  Sc1  1  0.22828950  0.20353208  0.10151338  1
  Sc  Sc2  1  0.87971546  0.20782426  0.60739135  1
  Sc  Sc3  1  0.22617727  0.20233581  0.61154614  1
  Sc  Sc4  1  0.11444505  0.43221380  0.35834730  1
  Sc  Sc5  1  0.22983937  0.54452341  0.09656839  1
  Sc  Sc6  1  0.55892237  0.52894099  0.09444021  1
  Sc  Sc7  1  0.10796178  0.43203918  0.85305928  1
  Sc  Sc8  1  0.23312705  0.54335044  0.60330104  1
  Sc  Sc9  1  0.76499616  0.43642227  0.35634186  1
  Sc  Sc10  1  0.78137447  0.76370355  0.85388248  1
  Sc  Sc11  1  0.55262705  0.87823492  0.10155475  1
  Sc  Sc12  1  0.22085296  0.86742419  0.58957901  1
  Sc  Sc13  1  0.78098512  0.76502699  0.34788937  1
  Sc  Sc14  1  0.43645124  0.75928159  0.85009261  1
  Sc  Sc15  1  0.55332798  0.86736914  0.59827925  1
  Al  Al16  1  0.77655081  0.09919996  0.87685134  1
  Al  Al17  1  0.44894947  0.09911510  0.37182392  1
  Al  Al18  1  0.56502552  0.20075614  0.12770886  1
  Al  Al19  1  0.09672093  0.10029550  0.87645166  1
  Al  Al20  1  0.77264069  0.09151127  0.37241441  1
  Al  Al21  1  0.88140790  0.20094838  0.12722148  1
  Al  Al22  1  0.45251903  0.09800936  0.87135860  1
  Al  Al23  1  0.56483805  0.19963683  0.62122023  1
  Al  Al24  1  0.78777379  0.41237696  0.87976745  1
  Al  Al25  1  0.88148332  0.53991502  0.62616996  1
  Al  Al26  1  0.45417209  0.42678224  0.37450124  1
  Al  Al27  1  0.89305937  0.53655855  0.11713113  1
  Al  Al28  1  0.45823000  0.40953221  0.87090186  1
  Al  Al29  1  0.56832643  0.52498350  0.63729304  1
  Al  Al30  1  0.11295517  0.76745840  0.31735758  1
  Al  Al31  1  0.20272435  0.87979556  0.06650342  1
  Al  Al32  1  0.88540028  0.87291352  0.58723015  1
  Al  Al33  1  0.42918163  0.76100319  0.31061863  1
  Al  Al34  1  0.09996669  0.77495528  0.82489437  1
  Al  Al35  1  0.88996875  0.88002629  0.08752346  1
  N  N36  1  0.24209810  0.19850941  0.33241981  1
  N  N37  1  0.09405611  0.09222111  0.09067652  1
  N  N38  1  0.88691289  0.20389216  0.83585080  1
  N  N39  1  0.76842224  0.08181173  0.57492316  1
  N  N40  1  0.55889103  0.20360971  0.32666589  1
  N  N41  1  0.46002388  0.10510559  0.07117719  1
  N  N42  1  0.22852777  0.18865931  0.84813735  1
  N  N43  1  0.10634981  0.09805931  0.57109871  1
  N  N44  1  0.87084300  0.20022631  0.33155472  1
  N  N45  1  0.77357769  0.09910335  0.07981005  1
  N  N46  1  0.56148042  0.20033949  0.82110651  1
  N  N47  1  0.45613724  0.10337506  0.57228208  1
  N  N48  1  0.23620138  0.54882662  0.34782942  1
  N  N49  1  0.10054185  0.43905504  0.08465281  1
  N  N50  1  0.87602137  0.52798716  0.82964584  1
  N  N51  1  0.76841599  0.44692157  0.57995299  1
  N  N52  1  0.53454079  0.54930349  0.31733101  1
  N  N53  1  0.45935833  0.39928712  0.06990188  1
  N  N54  1  0.23824132  0.55042619  0.84555019  1
  N  N55  1  0.09596375  0.44027896  0.59819684  1
  N  N56  1  0.89015260  0.53855543  0.31695607  1
  N  N57  1  0.79982747  0.41346371  0.08472391  1
  N  N58  1  0.57495254  0.50777093  0.84615908  1
  N  N59  1  0.47807556  0.41006165  0.57678853  1
  N  N60  1  0.22976059  0.85427993  0.36065319  1
  N  N61  1  0.09909288  0.78127193  0.11346198  1
  N  N62  1  0.89382095  0.88602039  0.86476243  1
  N  N63  1  0.79155435  0.75345136  0.59463593  1
  N  N64  1  0.53537107  0.87724070  0.34052395  1
  N  N65  1  0.41488765  0.77403979  0.09362395  1
  N  N66  1  0.19638625  0.88860352  0.85795554  1
  N  N67  1  0.08723847  0.77240718  0.62383826  1
  N  N68  1  0.90111526  0.87987898  0.34692576  1
  N  N69  1  0.79239150  0.75616291  0.09320023  1
  N  N70  1  0.54663202  0.88823692  0.84374706  1
  N  N71  1  0.45106872  0.73438166  0.62613460  1
