# generated using pymatgen
data_Sc4Al5N9
_symmetry_space_group_name_H-M   'P 1'
_cell_length_a   10.41445075
_cell_length_b   10.38386469
_cell_length_c   9.32627089
_cell_angle_alpha   90.19936332
_cell_angle_beta   90.01958436
_cell_angle_gamma   60.10227928
_symmetry_Int_Tables_number   1
_chemical_formula_structural   Sc4Al5N9
_chemical_formula_sum   'Sc16 Al20 N36'
_cell_volume   874.33433904
_cell_formula_units_Z   4
loop_
 _symmetry_equiv_pos_site_id
 _symmetry_equiv_pos_as_xyz
  1  'x, y, z'
loop_
 _atom_site_type_symbol
 _atom_site_label
 _atom_site_symmetry_multiplicity
 _atom_site_fract_x
 _atom_site_fract_y
 _atom_site_fract_z
 _atom_site_occupancy
  Sc  Sc0  1  0.10552020  0.08879345  0.34320321  1
  Sc  Sc1  1  0.22452680  0.20031575  0.09745343  1
  Sc  Sc2  1  0.87019786  0.21274895  0.60009908  1
  Sc  Sc3  1  0.22705187  0.20551552  0.60079657  1
  Sc  Sc4  1  0.11414248  0.43355186  0.35053559  1
  Sc  Sc5  1  0.22906137  0.54701148  0.09374641  1
  Sc  Sc6  1  0.55823567  0.52918490  0.10069748  1
  Sc  Sc7  1  0.10913246  0.43103641  0.84987324  1
  Sc  Sc8  1  0.23158028  0.54423281  0.59650857  1
  Sc  Sc9  1  0.77869530  0.42649165  0.34503452  1
  Sc  Sc10  1  0.78217166  0.76495942  0.84928093  1
  Sc  Sc11  1  0.55127528  0.87704272  0.09918418  1
  Sc  Sc12  1  0.21883779  0.86632353  0.59545496  1
  Sc  Sc13  1  0.78057678  0.76607780  0.34493840  1
  Sc  Sc14  1  0.44215998  0.74990513  0.84821546  1
  Sc  Sc15  1  0.55405478  0.86789768  0.59827408  1
  Al  Al16  1  0.77593844  0.08996148  0.83212134  1
  Al  Al17  1  0.45026979  0.09554042  0.37122051  1
  Al  Al18  1  0.56353362  0.19835265  0.12308968  1
  Al  Al19  1  0.10529753  0.09568057  0.82751305  1
  Al  Al20  1  0.78013233  0.09070642  0.32386001  1
  Al  Al21  1  0.89040232  0.19620364  0.07217087  1
  Al  Al22  1  0.44952550  0.09890949  0.86860055  1
  Al  Al23  1  0.56423878  0.19909232  0.61620396  1
  Al  Al24  1  0.77921751  0.42109239  0.87348898  1
  Al  Al25  1  0.88072002  0.54197343  0.62213184  1
  Al  Al26  1  0.45042805  0.42067972  0.34713782  1
  Al  Al27  1  0.89349980  0.53807867  0.11142819  1
  Al  Al28  1  0.45890121  0.41749626  0.84330815  1
  Al  Al29  1  0.55923468  0.53684821  0.56881137  1
  Al  Al30  1  0.11160020  0.76936305  0.32227295  1
  Al  Al31  1  0.20220129  0.88304417  0.06710166  1
  Al  Al32  1  0.88752587  0.87488999  0.57329452  1
  Al  Al33  1  0.42758460  0.76502186  0.31933532  1
  Al  Al34  1  0.10064545  0.77339585  0.82851074  1
  Al  Al35  1  0.89208243  0.88024241  0.07835291  1
  N  N36  1  0.23928722  0.19682225  0.34475289  1
  N  N37  1  0.09700688  0.08893359  0.10504656  1
  N  N38  1  0.88554224  0.20371296  0.85591182  1
  N  N39  1  0.77167442  0.07680413  0.62408412  1
  N  N40  1  0.56349178  0.19431152  0.33588521  1
  N  N41  1  0.45650897  0.10395613  0.07681734  1
  N  N42  1  0.22999588  0.19027260  0.84737415  1
  N  N43  1  0.10391630  0.09854195  0.61089357  1
  N  N44  1  0.87435140  0.19709258  0.36687799  1
  N  N45  1  0.77868940  0.09471240  0.10984142  1
  N  N46  1  0.55448784  0.20617307  0.83297746  1
  N  N47  1  0.45740633  0.10136589  0.57933460  1
  N  N48  1  0.23212860  0.55259739  0.35033441  1
  N  N49  1  0.10277414  0.43722998  0.08871516  1
  N  N50  1  0.87598594  0.52991387  0.83523979  1
  N  N51  1  0.76746259  0.45025069  0.58149959  1
  N  N52  1  0.53896323  0.55069878  0.34754345  1
  N  N53  1  0.45698569  0.40370354  0.11457181  1
  N  N54  1  0.24084673  0.54901754  0.84909235  1
  N  N55  1  0.09506308  0.44188766  0.59867252  1
  N  N56  1  0.89098346  0.54117658  0.31918376  1
  N  N57  1  0.80039944  0.41303983  0.09095199  1
  N  N58  1  0.57113230  0.51123751  0.86703686  1
  N  N59  1  0.47496530  0.41000206  0.58605688  1
  N  N60  1  0.22672010  0.85746143  0.36583907  1
  N  N61  1  0.09837195  0.78349827  0.11580797  1
  N  N62  1  0.89658160  0.88419471  0.87490196  1
  N  N63  1  0.79196173  0.75507499  0.59637252  1
  N  N64  1  0.53564090  0.87701578  0.34404186  1
  N  N65  1  0.41439042  0.77173106  0.10131899  1
  N  N66  1  0.20019777  0.88483003  0.85659213  1
  N  N67  1  0.08650481  0.77059161  0.62516883  1
  N  N68  1  0.90124558  0.88209089  0.36473643  1
  N  N69  1  0.79228706  0.75863070  0.09603820  1
  N  N70  1  0.54686717  0.88633844  0.84673648  1
  N  N71  1  0.44983471  0.73694158  0.61900121  1
