# generated using pymatgen
data_Sc4Al5N9
_symmetry_space_group_name_H-M   'P 1'
_cell_length_a   10.41221885
_cell_length_b   10.37983405
_cell_length_c   9.33748399
_cell_angle_alpha   90.19095648
_cell_angle_beta   90.04261681
_cell_angle_gamma   60.09727234
_symmetry_Int_Tables_number   1
_chemical_formula_structural   Sc4Al5N9
_chemical_formula_sum   'Sc16 Al20 N36'
_cell_volume   874.81535591
_cell_formula_units_Z   4
loop_
 _symmetry_equiv_pos_site_id
 _symmetry_equiv_pos_as_xyz
  1  'x, y, z'
loop_
 _atom_site_type_symbol
 _atom_site_label
 _atom_site_symmetry_multiplicity
 _atom_site_fract_x
 _atom_site_fract_y
 _atom_site_fract_z
 _atom_site_occupancy
  Sc  Sc0  1  0.10548034  0.08883240  0.34310321  1
  Sc  Sc1  1  0.22447156  0.20026966  0.09753421  1
  Sc  Sc2  1  0.87014065  0.21266792  0.59990426  1
  Sc  Sc3  1  0.22728265  0.20542005  0.60092107  1
  Sc  Sc4  1  0.11430974  0.43354477  0.35134701  1
  Sc  Sc5  1  0.22755504  0.54783845  0.09565526  1
  Sc  Sc6  1  0.55876962  0.53003859  0.10160720  1
  Sc  Sc7  1  0.10904578  0.43107934  0.85027036  1
  Sc  Sc8  1  0.23314023  0.54324983  0.59917568  1
  Sc  Sc9  1  0.77870008  0.42655839  0.34533915  1
  Sc  Sc10  1  0.78215253  0.76489333  0.84920487  1
  Sc  Sc11  1  0.55130535  0.87699315  0.09902179  1
  Sc  Sc12  1  0.21882829  0.86626624  0.59531680  1
  Sc  Sc13  1  0.78054740  0.76609934  0.34495920  1
  Sc  Sc14  1  0.44222757  0.74946746  0.84782362  1
  Sc  Sc15  1  0.55405286  0.86816392  0.59811772  1
  Al  Al16  1  0.77607122  0.08989391  0.83174494  1
  Al  Al17  1  0.45018611  0.09608381  0.37092789  1
  Al  Al18  1  0.56345342  0.19820807  0.12278430  1
  Al  Al19  1  0.10529010  0.09566161  0.82719575  1
  Al  Al20  1  0.77991849  0.09102842  0.32330488  1
  Al  Al21  1  0.89049075  0.19617203  0.07184204  1
  Al  Al22  1  0.44944397  0.09863591  0.86860851  1
  Al  Al23  1  0.56315839  0.20100159  0.61874643  1
  Al  Al24  1  0.77899925  0.42124659  0.87346186  1
  Al  Al25  1  0.88084483  0.54199681  0.62224837  1
  Al  Al26  1  0.45161864  0.42009391  0.35798743  1
  Al  Al27  1  0.89352660  0.53804200  0.11175703  1
  Al  Al28  1  0.45839396  0.41519822  0.86749713  1
  Al  Al29  1  0.55952295  0.53616021  0.57103946  1
  Al  Al30  1  0.11162287  0.76947986  0.32244150  1
  Al  Al31  1  0.20207948  0.88317980  0.06674934  1
  Al  Al32  1  0.88742452  0.87501801  0.57325570  1
  Al  Al33  1  0.42750409  0.76515440  0.31911173  1
  Al  Al34  1  0.10068601  0.77313959  0.82832810  1
  Al  Al35  1  0.89200346  0.88036898  0.07801589  1
  N  N36  1  0.23920632  0.19686444  0.34459798  1
  N  N37  1  0.09698557  0.08896526  0.10517562  1
  N  N38  1  0.88557080  0.20372240  0.85582169  1
  N  N39  1  0.77123220  0.07713502  0.62395494  1
  N  N40  1  0.56220923  0.19615368  0.33214380  1
  N  N41  1  0.45644216  0.10379341  0.07626794  1
  N  N42  1  0.23003246  0.19016502  0.84720522  1
  N  N43  1  0.10392762  0.09856467  0.61084733  1
  N  N44  1  0.87428288  0.19710241  0.36691610  1
  N  N45  1  0.77880037  0.09469280  0.10955843  1
  N  N46  1  0.55410801  0.20626066  0.83178706  1
  N  N47  1  0.45778058  0.10189695  0.57842873  1
  N  N48  1  0.23337282  0.55169794  0.34863653  1
  N  N49  1  0.10258793  0.43714896  0.08880007  1
  N  N50  1  0.87600047  0.52984034  0.83491240  1
  N  N51  1  0.76757660  0.45028012  0.58118858  1
  N  N52  1  0.53909424  0.55043630  0.34500457  1
  N  N53  1  0.45752608  0.40273261  0.09638093  1
  N  N54  1  0.23996240  0.54942808  0.84953496  1
  N  N55  1  0.09540020  0.44191489  0.59870350  1
  N  N56  1  0.89113516  0.54114277  0.31916481  1
  N  N57  1  0.80050175  0.41306946  0.09087011  1
  N  N58  1  0.57114506  0.51136496  0.86583389  1
  N  N59  1  0.47550541  0.40896627  0.57522055  1
  N  N60  1  0.22679784  0.85742886  0.36597814  1
  N  N61  1  0.09803297  0.78403647  0.11616517  1
  N  N62  1  0.89661307  0.88416966  0.87476629  1
  N  N63  1  0.79193629  0.75509770  0.59629208  1
  N  N64  1  0.53565720  0.87722065  0.34380776  1
  N  N65  1  0.41419150  0.77208488  0.10105632  1
  N  N66  1  0.20005427  0.88480753  0.85648887  1
  N  N67  1  0.08673770  0.77017910  0.62489064  1
  N  N68  1  0.90103737  0.88229628  0.36490748  1
  N  N69  1  0.79236692  0.75858593  0.09595090  1
  N  N70  1  0.54687917  0.88622771  0.84638978  1
  N  N71  1  0.44991351  0.73689533  0.61850301  1
