# generated using pymatgen
data_Sc4Al5N9
_symmetry_space_group_name_H-M   'P 1'
_cell_length_a   10.36825559
_cell_length_b   10.32477768
_cell_length_c   9.49243555
_cell_angle_alpha   90.22820362
_cell_angle_beta   90.00606784
_cell_angle_gamma   60.02928843
_symmetry_Int_Tables_number   1
_chemical_formula_structural   Sc4Al5N9
_chemical_formula_sum   'Sc16 Al20 N36'
_cell_volume   880.27489950
_cell_formula_units_Z   4
loop_
 _symmetry_equiv_pos_site_id
 _symmetry_equiv_pos_as_xyz
  1  'x, y, z'
loop_
 _atom_site_type_symbol
 _atom_site_label
 _atom_site_symmetry_multiplicity
 _atom_site_fract_x
 _atom_site_fract_y
 _atom_site_fract_z
 _atom_site_occupancy
  Sc  Sc0  1  0.10407516  0.08869861  0.34309078  1
  Sc  Sc1  1  0.22343896  0.20075603  0.09910993  1
  Sc  Sc2  1  0.86888232  0.21504819  0.60061173  1
  Sc  Sc3  1  0.22662095  0.20594099  0.60202427  1
  Sc  Sc4  1  0.11512050  0.43401256  0.35282548  1
  Sc  Sc5  1  0.23093505  0.54652695  0.08785334  1
  Sc  Sc6  1  0.55869980  0.52742623  0.10036090  1
  Sc  Sc7  1  0.10973259  0.43114145  0.85036358  1
  Sc  Sc8  1  0.23133363  0.54482053  0.59624739  1
  Sc  Sc9  1  0.77835832  0.42670129  0.34606193  1
  Sc  Sc10  1  0.78235541  0.76490977  0.85103464  1
  Sc  Sc11  1  0.55158561  0.87587263  0.10112757  1
  Sc  Sc12  1  0.21885341  0.86614843  0.59488946  1
  Sc  Sc13  1  0.77979747  0.76714124  0.34699163  1
  Sc  Sc14  1  0.44196853  0.74841593  0.84962312  1
  Sc  Sc15  1  0.55402139  0.86672925  0.60100307  1
  Al  Al16  1  0.77474392  0.09007965  0.82678703  1
  Al  Al17  1  0.44871744  0.09449339  0.37064485  1
  Al  Al18  1  0.56552620  0.20207806  0.07280249  1
  Al  Al19  1  0.10521835  0.09549109  0.82505011  1
  Al  Al20  1  0.77619746  0.09444098  0.31928216  1
  Al  Al21  1  0.89146138  0.19469373  0.07051002  1
  Al  Al22  1  0.44858625  0.09730033  0.86932107  1
  Al  Al23  1  0.56876995  0.19800953  0.57173016  1
  Al  Al24  1  0.78063548  0.42107614  0.87974050  1
  Al  Al25  1  0.88005660  0.54246273  0.62430312  1
  Al  Al26  1  0.44896681  0.41879572  0.32918238  1
  Al  Al27  1  0.89480989  0.53879134  0.11594741  1
  Al  Al28  1  0.46690504  0.41492297  0.81722341  1
  Al  Al29  1  0.55800943  0.53748357  0.56469186  1
  Al  Al30  1  0.11124761  0.76911658  0.32224270  1
  Al  Al31  1  0.20099538  0.88298337  0.06664128  1
  Al  Al32  1  0.88630873  0.87652350  0.57225223  1
  Al  Al33  1  0.42609312  0.76444841  0.31788659  1
  Al  Al34  1  0.10040550  0.77366164  0.82679928  1
  Al  Al35  1  0.89184287  0.88064739  0.07777777  1
  N  N36  1  0.23815127  0.19700875  0.34685633  1
  N  N37  1  0.09641921  0.08813888  0.11083945  1
  N  N38  1  0.88600606  0.20320091  0.85819818  1
  N  N39  1  0.76829944  0.07869752  0.62842225  1
  N  N40  1  0.56366689  0.19870640  0.36666707  1
  N  N41  1  0.45547916  0.10306101  0.08262397  1
  N  N42  1  0.22996701  0.18989202  0.84920402  1
  N  N43  1  0.10313519  0.09886050  0.61521958  1
  N  N44  1  0.87295976  0.19719189  0.37270128  1
  N  N45  1  0.77726182  0.09604879  0.11579923  1
  N  N46  1  0.56024687  0.20515147  0.86721001  1
  N  N47  1  0.45684589  0.10050604  0.58432024  1
  N  N48  1  0.23376703  0.55201813  0.35554203  1
  N  N49  1  0.10329498  0.43830875  0.08697250  1
  N  N50  1  0.87595966  0.52919061  0.83208413  1
  N  N51  1  0.76659159  0.45263056  0.57694123  1
  N  N52  1  0.53654558  0.54916245  0.35136833  1
  N  N53  1  0.45811373  0.40062210  0.12971669  1
  N  N54  1  0.24238829  0.54875309  0.84951603  1
  N  N55  1  0.09485637  0.44279327  0.59887385  1
  N  N56  1  0.89183774  0.54149341  0.31796188  1
  N  N57  1  0.80227059  0.41273807  0.09251338  1
  N  N58  1  0.57244977  0.50991555  0.87521467  1
  N  N59  1  0.47881062  0.40895508  0.61264797  1
  N  N60  1  0.22657262  0.85678429  0.37035058  1
  N  N61  1  0.09797683  0.78302666  0.12023850  1
  N  N62  1  0.89666664  0.88550733  0.87837167  1
  N  N63  1  0.79159490  0.75595660  0.59716257  1
  N  N64  1  0.53503360  0.87596393  0.34550140  1
  N  N65  1  0.41340843  0.77046832  0.10450894  1
  N  N66  1  0.19939045  0.88529506  0.86027747  1
  N  N67  1  0.08489888  0.77190590  0.62827675  1
  N  N68  1  0.89983355  0.88422574  0.36812961  1
  N  N69  1  0.79272335  0.75865640  0.09670863  1
  N  N70  1  0.54698521  0.88504965  0.84952743  1
  N  N71  1  0.44938301  0.73520036  0.62492615  1
