# generated using pymatgen
data_Sc4Al5N9
_symmetry_space_group_name_H-M   'P 1'
_cell_length_a   10.37973030
_cell_length_b   10.34235695
_cell_length_c   9.44850567
_cell_angle_alpha   90.17051831
_cell_angle_beta   90.07358516
_cell_angle_gamma   60.10360371
_symmetry_Int_Tables_number   1
_chemical_formula_structural   Sc4Al5N9
_chemical_formula_sum   'Sc16 Al20 N36'
_cell_volume   879.32589981
_cell_formula_units_Z   4
loop_
 _symmetry_equiv_pos_site_id
 _symmetry_equiv_pos_as_xyz
  1  'x, y, z'
loop_
 _atom_site_type_symbol
 _atom_site_label
 _atom_site_symmetry_multiplicity
 _atom_site_fract_x
 _atom_site_fract_y
 _atom_site_fract_z
 _atom_site_occupancy
  Sc  Sc0  1  0.10486058  0.08923199  0.34183847  1
  Sc  Sc1  1  0.22379122  0.20035086  0.09850797  1
  Sc  Sc2  1  0.87124757  0.21126678  0.59833891  1
  Sc  Sc3  1  0.22828906  0.20505011  0.60148674  1
  Sc  Sc4  1  0.11458973  0.43344460  0.35367352  1
  Sc  Sc5  1  0.22756049  0.54759112  0.09742940  1
  Sc  Sc6  1  0.55842092  0.53012855  0.09955168  1
  Sc  Sc7  1  0.10903558  0.43092599  0.85188710  1
  Sc  Sc8  1  0.23316052  0.54287930  0.60240226  1
  Sc  Sc9  1  0.77253479  0.43008871  0.34968049  1
  Sc  Sc10  1  0.78199043  0.76481384  0.84939962  1
  Sc  Sc11  1  0.55185253  0.87678390  0.09990727  1
  Sc  Sc12  1  0.21991235  0.86517401  0.59300197  1
  Sc  Sc13  1  0.78043803  0.76605703  0.34495872  1
  Sc  Sc14  1  0.43959822  0.75389379  0.84889458  1
  Sc  Sc15  1  0.55426000  0.86811176  0.59728343  1
  Al  Al16  1  0.77674181  0.08910192  0.82957695  1
  Al  Al17  1  0.45002357  0.09771696  0.37009789  1
  Al  Al18  1  0.56225756  0.20033060  0.12298341  1
  Al  Al19  1  0.10537431  0.09550419  0.82398533  1
  Al  Al20  1  0.77946469  0.09243748  0.32077809  1
  Al  Al21  1  0.89069232  0.19598806  0.06953618  1
  Al  Al22  1  0.44918334  0.09845992  0.87150616  1
  Al  Al23  1  0.56284206  0.20051358  0.62263236  1
  Al  Al24  1  0.78116701  0.42025487  0.87440430  1
  Al  Al25  1  0.88163195  0.54201853  0.62339150  1
  Al  Al26  1  0.45452598  0.42286931  0.37000799  1
  Al  Al27  1  0.89340798  0.53763957  0.11470125  1
  Al  Al28  1  0.45745475  0.41259801  0.87480446  1
  Al  Al29  1  0.56438233  0.53022923  0.61064948  1
  Al  Al30  1  0.11216258  0.76933364  0.32201142  1
  Al  Al31  1  0.20058268  0.88392591  0.06510707  1
  Al  Al32  1  0.88718322  0.87522517  0.57145315  1
  Al  Al33  1  0.42819422  0.76271990  0.31652422  1
  Al  Al34  1  0.10028860  0.77304568  0.82615691  1
  Al  Al35  1  0.89207244  0.88037368  0.07651673  1
  N  N36  1  0.23887619  0.19698537  0.34354084  1
  N  N37  1  0.09623381  0.08902829  0.10774982  1
  N  N38  1  0.88636558  0.20287195  0.85564150  1
  N  N39  1  0.77147105  0.07667663  0.62530517  1
  N  N40  1  0.55971029  0.20124486  0.32787719  1
  N  N41  1  0.45633088  0.10415081  0.07552906  1
  N  N42  1  0.23033207  0.18947150  0.84684835  1
  N  N43  1  0.10493418  0.09780911  0.61172082  1
  N  N44  1  0.87325323  0.19832527  0.36920771  1
  N  N45  1  0.77888383  0.09493096  0.11049852  1
  N  N46  1  0.55363485  0.20470508  0.82927424  1
  N  N47  1  0.45857777  0.10233807  0.57384255  1
  N  N48  1  0.23573917  0.55011911  0.34862023  1
  N  N49  1  0.10206802  0.43728526  0.08791206  1
  N  N50  1  0.87628506  0.52969365  0.83174870  1
  N  N51  1  0.76863343  0.44990546  0.58110195  1
  N  N52  1  0.53739036  0.54947313  0.33051242  1
  N  N53  1  0.45805491  0.40193705  0.07873900  1
  N  N54  1  0.23781625  0.55067617  0.84898769  1
  N  N55  1  0.09598898  0.44162346  0.59819073  1
  N  N56  1  0.89071844  0.54020193  0.31815615  1
  N  N57  1  0.79973426  0.41377397  0.08708156  1
  N  N58  1  0.57186003  0.51031279  0.85107154  1
  N  N59  1  0.47760024  0.40833342  0.57513926  1
  N  N60  1  0.22788522  0.85688834  0.36716304  1
  N  N61  1  0.09769062  0.78431245  0.11857810  1
  N  N62  1  0.89696641  0.88407663  0.87600302  1
  N  N63  1  0.79197885  0.75505606  0.59545749  1
  N  N64  1  0.53571676  0.87702970  0.34212210  1
  N  N65  1  0.41349026  0.77311892  0.09777807  1
  N  N66  1  0.19831658  0.88573221  0.85734805  1
  N  N67  1  0.08640198  0.77034656  0.62541038  1
  N  N68  1  0.90076654  0.88310920  0.36628238  1
  N  N69  1  0.79285698  0.75804613  0.09556179  1
  N  N70  1  0.54694004  0.88702156  0.84568902  1
  N  N71  1  0.45017438  0.73682646  0.62174269  1
