# generated using pymatgen
data_Sc4Al5N9
_symmetry_space_group_name_H-M   'P 1'
_cell_length_a   10.37360569
_cell_length_b   10.33698827
_cell_length_c   9.46458500
_cell_angle_alpha   90.16420745
_cell_angle_beta   90.06521269
_cell_angle_gamma   60.11441425
_symmetry_Int_Tables_number   1
_chemical_formula_structural   Sc4Al5N9
_chemical_formula_sum   'Sc16 Al20 N36'
_cell_volume   879.94131596
_cell_formula_units_Z   4
loop_
 _symmetry_equiv_pos_site_id
 _symmetry_equiv_pos_as_xyz
  1  'x, y, z'
loop_
 _atom_site_type_symbol
 _atom_site_label
 _atom_site_symmetry_multiplicity
 _atom_site_fract_x
 _atom_site_fract_y
 _atom_site_fract_z
 _atom_site_occupancy
  Sc  Sc0  1  0.10463272  0.08947498  0.34168164  1
  Sc  Sc1  1  0.22368885  0.20040163  0.09861458  1
  Sc  Sc2  1  0.87164451  0.21078465  0.59803162  1
  Sc  Sc3  1  0.22850047  0.20496711  0.60147605  1
  Sc  Sc4  1  0.11440516  0.43341484  0.35379749  1
  Sc  Sc5  1  0.22798880  0.54732009  0.09757833  1
  Sc  Sc6  1  0.55843011  0.53014987  0.09830091  1
  Sc  Sc7  1  0.10913880  0.43095969  0.85202559  1
  Sc  Sc8  1  0.23305368  0.54296380  0.60222072  1
  Sc  Sc9  1  0.77014762  0.43152050  0.35169297  1
  Sc  Sc10  1  0.78197024  0.76488190  0.84940255  1
  Sc  Sc11  1  0.55205598  0.87700395  0.10019135  1
  Sc  Sc12  1  0.22063416  0.86460061  0.59240380  1
  Sc  Sc13  1  0.78052702  0.76587184  0.34488662  1
  Sc  Sc14  1  0.43826937  0.75631536  0.84970514  1
  Sc  Sc15  1  0.55426906  0.86756255  0.59693932  1
  Al  Al16  1  0.77683583  0.08886149  0.82910621  1
  Al  Al17  1  0.44999239  0.09797119  0.36996613  1
  Al  Al18  1  0.56208182  0.20093979  0.12325959  1
  Al  Al19  1  0.10531096  0.09552935  0.82341268  1
  Al  Al20  1  0.77939735  0.09276875  0.32057918  1
  Al  Al21  1  0.89054994  0.19608677  0.06937324  1
  Al  Al22  1  0.44920533  0.09855766  0.87190893  1
  Al  Al23  1  0.56292572  0.20017563  0.62248638  1
  Al  Al24  1  0.78242700  0.41955918  0.87426123  1
  Al  Al25  1  0.88172128  0.54193030  0.62357897  1
  Al  Al26  1  0.45523073  0.42402571  0.37181568  1
  Al  Al27  1  0.89322335  0.53741359  0.11506544  1
  Al  Al28  1  0.45690956  0.41200290  0.87387347  1
  Al  Al29  1  0.56582334  0.52803859  0.62467524  1
  Al  Al30  1  0.11231152  0.76924631  0.32187842  1
  Al  Al31  1  0.20009232  0.88426158  0.06501331  1
  Al  Al32  1  0.88722793  0.87513749  0.57106604  1
  Al  Al33  1  0.42838339  0.76209032  0.31553419  1
  Al  Al34  1  0.10018770  0.77311364  0.82571702  1
  Al  Al35  1  0.89210521  0.88033158  0.07641761  1
  N  N36  1  0.23883463  0.19702646  0.34333636  1
  N  N37  1  0.09595803  0.08920273  0.10818646  1
  N  N38  1  0.88657556  0.20250658  0.85549279  1
  N  N39  1  0.77165877  0.07642197  0.62529405  1
  N  N40  1  0.55936844  0.20224590  0.32782153  1
  N  N41  1  0.45633499  0.10446335  0.07557464  1
  N  N42  1  0.23036661  0.18940387  0.84681369  1
  N  N43  1  0.10535198  0.09741528  0.61168479  1
  N  N44  1  0.87281799  0.19905683  0.36940705  1
  N  N45  1  0.77887391  0.09494471  0.11076193  1
  N  N46  1  0.55371837  0.20420439  0.82856125  1
  N  N47  1  0.45875681  0.10200227  0.57315015  1
  N  N48  1  0.23601729  0.54993083  0.34896773  1
  N  N49  1  0.10199292  0.43738520  0.08789534  1
  N  N50  1  0.87651230  0.52982546  0.83139617  1
  N  N51  1  0.76824243  0.44982219  0.58233410  1
  N  N52  1  0.53654599  0.54944235  0.32532340  1
  N  N53  1  0.45837565  0.40180747  0.07618051  1
  N  N54  1  0.23756084  0.55087211  0.84863202  1
  N  N55  1  0.09601355  0.44152682  0.59797048  1
  N  N56  1  0.89021429  0.53977932  0.31806751  1
  N  N57  1  0.79947217  0.41396722  0.08551929  1
  N  N58  1  0.57228404  0.50968672  0.84668574  1
  N  N59  1  0.47815408  0.40860966  0.57630299  1
  N  N60  1  0.22820712  0.85679560  0.36696765  1
  N  N61  1  0.09778432  0.78412117  0.11881797  1
  N  N62  1  0.89702090  0.88405984  0.87622956  1
  N  N63  1  0.79202376  0.75493626  0.59523379  1
  N  N64  1  0.53577421  0.87680741  0.34176209  1
  N  N65  1  0.41337698  0.77367759  0.09639223  1
  N  N66  1  0.19766792  0.88620774  0.85758359  1
  N  N67  1  0.08638341  0.77050479  0.62539309  1
  N  N68  1  0.90077781  0.88322622  0.36631846  1
  N  N69  1  0.79298992  0.75788126  0.09557992  1
  N  N70  1  0.54700105  0.88743005  0.84570170  1
  N  N71  1  0.45054469  0.73608330  0.62322208  1
