# generated using pymatgen
data_Sc4Al5N9
_symmetry_space_group_name_H-M   'P 1'
_cell_length_a   10.29979051
_cell_length_b   10.25895498
_cell_length_c   9.68451880
_cell_angle_alpha   89.88439992
_cell_angle_beta   89.93499497
_cell_angle_gamma   60.24623280
_symmetry_Int_Tables_number   1
_chemical_formula_structural   Sc4Al5N9
_chemical_formula_sum   'Sc16 Al20 N36'
_cell_volume   888.40611670
_cell_formula_units_Z   4
loop_
 _symmetry_equiv_pos_site_id
 _symmetry_equiv_pos_as_xyz
  1  'x, y, z'
loop_
 _atom_site_type_symbol
 _atom_site_label
 _atom_site_symmetry_multiplicity
 _atom_site_fract_x
 _atom_site_fract_y
 _atom_site_fract_z
 _atom_site_occupancy
  Sc  Sc0  1  0.11135680  0.08891320  0.34473444  1
  Sc  Sc1  1  0.22799272  0.20453491  0.10254325  1
  Sc  Sc2  1  0.88094430  0.20698930  0.61084093  1
  Sc  Sc3  1  0.22654834  0.20132885  0.61610464  1
  Sc  Sc4  1  0.11446503  0.43123628  0.36266588  1
  Sc  Sc5  1  0.22809237  0.54580609  0.09845530  1
  Sc  Sc6  1  0.55931974  0.52819948  0.09496535  1
  Sc  Sc7  1  0.10756710  0.43276146  0.85454992  1
  Sc  Sc8  1  0.23334236  0.54294691  0.60508586  1
  Sc  Sc9  1  0.76440057  0.43589732  0.35857581  1
  Sc  Sc10  1  0.78163954  0.76478638  0.84807801  1
  Sc  Sc11  1  0.55335697  0.87781854  0.09942569  1
  Sc  Sc12  1  0.22230959  0.86653188  0.58659990  1
  Sc  Sc13  1  0.78027523  0.76460757  0.34307098  1
  Sc  Sc14  1  0.43603831  0.75913622  0.84973191  1
  Sc  Sc15  1  0.55421028  0.86677243  0.59711883  1
  Al  Al16  1  0.77572420  0.10093582  0.87735890  1
  Al  Al17  1  0.44847199  0.09908071  0.37207850  1
  Al  Al18  1  0.56488112  0.20075734  0.12871965  1
  Al  Al19  1  0.09678377  0.10029617  0.88031985  1
  Al  Al20  1  0.77135750  0.09383394  0.37494470  1
  Al  Al21  1  0.88130736  0.20094448  0.12815681  1
  Al  Al22  1  0.45218147  0.09832493  0.87325056  1
  Al  Al23  1  0.56457499  0.19968118  0.62256942  1
  Al  Al24  1  0.78790844  0.41270788  0.88083341  1
  Al  Al25  1  0.88123128  0.53978759  0.62660498  1
  Al  Al26  1  0.45353013  0.42710636  0.37577448  1
  Al  Al27  1  0.89334060  0.53642861  0.11781666  1
  Al  Al28  1  0.45692378  0.41012645  0.87314492  1
  Al  Al29  1  0.56862652  0.52399429  0.63946220  1
  Al  Al30  1  0.11265298  0.76742912  0.31844941  1
  Al  Al31  1  0.20159865  0.87928557  0.06599292  1
  Al  Al32  1  0.88904797  0.87081178  0.56767707  1
  Al  Al33  1  0.42902853  0.76116384  0.30712575  1
  Al  Al34  1  0.09917502  0.77632015  0.82074521  1
  Al  Al35  1  0.89148135  0.87924484  0.07290688  1
  N  N36  1  0.24254754  0.19879905  0.32839800  1
  N  N37  1  0.09405822  0.09235465  0.09017769  1
  N  N38  1  0.88774749  0.20395467  0.83520218  1
  N  N39  1  0.76796206  0.08335688  0.57506393  1
  N  N40  1  0.55880044  0.20356156  0.32501786  1
  N  N41  1  0.46023918  0.10511330  0.06934643  1
  N  N42  1  0.22859882  0.18843944  0.84809927  1
  N  N43  1  0.10715848  0.09798865  0.56772540  1
  N  N44  1  0.87092751  0.19985491  0.32841236  1
  N  N45  1  0.77298818  0.09975211  0.07853841  1
  N  N46  1  0.56039111  0.20104989  0.81989224  1
  N  N47  1  0.45567808  0.10362599  0.56948035  1
  N  N48  1  0.23584579  0.54832593  0.34822803  1
  N  N49  1  0.09977749  0.43993468  0.08085408  1
  N  N50  1  0.87532089  0.52867938  0.82664756  1
  N  N51  1  0.76827221  0.44642182  0.57869543  1
  N  N52  1  0.53453148  0.54865214  0.31474772  1
  N  N53  1  0.45787152  0.39947656  0.06875954  1
  N  N54  1  0.23764308  0.55160291  0.84505470  1
  N  N55  1  0.09622170  0.43935303  0.59756524  1
  N  N56  1  0.89058679  0.53718252  0.31442185  1
  N  N57  1  0.80045710  0.41348981  0.08211997  1
  N  N58  1  0.57515442  0.50681492  0.84593673  1
  N  N59  1  0.47790011  0.41033232  0.57517655  1
  N  N60  1  0.23091480  0.85333670  0.36237319  1
  N  N61  1  0.09612004  0.78368227  0.12032684  1
  N  N62  1  0.89607689  0.88568902  0.87204864  1
  N  N63  1  0.79191499  0.75321598  0.59377027  1
  N  N64  1  0.53528071  0.87708521  0.33795686  1
  N  N65  1  0.41436062  0.77368982  0.09334025  1
  N  N66  1  0.19571385  0.88838323  0.86092788  1
  N  N67  1  0.08672614  0.77327008  0.62570382  1
  N  N68  1  0.90363360  0.87737859  0.36450337  1
  N  N69  1  0.79349923  0.75658902  0.09301894  1
  N  N70  1  0.54689635  0.88857838  0.84310864  1
  N  N71  1  0.45139814  0.73414996  0.62916884  1
