# generated using pymatgen
data_Sc4Al5N9
_symmetry_space_group_name_H-M   'P 1'
_cell_length_a   10.38015172
_cell_length_b   10.33561759
_cell_length_c   9.44165276
_cell_angle_alpha   90.17709543
_cell_angle_beta   89.95641040
_cell_angle_gamma   60.02941807
_symmetry_Int_Tables_number   1
_chemical_formula_structural   Sc4Al5N9
_chemical_formula_sum   'Sc16 Al20 N36'
_cell_volume   877.49336702
_cell_formula_units_Z   4
loop_
 _symmetry_equiv_pos_site_id
 _symmetry_equiv_pos_as_xyz
  1  'x, y, z'
loop_
 _atom_site_type_symbol
 _atom_site_label
 _atom_site_symmetry_multiplicity
 _atom_site_fract_x
 _atom_site_fract_y
 _atom_site_fract_z
 _atom_site_occupancy
  Sc  Sc0  1  0.10381823  0.08883769  0.34307630  1
  Sc  Sc1  1  0.22440678  0.19985580  0.09574528  1
  Sc  Sc2  1  0.86894889  0.21473606  0.60119487  1
  Sc  Sc3  1  0.22637214  0.20611192  0.59812036  1
  Sc  Sc4  1  0.11494408  0.43430803  0.35090405  1
  Sc  Sc5  1  0.23152262  0.54610508  0.08835029  1
  Sc  Sc6  1  0.55866122  0.52740526  0.10077195  1
  Sc  Sc7  1  0.10978822  0.43104703  0.84947777  1
  Sc  Sc8  1  0.23115308  0.54479951  0.59616967  1
  Sc  Sc9  1  0.77839457  0.42673270  0.34604906  1
  Sc  Sc10  1  0.78254003  0.76498706  0.85004774  1
  Sc  Sc11  1  0.55173081  0.87604696  0.09778687  1
  Sc  Sc12  1  0.21867189  0.86636118  0.59554994  1
  Sc  Sc13  1  0.77998494  0.76712629  0.34587465  1
  Sc  Sc14  1  0.44208361  0.74841264  0.84958919  1
  Sc  Sc15  1  0.55338327  0.86747542  0.59784286  1
  Al  Al16  1  0.77494722  0.08998566  0.82808928  1
  Al  Al17  1  0.44910057  0.09504045  0.35172044  1
  Al  Al18  1  0.56474666  0.20153924  0.07322361  1
  Al  Al19  1  0.10517726  0.09561158  0.82568564  1
  Al  Al20  1  0.77602492  0.09423787  0.31996886  1
  Al  Al21  1  0.89111634  0.19498893  0.07140062  1
  Al  Al22  1  0.44899781  0.09758489  0.84869754  1
  Al  Al23  1  0.56813298  0.19737556  0.57336317  1
  Al  Al24  1  0.78042361  0.42112437  0.87879765  1
  Al  Al25  1  0.88014136  0.54256057  0.62368877  1
  Al  Al26  1  0.44915169  0.41892672  0.33092466  1
  Al  Al27  1  0.89473115  0.53861646  0.11480133  1
  Al  Al28  1  0.46652098  0.41499509  0.81771583  1
  Al  Al29  1  0.55829369  0.53743433  0.56584913  1
  Al  Al30  1  0.11129104  0.76914685  0.32262727  1
  Al  Al31  1  0.20133507  0.88276243  0.06722925  1
  Al  Al32  1  0.88623035  0.87658463  0.57274019  1
  Al  Al33  1  0.42625350  0.76451396  0.31855721  1
  Al  Al34  1  0.10050795  0.77351348  0.82758977  1
  Al  Al35  1  0.89184159  0.88055127  0.07850544  1
  N  N36  1  0.23801039  0.19709345  0.34995116  1
  N  N37  1  0.09650781  0.08820984  0.11009450  1
  N  N38  1  0.88577890  0.20331206  0.85816143  1
  N  N39  1  0.76842842  0.07878781  0.62849313  1
  N  N40  1  0.56305773  0.19753075  0.36894008  1
  N  N41  1  0.45638577  0.10318708  0.09868334  1
  N  N42  1  0.22970506  0.18995338  0.85061094  1
  N  N43  1  0.10305108  0.09893851  0.61494559  1
  N  N44  1  0.87266886  0.19729164  0.37186289  1
  N  N45  1  0.77698679  0.09613332  0.11545652  1
  N  N46  1  0.55953614  0.20475133  0.86847767  1
  N  N47  1  0.45676916  0.10201253  0.60352545  1
  N  N48  1  0.23374424  0.55208623  0.35519268  1
  N  N49  1  0.10374446  0.43788274  0.08801680  1
  N  N50  1  0.87613214  0.52937144  0.83327764  1
  N  N51  1  0.76672414  0.45229001  0.57842318  1
  N  N52  1  0.53684176  0.54919284  0.35176015  1
  N  N53  1  0.45870359  0.40034921  0.13028891  1
  N  N54  1  0.24260169  0.54844996  0.84948462  1
  N  N55  1  0.09463290  0.44309353  0.59901027  1
  N  N56  1  0.89158566  0.54152806  0.31866415  1
  N  N57  1  0.80197772  0.41282855  0.09275287  1
  N  N58  1  0.57233681  0.50991599  0.87433985  1
  N  N59  1  0.47868985  0.40906042  0.61202047  1
  N  N60  1  0.22635558  0.85709798  0.36968750  1
  N  N61  1  0.09822142  0.78267776  0.11946765  1
  N  N62  1  0.89672124  0.88530424  0.87806699  1
  N  N63  1  0.79123898  0.75623119  0.59734983  1
  N  N64  1  0.53499473  0.87631112  0.34757864  1
  N  N65  1  0.41358434  0.77043461  0.10464280  1
  N  N66  1  0.19963834  0.88509135  0.85977509  1
  N  N67  1  0.08498539  0.77175039  0.62774586  1
  N  N68  1  0.89982438  0.88415004  0.36748379  1
  N  N69  1  0.79295464  0.75852875  0.09690668  1
  N  N70  1  0.54716987  0.88481324  0.85210976  1
  N  N71  1  0.44940749  0.73579475  0.62411369  1
