# generated using pymatgen
data_Sc4Al5N9
_symmetry_space_group_name_H-M   'P 1'
_cell_length_a   10.38667621
_cell_length_b   10.35506961
_cell_length_c   9.41752768
_cell_angle_alpha   90.22471308
_cell_angle_beta   89.95361137
_cell_angle_gamma   60.15099499
_symmetry_Int_Tables_number   1
_chemical_formula_structural   Sc4Al5N9
_chemical_formula_sum   'Sc16 Al20 N36'
_cell_volume   878.51745061
_cell_formula_units_Z   4
loop_
 _symmetry_equiv_pos_site_id
 _symmetry_equiv_pos_as_xyz
  1  'x, y, z'
loop_
 _atom_site_type_symbol
 _atom_site_label
 _atom_site_symmetry_multiplicity
 _atom_site_fract_x
 _atom_site_fract_y
 _atom_site_fract_z
 _atom_site_occupancy
  Sc  Sc0  1  0.10588195  0.08843410  0.34231708  1
  Sc  Sc1  1  0.22426354  0.20067006  0.09718007  1
  Sc  Sc2  1  0.87031145  0.21411231  0.59979682  1
  Sc  Sc3  1  0.22707719  0.20577306  0.60111164  1
  Sc  Sc4  1  0.11443275  0.43339340  0.35017930  1
  Sc  Sc5  1  0.23030290  0.54658123  0.08810092  1
  Sc  Sc6  1  0.55782269  0.52767679  0.09889209  1
  Sc  Sc7  1  0.10931207  0.43096898  0.84913582  1
  Sc  Sc8  1  0.22892824  0.54595418  0.59442003  1
  Sc  Sc9  1  0.77837375  0.42627521  0.34448653  1
  Sc  Sc10  1  0.78220141  0.76502458  0.84976267  1
  Sc  Sc11  1  0.55147985  0.87677886  0.09945374  1
  Sc  Sc12  1  0.21912183  0.86632009  0.59465484  1
  Sc  Sc13  1  0.78019100  0.76608153  0.34509763  1
  Sc  Sc14  1  0.44219027  0.74959534  0.84862403  1
  Sc  Sc15  1  0.55430516  0.86704309  0.59943925  1
  Al  Al16  1  0.77533714  0.09009853  0.82893914  1
  Al  Al17  1  0.45014168  0.09451239  0.37255493  1
  Al  Al18  1  0.56396683  0.19832392  0.12635186  1
  Al  Al19  1  0.10566996  0.09559419  0.82574994  1
  Al  Al20  1  0.78123075  0.09034536  0.32525108  1
  Al  Al21  1  0.89085676  0.19512617  0.07090975  1
  Al  Al22  1  0.45044660  0.09964781  0.87089029  1
  Al  Al23  1  0.56533591  0.19657400  0.61352007  1
  Al  Al24  1  0.77950683  0.42088979  0.87653534  1
  Al  Al25  1  0.87989309  0.54207359  0.62306386  1
  Al  Al26  1  0.44753080  0.42241348  0.33606743  1
  Al  Al27  1  0.89392994  0.53830360  0.11277091  1
  Al  Al28  1  0.46212537  0.41872716  0.81749224  1
  Al  Al29  1  0.55826457  0.53841822  0.56459546  1
  Al  Al30  1  0.11196828  0.76886727  0.32104115  1
  Al  Al31  1  0.20165534  0.88310910  0.06592050  1
  Al  Al32  1  0.88774756  0.87456903  0.57188016  1
  Al  Al33  1  0.42695192  0.76490597  0.31724388  1
  Al  Al34  1  0.10026573  0.77396805  0.82707835  1
  Al  Al35  1  0.89189835  0.88069527  0.07773331  1
  N  N36  1  0.23944672  0.19679740  0.34434113  1
  N  N37  1  0.09690808  0.08857029  0.10727337  1
  N  N38  1  0.88568143  0.20339983  0.85664757  1
  N  N39  1  0.77281974  0.07638322  0.62375425  1
  N  N40  1  0.56384801  0.19425847  0.34081854  1
  N  N41  1  0.45703254  0.10437461  0.07717920  1
  N  N42  1  0.23051550  0.19016056  0.84774868  1
  N  N43  1  0.10421618  0.09855723  0.61281646  1
  N  N44  1  0.87512113  0.19700985  0.36992972  1
  N  N45  1  0.77894659  0.09477937  0.11424021  1
  N  N46  1  0.55526116  0.20547203  0.83165957  1
  N  N47  1  0.45723584  0.10001970  0.57796939  1
  N  N48  1  0.23157719  0.55315992  0.35353517  1
  N  N49  1  0.10294060  0.43764795  0.08695131  1
  N  N50  1  0.87560285  0.52954407  0.83334232  1
  N  N51  1  0.76650902  0.45161403  0.57815283  1
  N  N52  1  0.53737604  0.55060814  0.34983872  1
  N  N53  1  0.45572771  0.40403169  0.12791617  1
  N  N54  1  0.24103513  0.54953246  0.84784618  1
  N  N55  1  0.09420953  0.44198620  0.59803554  1
  N  N56  1  0.89123739  0.54106773  0.31734117  1
  N  N57  1  0.80082721  0.41259930  0.09119317  1
  N  N58  1  0.57128738  0.51065682  0.87077033  1
  N  N59  1  0.47502479  0.41185483  0.60232281  1
  N  N60  1  0.22697500  0.85694893  0.36761495  1
  N  N61  1  0.09844580  0.78296057  0.11718773  1
  N  N62  1  0.89626862  0.88539667  0.87655782  1
  N  N63  1  0.79192884  0.75510521  0.59639088  1
  N  N64  1  0.53549614  0.87619634  0.34345425  1
  N  N65  1  0.41411090  0.77092915  0.10203427  1
  N  N66  1  0.19991266  0.88528086  0.85787418  1
  N  N67  1  0.08556999  0.77179685  0.62672921  1
  N  N68  1  0.90189832  0.88136901  0.36617810  1
  N  N69  1  0.79236673  0.75854466  0.09583354  1
  N  N70  1  0.54688898  0.88661074  0.84764655  1
  N  N71  1  0.44968193  0.73643967  0.62206526  1
