# generated using pymatgen
data_Sc4Al5N9
_symmetry_space_group_name_H-M   'P 1'
_cell_length_a   10.27729385
_cell_length_b   10.23518337
_cell_length_c   9.75724613
_cell_angle_alpha   90.16918526
_cell_angle_beta   90.36466401
_cell_angle_gamma   60.20142234
_symmetry_Int_Tables_number   1
_chemical_formula_structural   Sc4Al5N9
_chemical_formula_sum   'Sc16 Al20 N36'
_cell_volume   890.63833449
_cell_formula_units_Z   4
loop_
 _symmetry_equiv_pos_site_id
 _symmetry_equiv_pos_as_xyz
  1  'x, y, z'
loop_
 _atom_site_type_symbol
 _atom_site_label
 _atom_site_symmetry_multiplicity
 _atom_site_fract_x
 _atom_site_fract_y
 _atom_site_fract_z
 _atom_site_occupancy
  Sc  Sc0  1  0.11018404  0.09008691  0.34383753  1
  Sc  Sc1  1  0.22816881  0.20378512  0.10273391  1
  Sc  Sc2  1  0.88045516  0.20741092  0.61104801  1
  Sc  Sc3  1  0.22598535  0.20089332  0.61826882  1
  Sc  Sc4  1  0.11470908  0.43025372  0.36399161  1
  Sc  Sc5  1  0.22950960  0.54312013  0.09851448  1
  Sc  Sc6  1  0.55962505  0.52884142  0.09497823  1
  Sc  Sc7  1  0.10776853  0.43194195  0.85542844  1
  Sc  Sc8  1  0.23387661  0.54157526  0.60535701  1
  Sc  Sc9  1  0.76429268  0.43695993  0.35952856  1
  Sc  Sc10  1  0.78181733  0.76280455  0.86338028  1
  Sc  Sc11  1  0.55495333  0.87787632  0.10688477  1
  Sc  Sc12  1  0.22251046  0.86591281  0.58278823  1
  Sc  Sc13  1  0.78200694  0.76562296  0.36204334  1
  Sc  Sc14  1  0.43598766  0.75987953  0.85016517  1
  Sc  Sc15  1  0.55382770  0.86845582  0.60515025  1
  Al  Al16  1  0.77670939  0.09784216  0.87816807  1
  Al  Al17  1  0.44865557  0.09896768  0.37304503  1
  Al  Al18  1  0.56588304  0.20004921  0.12820295  1
  Al  Al19  1  0.09576758  0.10071778  0.88108417  1
  Al  Al20  1  0.77283212  0.09088042  0.37532434  1
  Al  Al21  1  0.88072625  0.20133186  0.12760716  1
  Al  Al22  1  0.45295110  0.09783396  0.87453492  1
  Al  Al23  1  0.56451173  0.20009316  0.62162832  1
  Al  Al24  1  0.78797535  0.41257535  0.88158870  1
  Al  Al25  1  0.88083285  0.54054419  0.62921985  1
  Al  Al26  1  0.45433761  0.42649985  0.37515942  1
  Al  Al27  1  0.89340668  0.53761071  0.12078844  1
  Al  Al28  1  0.45803656  0.40942944  0.87270990  1
  Al  Al29  1  0.56870393  0.52447353  0.63998105  1
  Al  Al30  1  0.11479644  0.76578429  0.31556813  1
  Al  Al31  1  0.20221009  0.87907251  0.06412491  1
  Al  Al32  1  0.88039561  0.87852036  0.62859495  1
  Al  Al33  1  0.42954161  0.76153293  0.30645283  1
  Al  Al34  1  0.10310042  0.77354378  0.82040871  1
  Al  Al35  1  0.88768057  0.88242736  0.12302960  1
  N  N36  1  0.24279435  0.19813727  0.32599018  1
  N  N37  1  0.09337249  0.09247691  0.08944641  1
  N  N38  1  0.88692518  0.20384777  0.83408517  1
  N  N39  1  0.76864426  0.08082250  0.56989105  1
  N  N40  1  0.55906884  0.20331776  0.32321928  1
  N  N41  1  0.46094429  0.10452046  0.06832604  1
  N  N42  1  0.22851856  0.18748822  0.84795120  1
  N  N43  1  0.10607716  0.09859868  0.56525098  1
  N  N44  1  0.86910992  0.20104862  0.32636218  1
  N  N45  1  0.77537116  0.09578786  0.07391471  1
  N  N46  1  0.56064572  0.20066759  0.81785087  1
  N  N47  1  0.45455642  0.10483160  0.56836801  1
  N  N48  1  0.23580089  0.54747033  0.34522577  1
  N  N49  1  0.09913004  0.43927701  0.07954102  1
  N  N50  1  0.87532063  0.52813561  0.82598358  1
  N  N51  1  0.76795461  0.44711469  0.57804312  1
  N  N52  1  0.53420282  0.54872518  0.31321073  1
  N  N53  1  0.46008353  0.39820506  0.06641881  1
  N  N54  1  0.23819649  0.55028635  0.84307822  1
  N  N55  1  0.09572577  0.43873669  0.59718434  1
  N  N56  1  0.88989560  0.53981998  0.31477207  1
  N  N57  1  0.80066541  0.41396135  0.08139838  1
  N  N58  1  0.57499188  0.50733496  0.84523816  1
  N  N59  1  0.47901155  0.41018985  0.57314321  1
  N  N60  1  0.23082613  0.85366316  0.36010730  1
  N  N61  1  0.09976600  0.77991247  0.11198659  1
  N  N62  1  0.88879853  0.88998966  0.82969878  1
  N  N63  1  0.79227063  0.75368114  0.59244286  1
  N  N64  1  0.53686365  0.87675318  0.33848677  1
  N  N65  1  0.41543961  0.77492633  0.09332001  1
  N  N66  1  0.19522060  0.88875415  0.86142138  1
  N  N67  1  0.08972980  0.77109944  0.61992090  1
  N  N68  1  0.89712077  0.88447994  0.32257138  1
  N  N69  1  0.79458755  0.75666317  0.08923630  1
  N  N70  1  0.54740972  0.88864163  0.84117140  1
  N  N71  1  0.45107802  0.73501199  0.63051435  1
