# generated using pymatgen
data_Sc4Al5N9
_symmetry_space_group_name_H-M   'P 1'
_cell_length_a   10.38399175
_cell_length_b   10.34424304
_cell_length_c   9.43475370
_cell_angle_alpha   90.21910624
_cell_angle_beta   90.00822100
_cell_angle_gamma   60.04010810
_symmetry_Int_Tables_number   1
_chemical_formula_structural   Sc4Al5N9
_chemical_formula_sum   'Sc16 Al20 N36'
_cell_volume   878.00209478
_cell_formula_units_Z   4
loop_
 _symmetry_equiv_pos_site_id
 _symmetry_equiv_pos_as_xyz
  1  'x, y, z'
loop_
 _atom_site_type_symbol
 _atom_site_label
 _atom_site_symmetry_multiplicity
 _atom_site_fract_x
 _atom_site_fract_y
 _atom_site_fract_z
 _atom_site_occupancy
  Sc  Sc0  1  0.10439907  0.08866240  0.34313154  1
  Sc  Sc1  1  0.22369058  0.20064332  0.09842317  1
  Sc  Sc2  1  0.86967232  0.21405322  0.60073391  1
  Sc  Sc3  1  0.22678477  0.20603173  0.60103091  1
  Sc  Sc4  1  0.11463731  0.43414516  0.35123251  1
  Sc  Sc5  1  0.23110558  0.54633991  0.08842071  1
  Sc  Sc6  1  0.55862051  0.52741361  0.09985557  1
  Sc  Sc7  1  0.10966201  0.43121264  0.84990703  1
  Sc  Sc8  1  0.23063765  0.54512830  0.59578332  1
  Sc  Sc9  1  0.77841869  0.42643236  0.34575809  1
  Sc  Sc10  1  0.78224537  0.76516625  0.85042527  1
  Sc  Sc11  1  0.55146667  0.87592310  0.10049350  1
  Sc  Sc12  1  0.21884462  0.86618877  0.59523282  1
  Sc  Sc13  1  0.78002698  0.76677669  0.34613331  1
  Sc  Sc14  1  0.44214813  0.74863769  0.84924357  1
  Sc  Sc15  1  0.55373538  0.86743674  0.59981370  1
  Al  Al16  1  0.77448222  0.09019068  0.82743745  1
  Al  Al17  1  0.44882473  0.09479912  0.36805278  1
  Al  Al18  1  0.56528054  0.20224635  0.07390008  1
  Al  Al19  1  0.10551029  0.09544650  0.82596699  1
  Al  Al20  1  0.77642838  0.09427445  0.31908428  1
  Al  Al21  1  0.89123464  0.19512488  0.07063596  1
  Al  Al22  1  0.44879951  0.09751820  0.86787173  1
  Al  Al23  1  0.56868162  0.19785571  0.57152486  1
  Al  Al24  1  0.78015928  0.42107901  0.87730899  1
  Al  Al25  1  0.88013472  0.54244259  0.62366826  1
  Al  Al26  1  0.44918007  0.41912844  0.33038180  1
  Al  Al27  1  0.89428134  0.53858315  0.11409871  1
  Al  Al28  1  0.46625262  0.41488565  0.81695156  1
  Al  Al29  1  0.55840641  0.53723423  0.56587092  1
  Al  Al30  1  0.11117112  0.76922777  0.32212481  1
  Al  Al31  1  0.20154226  0.88268127  0.06682835  1
  Al  Al32  1  0.88615430  0.87653964  0.57228846  1
  Al  Al33  1  0.42658966  0.76410522  0.31869768  1
  Al  Al34  1  0.10032664  0.77359717  0.82730799  1
  Al  Al35  1  0.89180317  0.88062216  0.07809036  1
  N  N36  1  0.23804508  0.19724474  0.34651866  1
  N  N37  1  0.09669224  0.08818462  0.10878815  1
  N  N38  1  0.88595634  0.20324537  0.85716498  1
  N  N39  1  0.76823111  0.07875588  0.62746958  1
  N  N40  1  0.56394953  0.19840619  0.36520741  1
  N  N41  1  0.45571309  0.10306240  0.08422511  1
  N  N42  1  0.23016987  0.19006961  0.84909508  1
  N  N43  1  0.10370975  0.09867528  0.61391739  1
  N  N44  1  0.87336893  0.19703948  0.37104117  1
  N  N45  1  0.77737500  0.09603998  0.11432890  1
  N  N46  1  0.55982619  0.20535235  0.86666935  1
  N  N47  1  0.45678486  0.10092419  0.58466590  1
  N  N48  1  0.23337081  0.55219008  0.35436998  1
  N  N49  1  0.10328752  0.43819461  0.08773911  1
  N  N50  1  0.87597633  0.52962557  0.83346322  1
  N  N51  1  0.76694507  0.45159223  0.57891310  1
  N  N52  1  0.53705956  0.54907650  0.35131860  1
  N  N53  1  0.45815671  0.40099679  0.12921979  1
  N  N54  1  0.24224190  0.54854109  0.84888899  1
  N  N55  1  0.09461780  0.44278756  0.59877959  1
  N  N56  1  0.89128144  0.54136149  0.31823229  1
  N  N57  1  0.80169355  0.41266564  0.09198304  1
  N  N58  1  0.57206620  0.51012500  0.87294361  1
  N  N59  1  0.47800890  0.40910474  0.61064870  1
  N  N60  1  0.22649004  0.85694121  0.36888127  1
  N  N61  1  0.09819604  0.78281931  0.11860532  1
  N  N62  1  0.89643181  0.88545072  0.87731491  1
  N  N63  1  0.79149587  0.75589097  0.59693273  1
  N  N64  1  0.53518251  0.87603324  0.34543833  1
  N  N65  1  0.41387990  0.77017311  0.10374955  1
  N  N66  1  0.19980551  0.88495759  0.85899730  1
  N  N67  1  0.08487394  0.77196470  0.62711355  1
  N  N68  1  0.89971072  0.88413874  0.36661860  1
  N  N69  1  0.79255855  0.75871559  0.09653974  1
  N  N70  1  0.54686652  0.88540440  0.84939155  1
  N  N71  1  0.44957325  0.73574102  0.62308326  1
