# generated using pymatgen
data_Sc4Al5N9
_symmetry_space_group_name_H-M   'P 1'
_cell_length_a   10.32278855
_cell_length_b   10.28255257
_cell_length_c   9.57453372
_cell_angle_alpha   89.89468316
_cell_angle_beta   89.80996648
_cell_angle_gamma   60.01569425
_symmetry_Int_Tables_number   1
_chemical_formula_structural   Sc4Al5N9
_chemical_formula_sum   'Sc16 Al20 N36'
_cell_volume   880.26309957
_cell_formula_units_Z   4
loop_
 _symmetry_equiv_pos_site_id
 _symmetry_equiv_pos_as_xyz
  1  'x, y, z'
loop_
 _atom_site_type_symbol
 _atom_site_label
 _atom_site_symmetry_multiplicity
 _atom_site_fract_x
 _atom_site_fract_y
 _atom_site_fract_z
 _atom_site_occupancy
  Sc  Sc0  1  0.10454984  0.08889716  0.32859757  1
  Sc  Sc1  1  0.22542920  0.19889150  0.07938617  1
  Sc  Sc2  1  0.87530895  0.20289395  0.59236100  1
  Sc  Sc3  1  0.22739059  0.20642479  0.58134716  1
  Sc  Sc4  1  0.11601486  0.43343007  0.33025150  1
  Sc  Sc5  1  0.23178396  0.54703955  0.07745835  1
  Sc  Sc6  1  0.56654219  0.52387260  0.08719760  1
  Sc  Sc7  1  0.10814218  0.43141478  0.83492802  1
  Sc  Sc8  1  0.23028555  0.54454060  0.58590422  1
  Sc  Sc9  1  0.77940857  0.42279541  0.33768080  1
  Sc  Sc10  1  0.78173788  0.76488739  0.83309666  1
  Sc  Sc11  1  0.55310797  0.87569568  0.08446879  1
  Sc  Sc12  1  0.22002313  0.86560110  0.58513512  1
  Sc  Sc13  1  0.77979898  0.76777000  0.33070468  1
  Sc  Sc14  1  0.44136209  0.75100097  0.84122622  1
  Sc  Sc15  1  0.55079134  0.87057063  0.58048674  1
  Al  Al16  1  0.77297672  0.09050829  0.82197332  1
  Al  Al17  1  0.45005691  0.09734574  0.31558090  1
  Al  Al18  1  0.56417415  0.20181216  0.06640177  1
  Al  Al19  1  0.10655132  0.09592972  0.81755306  1
  Al  Al20  1  0.77609621  0.09480875  0.31158826  1
  Al  Al21  1  0.88749657  0.20376514  0.05643310  1
  Al  Al22  1  0.44987076  0.09873913  0.81702773  1
  Al  Al23  1  0.56612887  0.19747906  0.56551494  1
  Al  Al24  1  0.77239095  0.42810878  0.81180662  1
  Al  Al25  1  0.88480345  0.54559969  0.57272666  1
  Al  Al26  1  0.44964504  0.42021729  0.32209390  1
  Al  Al27  1  0.89009079  0.53426044  0.07272538  1
  Al  Al28  1  0.46376501  0.41510895  0.81174153  1
  Al  Al29  1  0.55590823  0.53692653  0.56112603  1
  Al  Al30  1  0.11183232  0.76909887  0.31440441  1
  Al  Al31  1  0.20138894  0.88260525  0.05866066  1
  Al  Al32  1  0.88501515  0.87670009  0.56360959  1
  Al  Al33  1  0.42820592  0.76304490  0.30913568  1
  Al  Al34  1  0.09980190  0.77413327  0.81876783  1
  Al  Al35  1  0.89205173  0.88057238  0.07063460  1
  N  N36  1  0.23908439  0.19604253  0.34696587  1
  N  N37  1  0.09517119  0.08972854  0.10080122  1
  N  N38  1  0.88334798  0.20715283  0.84816802  1
  N  N39  1  0.76605477  0.07694703  0.62538575  1
  N  N40  1  0.56209620  0.19805563  0.36629166  1
  N  N41  1  0.45857483  0.10379516  0.11663048  1
  N  N42  1  0.23066430  0.19004328  0.84763885  1
  N  N43  1  0.10794088  0.09651637  0.61237782  1
  N  N44  1  0.87474112  0.19371908  0.37268814  1
  N  N45  1  0.77741422  0.09793824  0.10979311  1
  N  N46  1  0.55711675  0.20441704  0.86738651  1
  N  N47  1  0.45645480  0.10440836  0.61803046  1
  N  N48  1  0.23415605  0.55210773  0.35014740  1
  N  N49  1  0.10193121  0.43833541  0.08993938  1
  N  N50  1  0.87515689  0.53044048  0.85759338  1
  N  N51  1  0.76715562  0.44776110  0.60218952  1
  N  N52  1  0.53861287  0.54812239  0.35256687  1
  N  N53  1  0.45994441  0.40181817  0.12484203  1
  N  N54  1  0.24052606  0.54952520  0.84455685  1
  N  N55  1  0.09664381  0.44184993  0.59943610  1
  N  N56  1  0.89017120  0.54119258  0.36298725  1
  N  N57  1  0.80391777  0.41070090  0.11262841  1
  N  N58  1  0.57146451  0.51020088  0.86616990  1
  N  N59  1  0.47682760  0.40860301  0.60989628  1
  N  N60  1  0.22746112  0.85702534  0.36261561  1
  N  N61  1  0.09836764  0.78292319  0.11496974  1
  N  N62  1  0.89601368  0.88488540  0.87403490  1
  N  N63  1  0.78804817  0.75929943  0.59444438  1
  N  N64  1  0.53458095  0.87696080  0.34233280  1
  N  N65  1  0.41553590  0.76874995  0.09888504  1
  N  N66  1  0.19938365  0.88491704  0.85475055  1
  N  N67  1  0.08384585  0.77298400  0.62223626  1
  N  N68  1  0.89984798  0.88449845  0.36234914  1
  N  N69  1  0.79520327  0.75429767  0.09703703  1
  N  N70  1  0.54608470  0.88774075  0.85231896  1
  N  N71  1  0.45107841  0.73649689  0.61936494  1
