# generated using pymatgen
data_Sc4Al5N9
_symmetry_space_group_name_H-M   'P 1'
_cell_length_a   10.27406557
_cell_length_b   10.22758228
_cell_length_c   9.75310784
_cell_angle_alpha   90.06559041
_cell_angle_beta   90.25729944
_cell_angle_gamma   60.23438228
_symmetry_Int_Tables_number   1
_chemical_formula_structural   Sc4Al5N9
_chemical_formula_sum   'Sc16 Al20 N36'
_cell_volume   889.62121299
_cell_formula_units_Z   4
loop_
 _symmetry_equiv_pos_site_id
 _symmetry_equiv_pos_as_xyz
  1  'x, y, z'
loop_
 _atom_site_type_symbol
 _atom_site_label
 _atom_site_symmetry_multiplicity
 _atom_site_fract_x
 _atom_site_fract_y
 _atom_site_fract_z
 _atom_site_occupancy
  Sc  Sc0  1  0.11211382  0.08732381  0.34348827  1
  Sc  Sc1  1  0.22828908  0.20322612  0.10118787  1
  Sc  Sc2  1  0.87854652  0.20885257  0.61166244  1
  Sc  Sc3  1  0.22526456  0.20209978  0.61924234  1
  Sc  Sc4  1  0.11603535  0.42904771  0.36333821  1
  Sc  Sc5  1  0.23013271  0.54287827  0.09768463  1
  Sc  Sc6  1  0.55472564  0.53685400  0.10008271  1
  Sc  Sc7  1  0.10692934  0.43295205  0.85523910  1
  Sc  Sc8  1  0.23426440  0.54144687  0.60467456  1
  Sc  Sc9  1  0.76847315  0.43344079  0.35776399  1
  Sc  Sc10  1  0.77857967  0.76402940  0.86603644  1
  Sc  Sc11  1  0.54914308  0.87415436  0.11607218  1
  Sc  Sc12  1  0.21348962  0.87250824  0.59144259  1
  Sc  Sc13  1  0.78492099  0.76413186  0.36249571  1
  Sc  Sc14  1  0.43663609  0.76022271  0.84591643  1
  Sc  Sc15  1  0.55604274  0.87323316  0.60450734  1
  Al  Al16  1  0.77609956  0.09795362  0.87857435  1
  Al  Al17  1  0.44813855  0.10063647  0.37395399  1
  Al  Al18  1  0.56604700  0.19921202  0.12685195  1
  Al  Al19  1  0.09469397  0.10183421  0.87988418  1
  Al  Al20  1  0.77386299  0.08974177  0.37472703  1
  Al  Al21  1  0.88068353  0.20083769  0.12601539  1
  Al  Al22  1  0.45349114  0.09656388  0.87481907  1
  Al  Al23  1  0.56444510  0.20096131  0.62257380  1
  Al  Al24  1  0.78519328  0.41469485  0.88163087  1
  Al  Al25  1  0.88102359  0.54099531  0.62904841  1
  Al  Al26  1  0.45525656  0.42408118  0.37464568  1
  Al  Al27  1  0.89285161  0.53779008  0.12046647  1
  Al  Al28  1  0.45890219  0.41089103  0.87268287  1
  Al  Al29  1  0.56986751  0.52347023  0.63471987  1
  Al  Al30  1  0.11717294  0.76545485  0.31502157  1
  Al  Al31  1  0.20580706  0.87704298  0.05970980  1
  Al  Al32  1  0.87951346  0.87813227  0.62957631  1
  Al  Al33  1  0.43904394  0.75272314  0.36820240  1
  Al  Al34  1  0.10152897  0.77221573  0.82139189  1
  Al  Al35  1  0.88765307  0.88224389  0.12269737  1
  N  N36  1  0.24356838  0.19690998  0.32431630  1
  N  N37  1  0.09414687  0.09086618  0.08677378  1
  N  N38  1  0.88532089  0.20526947  0.83468153  1
  N  N39  1  0.76841947  0.08029431  0.56974724  1
  N  N40  1  0.55989163  0.20239362  0.32210466  1
  N  N41  1  0.46243167  0.10054879  0.06868540  1
  N  N42  1  0.22815500  0.18828447  0.84819294  1
  N  N43  1  0.10299621  0.10285021  0.56480396  1
  N  N44  1  0.87087195  0.19881939  0.32470127  1
  N  N45  1  0.77545863  0.09519012  0.07378159  1
  N  N46  1  0.56053130  0.20123749  0.81887216  1
  N  N47  1  0.45259550  0.10917653  0.56822341  1
  N  N48  1  0.23701772  0.54654559  0.34379092  1
  N  N49  1  0.09885096  0.43953889  0.07892852  1
  N  N50  1  0.87416169  0.52932741  0.82601539  1
  N  N51  1  0.76967795  0.44667115  0.57606631  1
  N  N52  1  0.53598886  0.54852351  0.31868305  1
  N  N53  1  0.46178326  0.39922895  0.06678388  1
  N  N54  1  0.23860056  0.55008752  0.84319087  1
  N  N55  1  0.09588028  0.43922720  0.59711488  1
  N  N56  1  0.89175612  0.53869347  0.31438449  1
  N  N57  1  0.79775789  0.41568450  0.08178170  1
  N  N58  1  0.57363671  0.51003010  0.83810864  1
  N  N59  1  0.47937750  0.40935421  0.57216959  1
  N  N60  1  0.23134408  0.85257761  0.36611479  1
  N  N61  1  0.10080315  0.78034675  0.11015961  1
  N  N62  1  0.88737296  0.88966344  0.83094624  1
  N  N63  1  0.79350857  0.75318708  0.59119984  1
  N  N64  1  0.53783821  0.87554387  0.34707305  1
  N  N65  1  0.41673283  0.77367436  0.07066389  1
  N  N66  1  0.19379336  0.89009346  0.85196111  1
  N  N67  1  0.08787790  0.76960969  0.62089694  1
  N  N68  1  0.89905517  0.88345784  0.32185162  1
  N  N69  1  0.79077171  0.75776741  0.09137478  1
  N  N70  1  0.54622885  0.88975014  0.83201933  1
  N  N71  1  0.45178150  0.73520919  0.60455346  1
