# generated using pymatgen
data_Sc4Al5N9
_symmetry_space_group_name_H-M   'P 1'
_cell_length_a   10.34669624
_cell_length_b   10.31031233
_cell_length_c   9.54472210
_cell_angle_alpha   90.10467110
_cell_angle_beta   90.03534041
_cell_angle_gamma   60.18709328
_symmetry_Int_Tables_number   1
_chemical_formula_structural   Sc4Al5N9
_chemical_formula_sum   'Sc16 Al20 N36'
_cell_volume   883.45080941
_cell_formula_units_Z   4
loop_
 _symmetry_equiv_pos_site_id
 _symmetry_equiv_pos_as_xyz
  1  'x, y, z'
loop_
 _atom_site_type_symbol
 _atom_site_label
 _atom_site_symmetry_multiplicity
 _atom_site_fract_x
 _atom_site_fract_y
 _atom_site_fract_z
 _atom_site_occupancy
  Sc  Sc0  1  0.10587764  0.09034364  0.34261995  1
  Sc  Sc1  1  0.22540861  0.20224140  0.10103955  1
  Sc  Sc2  1  0.87584077  0.20894119  0.59632521  1
  Sc  Sc3  1  0.22889516  0.20332974  0.60751608  1
  Sc  Sc4  1  0.11388595  0.43268043  0.35795889  1
  Sc  Sc5  1  0.22796829  0.54677569  0.09870214  1
  Sc  Sc6  1  0.55857613  0.52902113  0.09536473  1
  Sc  Sc7  1  0.10857011  0.43173952  0.85340130  1
  Sc  Sc8  1  0.23268249  0.54320238  0.60315130  1
  Sc  Sc9  1  0.76568530  0.43479173  0.35540023  1
  Sc  Sc10  1  0.78194519  0.76496540  0.84895448  1
  Sc  Sc11  1  0.55316858  0.87713634  0.10006672  1
  Sc  Sc12  1  0.22207952  0.86459674  0.59038449  1
  Sc  Sc13  1  0.78059721  0.76568759  0.34458328  1
  Sc  Sc14  1  0.43706467  0.75870097  0.85043904  1
  Sc  Sc15  1  0.55441814  0.86621287  0.59627159  1
  Al  Al16  1  0.77708751  0.08898001  0.82501745  1
  Al  Al17  1  0.44957480  0.09837427  0.37017104  1
  Al  Al18  1  0.56176733  0.20200266  0.12551972  1
  Al  Al19  1  0.10442962  0.09595469  0.84458761  1
  Al  Al20  1  0.77939525  0.09325936  0.32054638  1
  Al  Al21  1  0.88748087  0.19778479  0.07237397  1
  Al  Al22  1  0.45045988  0.09842283  0.87320954  1
  Al  Al23  1  0.56291518  0.19971815  0.62088762  1
  Al  Al24  1  0.78400908  0.41851990  0.87493206  1
  Al  Al25  1  0.88157359  0.54148444  0.62456161  1
  Al  Al26  1  0.45482096  0.42600864  0.37514458  1
  Al  Al27  1  0.89305494  0.53718490  0.11676289  1
  Al  Al28  1  0.45586744  0.41074062  0.87262288  1
  Al  Al29  1  0.56731859  0.52556277  0.63687374  1
  Al  Al30  1  0.11207422  0.76905035  0.32155749  1
  Al  Al31  1  0.20037334  0.88202228  0.06526182  1
  Al  Al32  1  0.88745820  0.87498825  0.56932379  1
  Al  Al33  1  0.42811338  0.76172617  0.31026936  1
  Al  Al34  1  0.09965154  0.77361906  0.82326299  1
  Al  Al35  1  0.89168826  0.88071822  0.07481988  1
  N  N36  1  0.24002187  0.19761403  0.33733115  1
  N  N37  1  0.09630874  0.09023095  0.09799314  1
  N  N38  1  0.88590760  0.20233145  0.85518797  1
  N  N39  1  0.77256694  0.07654938  0.62348047  1
  N  N40  1  0.55832676  0.20442123  0.32798495  1
  N  N41  1  0.45801182  0.10454764  0.07381175  1
  N  N42  1  0.23054837  0.18900129  0.84710153  1
  N  N43  1  0.10761225  0.09623956  0.59841783  1
  N  N44  1  0.87262631  0.20126014  0.36568481  1
  N  N45  1  0.77849597  0.09451424  0.11317448  1
  N  N46  1  0.55376947  0.20351894  0.82461864  1
  N  N47  1  0.45868856  0.10112976  0.57026147  1
  N  N48  1  0.23558846  0.54959025  0.34996352  1
  N  N49  1  0.10093644  0.43854638  0.08559405  1
  N  N50  1  0.87634164  0.52999352  0.82911946  1
  N  N51  1  0.76739607  0.44935980  0.58314185  1
  N  N52  1  0.53414248  0.54953085  0.31808400  1
  N  N53  1  0.45779069  0.40071264  0.07146978  1
  N  N54  1  0.23660063  0.55155643  0.84735476  1
  N  N55  1  0.09604483  0.44052950  0.59770922  1
  N  N56  1  0.88967865  0.53899162  0.31703369  1
  N  N57  1  0.79924234  0.41475149  0.08269412  1
  N  N58  1  0.57291216  0.50846872  0.84604730  1
  N  N59  1  0.47837416  0.40944374  0.57732009  1
  N  N60  1  0.22900785  0.85642035  0.36468408  1
  N  N61  1  0.09696375  0.78381851  0.12044486  1
  N  N62  1  0.89680804  0.88507294  0.87634162  1
  N  N63  1  0.79216758  0.75446588  0.59414142  1
  N  N64  1  0.53598487  0.87617563  0.33959266  1
  N  N65  1  0.41372211  0.77398423  0.09403069  1
  N  N66  1  0.19713881  0.88562595  0.85848127  1
  N  N67  1  0.08625826  0.77138117  0.62521439  1
  N  N68  1  0.90072896  0.88353109  0.36724295  1
  N  N69  1  0.79361280  0.75736177  0.09484626  1
  N  N70  1  0.54739321  0.88812499  0.84498909  1
  N  N71  1  0.45140145  0.73439750  0.62710881  1
