# generated using pymatgen
data_Sc4Al5N9
_symmetry_space_group_name_H-M   'P 1'
_cell_length_a   10.41042691
_cell_length_b   10.37899771
_cell_length_c   9.33586097
_cell_angle_alpha   90.21882951
_cell_angle_beta   89.99223879
_cell_angle_gamma   60.09070058
_symmetry_Int_Tables_number   1
_chemical_formula_structural   Sc4Al5N9
_chemical_formula_sum   'Sc16 Al20 N36'
_cell_volume   874.38116786
_cell_formula_units_Z   4
loop_
 _symmetry_equiv_pos_site_id
 _symmetry_equiv_pos_as_xyz
  1  'x, y, z'
loop_
 _atom_site_type_symbol
 _atom_site_label
 _atom_site_symmetry_multiplicity
 _atom_site_fract_x
 _atom_site_fract_y
 _atom_site_fract_z
 _atom_site_occupancy
  Sc  Sc0  1  0.10538701  0.08863144  0.34354455  1
  Sc  Sc1  1  0.22397653  0.20056907  0.09779756  1
  Sc  Sc2  1  0.87110263  0.21329967  0.60142848  1
  Sc  Sc3  1  0.22701893  0.20588205  0.60116665  1
  Sc  Sc4  1  0.11404344  0.43400247  0.34979117  1
  Sc  Sc5  1  0.23141819  0.54586778  0.08957387  1
  Sc  Sc6  1  0.55797791  0.52735864  0.09960302  1
  Sc  Sc7  1  0.10954129  0.43115690  0.84971224  1
  Sc  Sc8  1  0.22864931  0.54625194  0.59582153  1
  Sc  Sc9  1  0.77865280  0.42627587  0.34518417  1
  Sc  Sc10  1  0.78211820  0.76553824  0.85025639  1
  Sc  Sc11  1  0.55132462  0.87587331  0.10002680  1
  Sc  Sc12  1  0.21866878  0.86650656  0.59618582  1
  Sc  Sc13  1  0.78046524  0.76594843  0.34538081  1
  Sc  Sc14  1  0.44214639  0.74917529  0.84931308  1
  Sc  Sc15  1  0.55368135  0.86791286  0.59941708  1
  Al  Al16  1  0.77279595  0.09112883  0.82847807  1
  Al  Al17  1  0.44892625  0.09431755  0.36746902  1
  Al  Al18  1  0.56512074  0.20108528  0.09171647  1
  Al  Al19  1  0.10565111  0.09546150  0.82873083  1
  Al  Al20  1  0.77920133  0.09212571  0.32329050  1
  Al  Al21  1  0.89037159  0.19564188  0.07199037  1
  Al  Al22  1  0.45028898  0.09871619  0.86877514  1
  Al  Al23  1  0.56805175  0.19698862  0.57664943  1
  Al  Al24  1  0.77912229  0.42106071  0.87432448  1
  Al  Al25  1  0.88027612  0.54237731  0.62320565  1
  Al  Al26  1  0.44873381  0.42140170  0.33659503  1
  Al  Al27  1  0.89359042  0.53823846  0.11118254  1
  Al  Al28  1  0.46497231  0.41463584  0.81653138  1
  Al  Al29  1  0.55900892  0.53790756  0.56756258  1
  Al  Al30  1  0.11151475  0.76895816  0.32212240  1
  Al  Al31  1  0.20231880  0.88240629  0.06777435  1
  Al  Al32  1  0.88691295  0.87539825  0.57319734  1
  Al  Al33  1  0.42734596  0.76408765  0.31999288  1
  Al  Al34  1  0.09991977  0.77408831  0.82943550  1
  Al  Al35  1  0.89157498  0.88085092  0.07929680  1
  N  N36  1  0.23816766  0.19738116  0.34576457  1
  N  N37  1  0.09686384  0.08850527  0.10556130  1
  N  N38  1  0.88526238  0.20340374  0.85639181  1
  N  N39  1  0.76957548  0.07834836  0.62421216  1
  N  N40  1  0.56469764  0.19637130  0.35956458  1
  N  N41  1  0.45596879  0.10283537  0.08500885  1
  N  N42  1  0.23074406  0.19033894  0.84909106  1
  N  N43  1  0.10448667  0.09844446  0.61259415  1
  N  N44  1  0.87483424  0.19718313  0.36911746  1
  N  N45  1  0.77842601  0.09515217  0.11506614  1
  N  N46  1  0.55849805  0.20577968  0.86066591  1
  N  N47  1  0.45656844  0.10055960  0.58281813  1
  N  N48  1  0.23181076  0.55319812  0.35373340  1
  N  N49  1  0.10329820  0.43785812  0.08883899  1
  N  N50  1  0.87585758  0.53014524  0.83636462  1
  N  N51  1  0.76723470  0.45068819  0.58199343  1
  N  N52  1  0.53807658  0.55007354  0.35144211  1
  N  N53  1  0.45722205  0.40266006  0.13100667  1
  N  N54  1  0.24211799  0.54813231  0.84811341  1
  N  N55  1  0.09417762  0.44240357  0.59906512  1
  N  N56  1  0.89082325  0.54112269  0.31884935  1
  N  N57  1  0.80036881  0.41264511  0.09170625  1
  N  N58  1  0.57103952  0.51039483  0.86927143  1
  N  N59  1  0.47594518  0.41022584  0.60408770  1
  N  N60  1  0.22639616  0.85727997  0.36653704  1
  N  N61  1  0.09859000  0.78232944  0.11581282  1
  N  N62  1  0.89531981  0.88625803  0.87599644  1
  N  N63  1  0.79167200  0.75546365  0.59716862  1
  N  N64  1  0.53556729  0.87584030  0.34513763  1
  N  N65  1  0.41457250  0.76988404  0.10260943  1
  N  N66  1  0.20036378  0.88469895  0.85768682  1
  N  N67  1  0.08514244  0.77213109  0.62653528  1
  N  N68  1  0.90094368  0.88232978  0.36520338  1
  N  N69  1  0.79226816  0.75882681  0.09659883  1
  N  N70  1  0.54671835  0.88626872  0.84910193  1
  N  N71  1  0.44944047  0.73697740  0.62071282  1
