# generated using pymatgen
data_Sc4Al5N9
_symmetry_space_group_name_H-M   'P 1'
_cell_length_a   10.15703163
_cell_length_b   10.12086137
_cell_length_c   10.02349194
_cell_angle_alpha   89.93929840
_cell_angle_beta   90.05117157
_cell_angle_gamma   60.04208894
_symmetry_Int_Tables_number   1
_chemical_formula_structural   Sc4Al5N9
_chemical_formula_sum   'Sc16 Al20 N36'
_cell_volume   892.72390591
_cell_formula_units_Z   4
loop_
 _symmetry_equiv_pos_site_id
 _symmetry_equiv_pos_as_xyz
  1  'x, y, z'
loop_
 _atom_site_type_symbol
 _atom_site_label
 _atom_site_symmetry_multiplicity
 _atom_site_fract_x
 _atom_site_fract_y
 _atom_site_fract_z
 _atom_site_occupancy
  Sc  Sc0  1  0.10998624  0.09281056  0.36785527  1
  Sc  Sc1  1  0.22803339  0.20453623  0.12197630  1
  Sc  Sc2  1  0.87934246  0.20793774  0.64099743  1
  Sc  Sc3  1  0.22551250  0.19939962  0.65343840  1
  Sc  Sc4  1  0.11694328  0.42459825  0.39659918  1
  Sc  Sc5  1  0.22702489  0.54499145  0.13871611  1
  Sc  Sc6  1  0.55497574  0.53574570  0.12798158  1
  Sc  Sc7  1  0.10756911  0.43660800  0.88170221  1
  Sc  Sc8  1  0.23370582  0.54306946  0.63485316  1
  Sc  Sc9  1  0.76893608  0.43231447  0.38444398  1
  Sc  Sc10  1  0.77656585  0.76735903  0.88815098  1
  Sc  Sc11  1  0.55008419  0.87259772  0.14870527  1
  Sc  Sc12  1  0.20686538  0.87791378  0.63341232  1
  Sc  Sc13  1  0.78680125  0.76252310  0.38823384  1
  Sc  Sc14  1  0.43298266  0.76359608  0.87686980  1
  Sc  Sc15  1  0.55524552  0.87324774  0.62398571  1
  Al  Al16  1  0.77829629  0.09592536  0.89880868  1
  Al  Al17  1  0.44723251  0.10144556  0.39665044  1
  Al  Al18  1  0.56596430  0.19863466  0.14641163  1
  Al  Al19  1  0.10037547  0.09166959  0.91159983  1
  Al  Al20  1  0.77439880  0.09023182  0.39436259  1
  Al  Al21  1  0.88128499  0.20037918  0.14521164  1
  Al  Al22  1  0.45426543  0.09481094  0.89825201  1
  Al  Al23  1  0.56428595  0.20027832  0.64461030  1
  Al  Al24  1  0.78376720  0.41688520  0.90245454  1
  Al  Al25  1  0.88126187  0.54097846  0.65388785  1
  Al  Al26  1  0.45530657  0.42135687  0.39837629  1
  Al  Al27  1  0.89279366  0.53806821  0.14292047  1
  Al  Al28  1  0.45585986  0.41509272  0.89429649  1
  Al  Al29  1  0.56676805  0.52541086  0.65334604  1
  Al  Al30  1  0.10884043  0.76408991  0.39382619  1
  Al  Al31  1  0.21382599  0.86991576  0.14850862  1
  Al  Al32  1  0.88640828  0.87435555  0.64791710  1
  Al  Al33  1  0.43740242  0.75015470  0.40255742  1
  Al  Al34  1  0.10506696  0.77674195  0.89895299  1
  Al  Al35  1  0.89074267  0.87988304  0.14463877  1
  N  N36  1  0.24490536  0.19737736  0.33670997  1
  N  N37  1  0.09749482  0.08568717  0.10892608  1
  N  N38  1  0.88856945  0.20387758  0.85707102  1
  N  N39  1  0.76976372  0.07983935  0.58535594  1
  N  N40  1  0.55981356  0.20176241  0.33840433  1
  N  N41  1  0.46601981  0.09594865  0.08598047  1
  N  N42  1  0.22806775  0.18832910  0.87398543  1
  N  N43  1  0.10360859  0.10400926  0.57809482  1
  N  N44  1  0.86950303  0.19995471  0.33739851  1
  N  N45  1  0.77618492  0.09343958  0.08934334  1
  N  N46  1  0.56023461  0.20163086  0.83696345  1
  N  N47  1  0.44911008  0.11223473  0.58523453  1
  N  N48  1  0.23610643  0.54361174  0.36205022  1
  N  N49  1  0.09826902  0.44270376  0.09449983  1
  N  N50  1  0.87277527  0.53233789  0.84382724  1
  N  N51  1  0.77040298  0.44577111  0.59670886  1
  N  N52  1  0.53580504  0.54667125  0.33929283  1
  N  N53  1  0.45788275  0.40143600  0.08323322  1
  N  N54  1  0.23703729  0.55636672  0.85309638  1
  N  N55  1  0.09764618  0.43629084  0.62023289  1
  N  N56  1  0.89380161  0.53619484  0.33173762  1
  N  N57  1  0.79747530  0.41659394  0.09679212  1
  N  N58  1  0.57131875  0.51338566  0.85064546  1
  N  N59  1  0.47824139  0.40878627  0.58971186  1
  N  N60  1  0.23017347  0.85171437  0.34450838  1
  N  N61  1  0.09762402  0.78175197  0.08909416  1
  N  N62  1  0.89611191  0.88556986  0.83910443  1
  N  N63  1  0.79528755  0.75207536  0.60786501  1
  N  N64  1  0.53880687  0.87484369  0.37056192  1
  N  N65  1  0.41788524  0.77356022  0.08837171  1
  N  N66  1  0.19516453  0.89182643  0.84440307  1
  N  N67  1  0.08578335  0.77153273  0.58122990  1
  N  N68  1  0.90064009  0.88235605  0.33349996  1
  N  N69  1  0.79003765  0.75807540  0.10771362  1
  N  N70  1  0.54402451  0.89061763  0.84105327  1
  N  N71  1  0.44534809  0.73600038  0.60199620  1
