# generated using pymatgen
data_Sc4Al5N9
_symmetry_space_group_name_H-M   'P 1'
_cell_length_a   10.33144799
_cell_length_b   10.29186085
_cell_length_c   9.58303155
_cell_angle_alpha   89.95012867
_cell_angle_beta   90.01102944
_cell_angle_gamma   60.21780507
_symmetry_Int_Tables_number   1
_chemical_formula_structural   Sc4Al5N9
_chemical_formula_sum   'Sc16 Al20 N36'
_cell_volume   884.37684046
_cell_formula_units_Z   4
loop_
 _symmetry_equiv_pos_site_id
 _symmetry_equiv_pos_as_xyz
  1  'x, y, z'
loop_
 _atom_site_type_symbol
 _atom_site_label
 _atom_site_symmetry_multiplicity
 _atom_site_fract_x
 _atom_site_fract_y
 _atom_site_fract_z
 _atom_site_occupancy
  Sc  Sc0  1  0.11117495  0.08858902  0.34485810  1
  Sc  Sc1  1  0.22815592  0.20376464  0.10192519  1
  Sc  Sc2  1  0.87990950  0.20747598  0.60865325  1
  Sc  Sc3  1  0.22620728  0.20214165  0.61255403  1
  Sc  Sc4  1  0.11448064  0.43203016  0.35934628  1
  Sc  Sc5  1  0.22909338  0.54539772  0.09707759  1
  Sc  Sc6  1  0.55897290  0.52877014  0.09476062  1
  Sc  Sc7  1  0.10785355  0.43223120  0.85348771  1
  Sc  Sc8  1  0.23307373  0.54333438  0.60390088  1
  Sc  Sc9  1  0.76488966  0.43601544  0.35701365  1
  Sc  Sc10  1  0.78169402  0.76450755  0.84962422  1
  Sc  Sc11  1  0.55283556  0.87811256  0.10010886  1
  Sc  Sc12  1  0.22116356  0.86720034  0.58936597  1
  Sc  Sc13  1  0.78028320  0.76445089  0.34447411  1
  Sc  Sc14  1  0.43628082  0.75922148  0.85005000  1
  Sc  Sc15  1  0.55380903  0.86710305  0.59734494  1
  Al  Al16  1  0.77618170  0.09993465  0.87679955  1
  Al  Al17  1  0.44875727  0.09913863  0.37206289  1
  Al  Al18  1  0.56483269  0.20080760  0.12811399  1
  Al  Al19  1  0.09683675  0.10013639  0.87757021  1
  Al  Al20  1  0.77165300  0.09310311  0.37335357  1
  Al  Al21  1  0.88147175  0.20078866  0.12753455  1
  Al  Al22  1  0.45226908  0.09815470  0.87186278  1
  Al  Al23  1  0.56494524  0.19952330  0.62196809  1
  Al  Al24  1  0.78773739  0.41259504  0.88014071  1
  Al  Al25  1  0.88135834  0.54001515  0.62598841  1
  Al  Al26  1  0.45389269  0.42699628  0.37521348  1
  Al  Al27  1  0.89317846  0.53652710  0.11698389  1
  Al  Al28  1  0.45775553  0.40984745  0.87172622  1
  Al  Al29  1  0.56836862  0.52479673  0.63792509  1
  Al  Al30  1  0.11295862  0.76727507  0.31869238  1
  Al  Al31  1  0.20204469  0.87958594  0.06679734  1
  Al  Al32  1  0.88846422  0.87118067  0.57005670  1
  Al  Al33  1  0.42906582  0.76109058  0.30988724  1
  Al  Al34  1  0.09896560  0.77575024  0.82285394  1
  Al  Al35  1  0.89118295  0.87932508  0.07642291  1
  N  N36  1  0.24216569  0.19859766  0.33173402  1
  N  N37  1  0.09411536  0.09217871  0.09067335  1
  N  N38  1  0.88711891  0.20392229  0.83610015  1
  N  N39  1  0.76817879  0.08258496  0.57582069  1
  N  N40  1  0.55865433  0.20370930  0.32638888  1
  N  N41  1  0.45992752  0.10515314  0.07080906  1
  N  N42  1  0.22852824  0.18859008  0.84818726  1
  N  N43  1  0.10653299  0.09796249  0.57057357  1
  N  N44  1  0.87111440  0.19982468  0.33077053  1
  N  N45  1  0.77330076  0.09918677  0.08045811  1
  N  N46  1  0.56110645  0.20057930  0.82122398  1
  N  N47  1  0.45604111  0.10344469  0.57175869  1
  N  N48  1  0.23628262  0.54859553  0.34852713  1
  N  N49  1  0.10051198  0.43930962  0.08395798  1
  N  N50  1  0.87572292  0.52850373  0.82906249  1
  N  N51  1  0.76840582  0.44672312  0.57973266  1
  N  N52  1  0.53459570  0.54914811  0.31689872  1
  N  N53  1  0.45873525  0.39952260  0.06988166  1
  N  N54  1  0.23781786  0.55101791  0.84595424  1
  N  N55  1  0.09600711  0.44007894  0.59810357  1
  N  N56  1  0.89026945  0.53786073  0.31617231  1
  N  N57  1  0.79996887  0.41348198  0.08414445  1
  N  N58  1  0.57496554  0.50758510  0.84627010  1
  N  N59  1  0.47790634  0.41021146  0.57674666  1
  N  N60  1  0.23014716  0.85397728  0.36179171  1
  N  N61  1  0.09722186  0.78274951  0.11791043  1
  N  N62  1  0.89547870  0.88555887  0.87170962  1
  N  N63  1  0.79171007  0.75345876  0.59440525  1
  N  N64  1  0.53520642  0.87723094  0.33976951  1
  N  N65  1  0.41448976  0.77393716  0.09367345  1
  N  N66  1  0.19599990  0.88831561  0.85900723  1
  N  N67  1  0.08663874  0.77274488  0.62503390  1
  N  N68  1  0.90314139  0.87758677  0.36146367  1
  N  N69  1  0.79293615  0.75663762  0.09381533  1
  N  N70  1  0.54692519  0.88824169  0.84388016  1
  N  N71  1  0.45118529  0.73440036  0.62707739  1
