# generated using pymatgen
data_Sc4Al5N9
_symmetry_space_group_name_H-M   'P 1'
_cell_length_a   10.41108933
_cell_length_b   10.38016041
_cell_length_c   9.33354726
_cell_angle_alpha   90.21924386
_cell_angle_beta   89.98979666
_cell_angle_gamma   60.09551774
_symmetry_Int_Tables_number   1
_chemical_formula_structural   Sc4Al5N9
_chemical_formula_sum   'Sc16 Al20 N36'
_cell_volume   874.36017457
_cell_formula_units_Z   4
loop_
 _symmetry_equiv_pos_site_id
 _symmetry_equiv_pos_as_xyz
  1  'x, y, z'
loop_
 _atom_site_type_symbol
 _atom_site_label
 _atom_site_symmetry_multiplicity
 _atom_site_fract_x
 _atom_site_fract_y
 _atom_site_fract_z
 _atom_site_occupancy
  Sc  Sc0  1  0.10547094  0.08862609  0.34351697  1
  Sc  Sc1  1  0.22399397  0.20058214  0.09771594  1
  Sc  Sc2  1  0.87118334  0.21331323  0.60141160  1
  Sc  Sc3  1  0.22699026  0.20586364  0.60122449  1
  Sc  Sc4  1  0.11402127  0.43397482  0.34973766  1
  Sc  Sc5  1  0.23137086  0.54588078  0.08954918  1
  Sc  Sc6  1  0.55797651  0.52735288  0.09954775  1
  Sc  Sc7  1  0.10954879  0.43113664  0.84969554  1
  Sc  Sc8  1  0.22853392  0.54633100  0.59577365  1
  Sc  Sc9  1  0.77867273  0.42630601  0.34512494  1
  Sc  Sc10  1  0.78210633  0.76555227  0.85024533  1
  Sc  Sc11  1  0.55131683  0.87591545  0.09994943  1
  Sc  Sc12  1  0.21866627  0.86652184  0.59618870  1
  Sc  Sc13  1  0.78046090  0.76589667  0.34532819  1
  Sc  Sc14  1  0.44213734  0.74921833  0.84930435  1
  Sc  Sc15  1  0.55370243  0.86785785  0.59944175  1
  Al  Al16  1  0.77266151  0.09119106  0.82846773  1
  Al  Al17  1  0.44892605  0.09422821  0.36800040  1
  Al  Al18  1  0.56508742  0.20064536  0.09715901  1
  Al  Al19  1  0.10565448  0.09546626  0.82876028  1
  Al  Al20  1  0.77967113  0.09178453  0.32397191  1
  Al  Al21  1  0.89032704  0.19566169  0.07200599  1
  Al  Al22  1  0.45051133  0.09895227  0.86900218  1
  Al  Al23  1  0.56780628  0.19693941  0.57953309  1
  Al  Al24  1  0.77910104  0.42104601  0.87427970  1
  Al  Al25  1  0.88027340  0.54236637  0.62318975  1
  Al  Al26  1  0.44857371  0.42176769  0.33718199  1
  Al  Al27  1  0.89358467  0.53822633  0.11112278  1
  Al  Al28  1  0.46478523  0.41475284  0.81652355  1
  Al  Al29  1  0.55901771  0.53802737  0.56748540  1
  Al  Al30  1  0.11156896  0.76891910  0.32207218  1
  Al  Al31  1  0.20231637  0.88242788  0.06774724  1
  Al  Al32  1  0.88707473  0.87521440  0.57316031  1
  Al  Al33  1  0.42736128  0.76413334  0.31991820  1
  Al  Al34  1  0.09989838  0.77411986  0.82945666  1
  Al  Al35  1  0.89156452  0.88085383  0.07929521  1
  N  N36  1  0.23822452  0.19735950  0.34560974  1
  N  N37  1  0.09686566  0.08852171  0.10548288  1
  N  N38  1  0.88522366  0.20341036  0.85637193  1
  N  N39  1  0.77009142  0.07810611  0.62368041  1
  N  N40  1  0.56466447  0.19609313  0.35789204  1
  N  N41  1  0.45608465  0.10294449  0.08440505  1
  N  N42  1  0.23075084  0.19033907  0.84903050  1
  N  N43  1  0.10452272  0.09842874  0.61253416  1
  N  N44  1  0.87495111  0.19722261  0.36904178  1
  N  N45  1  0.77853346  0.09506700  0.11517730  1
  N  N46  1  0.55810818  0.20569319  0.85689109  1
  N  N47  1  0.45650867  0.10041421  0.58218940  1
  N  N48  1  0.23169034  0.55327758  0.35367797  1
  N  N49  1  0.10330506  0.43782308  0.08882362  1
  N  N50  1  0.87585188  0.53014778  0.83639084  1
  N  N51  1  0.76721320  0.45071912  0.58198278  1
  N  N52  1  0.53812937  0.55019828  0.35133460  1
  N  N53  1  0.45705337  0.40292235  0.13097233  1
  N  N54  1  0.24206346  0.54819485  0.84805084  1
  N  N55  1  0.09416333  0.44236716  0.59904104  1
  N  N56  1  0.89083009  0.54112509  0.31883647  1
  N  N57  1  0.80033350  0.41264566  0.09167609  1
  N  N58  1  0.57099716  0.51040013  0.86912260  1
  N  N59  1  0.47568869  0.41057756  0.60324736  1
  N  N60  1  0.22641604  0.85727273  0.36646993  1
  N  N61  1  0.09859677  0.78234092  0.11572463  1
  N  N62  1  0.89527029  0.88630018  0.87595193  1
  N  N63  1  0.79169362  0.75543009  0.59715202  1
  N  N64  1  0.53556872  0.87584126  0.34500304  1
  N  N65  1  0.41458123  0.76991900  0.10252770  1
  N  N66  1  0.20036487  0.88471015  0.85764140  1
  N  N67  1  0.08520291  0.77210071  0.62652178  1
  N  N68  1  0.90111153  0.88209818  0.36514413  1
  N  N69  1  0.79222846  0.75883983  0.09657920  1
  N  N70  1  0.54669390  0.88633487  0.84902304  1
  N  N71  1  0.44943644  0.73702613  0.62066291  1
