# generated using pymatgen
data_Sc4Al5N9
_symmetry_space_group_name_H-M   'P 1'
_cell_length_a   10.33780444
_cell_length_b   10.29677402
_cell_length_c   9.56135758
_cell_angle_alpha   90.10467188
_cell_angle_beta   90.21471393
_cell_angle_gamma   60.19026058
_symmetry_Int_Tables_number   1
_chemical_formula_structural   Sc4Al5N9
_chemical_formula_sum   'Sc16 Al20 N36'
_cell_volume   883.09224995
_cell_formula_units_Z   4
loop_
 _symmetry_equiv_pos_site_id
 _symmetry_equiv_pos_as_xyz
  1  'x, y, z'
loop_
 _atom_site_type_symbol
 _atom_site_label
 _atom_site_symmetry_multiplicity
 _atom_site_fract_x
 _atom_site_fract_y
 _atom_site_fract_z
 _atom_site_occupancy
  Sc  Sc0  1  0.11063032  0.08907384  0.34416820  1
  Sc  Sc1  1  0.22835084  0.20340226  0.10152407  1
  Sc  Sc2  1  0.87957024  0.20777716  0.60700454  1
  Sc  Sc3  1  0.22612192  0.20230710  0.61166426  1
  Sc  Sc4  1  0.11432855  0.43214271  0.35837778  1
  Sc  Sc5  1  0.23013956  0.54386451  0.09617475  1
  Sc  Sc6  1  0.55894249  0.52904899  0.09434715  1
  Sc  Sc7  1  0.10800637  0.43176137  0.85302065  1
  Sc  Sc8  1  0.23305280  0.54325101  0.60295468  1
  Sc  Sc9  1  0.76504719  0.43664047  0.35631864  1
  Sc  Sc10  1  0.78082999  0.76266885  0.85891426  1
  Sc  Sc11  1  0.55315125  0.87816346  0.10327557  1
  Sc  Sc12  1  0.22072644  0.86723993  0.58873830  1
  Sc  Sc13  1  0.78208658  0.76580875  0.35490698  1
  Sc  Sc14  1  0.43648819  0.75935719  0.84999116  1
  Sc  Sc15  1  0.55332368  0.86749139  0.59971267  1
  Al  Al16  1  0.77664943  0.09841465  0.87682183  1
  Al  Al17  1  0.44917115  0.09907051  0.37196728  1
  Al  Al18  1  0.56555644  0.20029822  0.12726938  1
  Al  Al19  1  0.09649931  0.10059314  0.87632267  1
  Al  Al20  1  0.77356626  0.08957209  0.37349959  1
  Al  Al21  1  0.88133525  0.20071736  0.12688683  1
  Al  Al22  1  0.45265753  0.09789829  0.87153650  1
  Al  Al23  1  0.56511020  0.19949344  0.62060222  1
  Al  Al24  1  0.78781262  0.41215970  0.87991772  1
  Al  Al25  1  0.88126808  0.54035020  0.62677582  1
  Al  Al26  1  0.45455619  0.42647842  0.37420541  1
  Al  Al27  1  0.89299273  0.53711693  0.11772847  1
  Al  Al28  1  0.45856149  0.40923751  0.87066638  1
  Al  Al29  1  0.56842032  0.52494607  0.63722188  1
  Al  Al30  1  0.11369713  0.76684309  0.31689890  1
  Al  Al31  1  0.20296983  0.87992446  0.06586537  1
  Al  Al32  1  0.88144880  0.87710315  0.62510819  1
  Al  Al33  1  0.42936123  0.76100513  0.31039017  1
  Al  Al34  1  0.10238637  0.77334517  0.82576576  1
  Al  Al35  1  0.88839372  0.88188767  0.11485141  1
  N  N36  1  0.24220921  0.19840506  0.33202420  1
  N  N37  1  0.09394918  0.09232625  0.09045574  1
  N  N38  1  0.88676125  0.20383366  0.83531406  1
  N  N39  1  0.76918447  0.07989208  0.57263327  1
  N  N40  1  0.55937118  0.20327204  0.32595092  1
  N  N41  1  0.46016842  0.10493377  0.07087989  1
  N  N42  1  0.22857120  0.18850837  0.84799441  1
  N  N43  1  0.10609350  0.09828194  0.57047221  1
  N  N44  1  0.87031302  0.20017587  0.33102484  1
  N  N45  1  0.77482341  0.09705224  0.07658397  1
  N  N46  1  0.56154220  0.20023121  0.82031010  1
  N  N47  1  0.45605934  0.10346285  0.57193177  1
  N  N48  1  0.23606494  0.54878202  0.34659792  1
  N  N49  1  0.10034605  0.43887406  0.08442326  1
  N  N50  1  0.87601762  0.52765842  0.82957387  1
  N  N51  1  0.76843519  0.44701041  0.57960077  1
  N  N52  1  0.53449577  0.54929169  0.31695564  1
  N  N53  1  0.46001218  0.39879112  0.06927681  1
  N  N54  1  0.23843094  0.54994114  0.84505047  1
  N  N55  1  0.09572216  0.44016688  0.59801563  1
  N  N56  1  0.88960525  0.53992532  0.31687035  1
  N  N57  1  0.79985039  0.41347284  0.08467132  1
  N  N58  1  0.57493781  0.50781384  0.84596226  1
  N  N59  1  0.47846540  0.40984452  0.57611033  1
  N  N60  1  0.22951340  0.85446449  0.35944778  1
  N  N61  1  0.09990427  0.78014653  0.10773518  1
  N  N62  1  0.88976006  0.88860953  0.83755697  1
  N  N63  1  0.79179599  0.75385861  0.59443043  1
  N  N64  1  0.53618475  0.87685174  0.34080296  1
  N  N65  1  0.41517841  0.77426826  0.09353608  1
  N  N66  1  0.19626419  0.88898846  0.85763529  1
  N  N67  1  0.08874407  0.77127337  0.62029845  1
  N  N68  1  0.89826385  0.88344896  0.32323741  1
  N  N69  1  0.79295805  0.75668019  0.09138944  1
  N  N70  1  0.54659038  0.88814045  0.84361527  1
  N  N71  1  0.45105474  0.73439848  0.62622260  1
