# generated using pymatgen
data_Sc4Al5N9
_symmetry_space_group_name_H-M   'P 1'
_cell_length_a   10.32040649
_cell_length_b   10.27990807
_cell_length_c   9.61987677
_cell_angle_alpha   89.91781800
_cell_angle_beta   89.96923516
_cell_angle_gamma   60.22751823
_symmetry_Int_Tables_number   1
_chemical_formula_structural   Sc4Al5N9
_chemical_formula_sum   'Sc16 Al20 N36'
_cell_volume   885.88395208
_cell_formula_units_Z   4
loop_
 _symmetry_equiv_pos_site_id
 _symmetry_equiv_pos_as_xyz
  1  'x, y, z'
loop_
 _atom_site_type_symbol
 _atom_site_label
 _atom_site_symmetry_multiplicity
 _atom_site_fract_x
 _atom_site_fract_y
 _atom_site_fract_z
 _atom_site_occupancy
  Sc  Sc0  1  0.11123069  0.08864789  0.34501567  1
  Sc  Sc1  1  0.22807319  0.20401149  0.10230021  1
  Sc  Sc2  1  0.88021137  0.20728604  0.60960699  1
  Sc  Sc3  1  0.22628800  0.20187564  0.61383452  1
  Sc  Sc4  1  0.11445979  0.43178312  0.36054023  1
  Sc  Sc5  1  0.22867672  0.54566436  0.09759155  1
  Sc  Sc6  1  0.55907913  0.52858755  0.09496977  1
  Sc  Sc7  1  0.10774191  0.43241377  0.85396986  1
  Sc  Sc8  1  0.23318205  0.54314982  0.60434764  1
  Sc  Sc9  1  0.76472756  0.43591830  0.35766027  1
  Sc  Sc10  1  0.78171869  0.76472275  0.84866111  1
  Sc  Sc11  1  0.55305252  0.87800133  0.09968765  1
  Sc  Sc12  1  0.22158404  0.86698008  0.58864923  1
  Sc  Sc13  1  0.78025842  0.76450073  0.34364047  1
  Sc  Sc14  1  0.43621213  0.75921063  0.85003471  1
  Sc  Sc15  1  0.55399719  0.86693651  0.59709634  1
  Al  Al16  1  0.77599061  0.10034524  0.87714659  1
  Al  Al17  1  0.44863868  0.09913628  0.37218716  1
  Al  Al18  1  0.56480400  0.20080768  0.12845513  1
  Al  Al19  1  0.09681430  0.10017713  0.87867504  1
  Al  Al20  1  0.77148524  0.09339633  0.37407908  1
  Al  Al21  1  0.88142034  0.20078619  0.12789052  1
  Al  Al22  1  0.45217645  0.09825554  0.87244437  1
  Al  Al23  1  0.56484909  0.19953624  0.62236693  1
  Al  Al24  1  0.78778684  0.41267319  0.88052402  1
  Al  Al25  1  0.88132007  0.53991635  0.62623383  1
  Al  Al26  1  0.45378408  0.42704879  0.37560133  1
  Al  Al27  1  0.89323654  0.53649658  0.11729488  1
  Al  Al28  1  0.45743603  0.40999287  0.87239183  1
  Al  Al29  1  0.56847500  0.52452354  0.63861397  1
  Al  Al30  1  0.11292378  0.76727990  0.31893226  1
  Al  Al31  1  0.20181573  0.87945897  0.06661480  1
  Al  Al32  1  0.88883910  0.87090670  0.56864924  1
  Al  Al33  1  0.42903976  0.76115962  0.30898618  1
  Al  Al34  1  0.09900107  0.77595647  0.82201410  1
  Al  Al35  1  0.89139352  0.87922714  0.07484805  1
  N  N36  1  0.24227127  0.19864825  0.33074026  1
  N  N37  1  0.09409102  0.09220999  0.09059859  1
  N  N38  1  0.88732260  0.20395839  0.83592833  1
  N  N39  1  0.76810750  0.08280666  0.57569867  1
  N  N40  1  0.55867230  0.20367693  0.32600415  1
  N  N41  1  0.45997537  0.10518015  0.07037389  1
  N  N42  1  0.22853476  0.18853262  0.84822470  1
  N  N43  1  0.10668768  0.09797267  0.56972564  1
  N  N44  1  0.87106535  0.19975983  0.33002813  1
  N  N45  1  0.77316944  0.09934408  0.07993541  1
  N  N46  1  0.56083910  0.20076918  0.82090499  1
  N  N47  1  0.45592241  0.10350523  0.57106099  1
  N  N48  1  0.23618895  0.54846708  0.34870328  1
  N  N49  1  0.10029289  0.43952307  0.08301015  1
  N  N50  1  0.87556072  0.52863103  0.82828157  1
  N  N51  1  0.76836490  0.44660240  0.57943918  1
  N  N52  1  0.53458044  0.54899643  0.31625321  1
  N  N53  1  0.45838517  0.39955435  0.06961722  1
  N  N54  1  0.23768565  0.55129358  0.84584235  1
  N  N55  1  0.09606582  0.43983608  0.59797415  1
  N  N56  1  0.89035810  0.53758695  0.31556587  1
  N  N57  1  0.80013876  0.41347567  0.08352827  1
  N  N58  1  0.57502669  0.50734151  0.84629015  1
  N  N59  1  0.47794159  0.41023912  0.57635760  1
  N  N60  1  0.23047398  0.85371767  0.36232017  1
  N  N61  1  0.09673595  0.78317983  0.11922228  1
  N  N62  1  0.89581241  0.88561709  0.87208616  1
  N  N63  1  0.79180333  0.75336117  0.59425884  1
  N  N64  1  0.53523028  0.87718949  0.33919085  1
  N  N65  1  0.41437683  0.77388656  0.09365433  1
  N  N66  1  0.19586830  0.88830347  0.85976559  1
  N  N67  1  0.08667079  0.77287669  0.62533738  1
  N  N68  1  0.90343869  0.87736020  0.36312625  1
  N  N69  1  0.79319552  0.75666425  0.09363436  1
  N  N70  1  0.54696992  0.88836535  0.84376938  1
  N  N71  1  0.45130460  0.73432705  0.62797945  1
