# generated using pymatgen
data_Sc4Al5N9
_symmetry_space_group_name_H-M   'P 1'
_cell_length_a   10.38863041
_cell_length_b   10.35070677
_cell_length_c   9.42618347
_cell_angle_alpha   90.18077594
_cell_angle_beta   90.08462154
_cell_angle_gamma   60.08728930
_symmetry_Int_Tables_number   1
_chemical_formula_structural   Sc4Al5N9
_chemical_formula_sum   'Sc16 Al20 N36'
_cell_volume   878.56517477
_cell_formula_units_Z   4
loop_
 _symmetry_equiv_pos_site_id
 _symmetry_equiv_pos_as_xyz
  1  'x, y, z'
loop_
 _atom_site_type_symbol
 _atom_site_label
 _atom_site_symmetry_multiplicity
 _atom_site_fract_x
 _atom_site_fract_y
 _atom_site_fract_z
 _atom_site_occupancy
  Sc  Sc0  1  0.10517655  0.08890665  0.34219594  1
  Sc  Sc1  1  0.22392600  0.20031767  0.09830919  1
  Sc  Sc2  1  0.87037298  0.21231342  0.59890136  1
  Sc  Sc3  1  0.22797551  0.20516539  0.60150300  1
  Sc  Sc4  1  0.11481547  0.43352109  0.35351199  1
  Sc  Sc5  1  0.22695007  0.54798052  0.09720132  1
  Sc  Sc6  1  0.55868629  0.52990086  0.10106033  1
  Sc  Sc7  1  0.10892830  0.43092124  0.85159618  1
  Sc  Sc8  1  0.23363568  0.54266696  0.60264271  1
  Sc  Sc9  1  0.77682067  0.42764893  0.34672328  1
  Sc  Sc10  1  0.78202824  0.76473935  0.84929997  1
  Sc  Sc11  1  0.55164587  0.87658343  0.09932050  1
  Sc  Sc12  1  0.21923932  0.86577104  0.59392056  1
  Sc  Sc13  1  0.78034111  0.76633044  0.34506704  1
  Sc  Sc14  1  0.44165731  0.75015437  0.84769326  1
  Sc  Sc15  1  0.55420294  0.86853752  0.59784676  1
  Al  Al16  1  0.77658642  0.08942829  0.83012422  1
  Al  Al17  1  0.45007535  0.09725084  0.37044357  1
  Al  Al18  1  0.56257931  0.19936834  0.12267582  1
  Al  Al19  1  0.10543402  0.09547873  0.82474731  1
  Al  Al20  1  0.77960627  0.09191908  0.32119652  1
  Al  Al21  1  0.89087939  0.19584758  0.06986581  1
  Al  Al22  1  0.44916084  0.09837928  0.87079121  1
  Al  Al23  1  0.56266727  0.20122802  0.62255635  1
  Al  Al24  1  0.77942948  0.42122314  0.87471873  1
  Al  Al25  1  0.88124269  0.54204072  0.62313649  1
  Al  Al26  1  0.45299510  0.42058776  0.36696373  1
  Al  Al27  1  0.89369987  0.53793280  0.11406447  1
  Al  Al28  1  0.45823082  0.41344144  0.87633792  1
  Al  Al29  1  0.56136885  0.53463683  0.58161387  1
  Al  Al30  1  0.11192238  0.76947247  0.32219845  1
  Al  Al31  1  0.20121588  0.88352043  0.06527437  1
  Al  Al32  1  0.88718596  0.87529743  0.57202467  1
  Al  Al33  1  0.42750396  0.76445818  0.31724611  1
  Al  Al34  1  0.10046787  0.77298182  0.82674225  1
  Al  Al35  1  0.89204204  0.88042601  0.07667919  1
  N  N36  1  0.23894890  0.19694431  0.34384566  1
  N  N37  1  0.09661094  0.08881535  0.10717490  1
  N  N38  1  0.88602571  0.20339020  0.85585123  1
  N  N39  1  0.77121243  0.07702772  0.62517847  1
  N  N40  1  0.56031106  0.19955506  0.32812910  1
  N  N41  1  0.45631898  0.10378011  0.07543037  1
  N  N42  1  0.23024266  0.18961852  0.84689837  1
  N  N43  1  0.10434178  0.09829899  0.61166115  1
  N  N44  1  0.87381379  0.19740692  0.36884868  1
  N  N45  1  0.77890624  0.09489541  0.11022073  1
  N  N46  1  0.55355024  0.20549864  0.83026939  1
  N  N47  1  0.45838856  0.10261246  0.57497877  1
  N  N48  1  0.23525016  0.55047763  0.34815700  1
  N  N49  1  0.10219964  0.43716981  0.08800193  1
  N  N50  1  0.87599166  0.52953359  0.83241837  1
  N  N51  1  0.76838334  0.45034435  0.57958852  1
  N  N52  1  0.53844677  0.54979768  0.34044411  1
  N  N53  1  0.45745284  0.40203988  0.08343106  1
  N  N54  1  0.23832076  0.55034061  0.84955361  1
  N  N55  1  0.09591622  0.44177784  0.59849447  1
  N  N56  1  0.89140435  0.54082980  0.31831911  1
  N  N57  1  0.80051637  0.41330496  0.08963864  1
  N  N58  1  0.57136702  0.51108959  0.86232081  1
  N  N59  1  0.47693376  0.40812210  0.57337920  1
  N  N60  1  0.22743452  0.85702170  0.36738286  1
  N  N61  1  0.09758898  0.78456368  0.11821787  1
  N  N62  1  0.89689112  0.88411067  0.87566378  1
  N  N63  1  0.79191088  0.75518618  0.59576230  1
  N  N64  1  0.53563707  0.87727971  0.34263610  1
  N  N65  1  0.41365848  0.77240794  0.10017417  1
  N  N66  1  0.19921599  0.88511851  0.85710518  1
  N  N67  1  0.08653536  0.77012943  0.62538020  1
  N  N68  1  0.90078505  0.88291650  0.36618669  1
  N  N69  1  0.79269906  0.75827044  0.09559535  1
  N  N70  1  0.54686963  0.88648280  0.84577691  1
  N  N71  1  0.45007658  0.73697891  0.62019150  1
