# generated using pymatgen
data_Sc4Al5N9
_symmetry_space_group_name_H-M   'P 1'
_cell_length_a   10.32278364
_cell_length_b   10.28328790
_cell_length_c   9.63137276
_cell_angle_alpha   90.03490163
_cell_angle_beta   89.98406996
_cell_angle_gamma   60.19850794
_symmetry_Int_Tables_number   1
_chemical_formula_structural   Sc4Al5N9
_chemical_formula_sum   'Sc16 Al20 N36'
_cell_volume   887.18198131
_cell_formula_units_Z   4
loop_
 _symmetry_equiv_pos_site_id
 _symmetry_equiv_pos_as_xyz
  1  'x, y, z'
loop_
 _atom_site_type_symbol
 _atom_site_label
 _atom_site_symmetry_multiplicity
 _atom_site_fract_x
 _atom_site_fract_y
 _atom_site_fract_z
 _atom_site_occupancy
  Sc  Sc0  1  0.11469461  0.08753818  0.34502498  1
  Sc  Sc1  1  0.22743042  0.20445767  0.10178803  1
  Sc  Sc2  1  0.88136494  0.20838256  0.59797921  1
  Sc  Sc3  1  0.22731220  0.20128792  0.61539343  1
  Sc  Sc4  1  0.11426869  0.43145797  0.36166023  1
  Sc  Sc5  1  0.22730519  0.54663270  0.09873916  1
  Sc  Sc6  1  0.55891086  0.52818952  0.09434314  1
  Sc  Sc7  1  0.10721445  0.43235092  0.85434903  1
  Sc  Sc8  1  0.23263667  0.54316005  0.60507610  1
  Sc  Sc9  1  0.76350816  0.43955626  0.35698450  1
  Sc  Sc10  1  0.78161400  0.76459711  0.84912088  1
  Sc  Sc11  1  0.55356341  0.87725874  0.09991156  1
  Sc  Sc12  1  0.22204092  0.86601844  0.58880859  1
  Sc  Sc13  1  0.78056890  0.76594225  0.34476443  1
  Sc  Sc14  1  0.43609234  0.75912812  0.85040455  1
  Sc  Sc15  1  0.55438804  0.86607127  0.59748347  1
  Al  Al16  1  0.77945852  0.09199543  0.82040928  1
  Al  Al17  1  0.44888697  0.09872212  0.37186146  1
  Al  Al18  1  0.56198341  0.20141900  0.12725467  1
  Al  Al19  1  0.09565305  0.09988143  0.87759185  1
  Al  Al20  1  0.77685520  0.08997614  0.32426511  1
  Al  Al21  1  0.88379487  0.20194030  0.12569596  1
  Al  Al22  1  0.45123044  0.09821754  0.87335672  1
  Al  Al23  1  0.56189686  0.20076525  0.61985957  1
  Al  Al24  1  0.78782437  0.41091447  0.87923659  1
  Al  Al25  1  0.88091711  0.54069900  0.62673733  1
  Al  Al26  1  0.45345556  0.42713640  0.37592658  1
  Al  Al27  1  0.89310710  0.53779503  0.11683614  1
  Al  Al28  1  0.45646955  0.40985213  0.87342104  1
  Al  Al29  1  0.56835693  0.52437080  0.63936178  1
  Al  Al30  1  0.11196204  0.76810208  0.32068820  1
  Al  Al31  1  0.20119927  0.87910398  0.06675308  1
  Al  Al32  1  0.88796918  0.87413936  0.56953479  1
  Al  Al33  1  0.42900416  0.76065919  0.30801454  1
  Al  Al34  1  0.09945932  0.77523440  0.82244192  1
  Al  Al35  1  0.89029007  0.88265103  0.07135016  1
  N  N36  1  0.24304674  0.19891043  0.32941884  1
  N  N37  1  0.09450408  0.09186152  0.09078037  1
  N  N38  1  0.88748422  0.20351141  0.83386826  1
  N  N39  1  0.77260918  0.07870757  0.61650875  1
  N  N40  1  0.55706437  0.20495028  0.32862939  1
  N  N41  1  0.45936338  0.10437973  0.07090146  1
  N  N42  1  0.22797699  0.18809895  0.84871835  1
  N  N43  1  0.10978076  0.09654302  0.56939595  1
  N  N44  1  0.87447958  0.20281639  0.33733605  1
  N  N45  1  0.77698268  0.09233173  0.11665087  1
  N  N46  1  0.55453410  0.20330374  0.82131851  1
  N  N47  1  0.45645008  0.10206109  0.56966988  1
  N  N48  1  0.23487527  0.54907306  0.34966648  1
  N  N49  1  0.09998203  0.43972545  0.08242571  1
  N  N50  1  0.87468364  0.52881727  0.82854705  1
  N  N51  1  0.76724466  0.44892064  0.57848771  1
  N  N52  1  0.53384886  0.54880308  0.31523359  1
  N  N53  1  0.45754823  0.39976520  0.07036728  1
  N  N54  1  0.23655713  0.55191956  0.84694594  1
  N  N55  1  0.09597439  0.43925953  0.59846877  1
  N  N56  1  0.89040014  0.53958737  0.31476493  1
  N  N57  1  0.80028689  0.41333348  0.08323907  1
  N  N58  1  0.57446458  0.50693729  0.84657430  1
  N  N59  1  0.47777685  0.41065385  0.57594608  1
  N  N60  1  0.23112869  0.85282431  0.36297567  1
  N  N61  1  0.09508461  0.78422641  0.12137568  1
  N  N62  1  0.89551285  0.88727053  0.87442569  1
  N  N63  1  0.79221753  0.75379700  0.59449629  1
  N  N64  1  0.53598234  0.87611804  0.33862821  1
  N  N65  1  0.41411048  0.77365964  0.09365511  1
  N  N66  1  0.19570679  0.88772595  0.86068384  1
  N  N67  1  0.08664768  0.77236980  0.62644510  1
  N  N68  1  0.90185092  0.88204129  0.37010772  1
  N  N69  1  0.79363083  0.75756692  0.09327840  1
  N  N70  1  0.54713688  0.88813519  0.84394242  1
  N  N71  1  0.45128785  0.73408951  0.62897701  1
