# generated using pymatgen
data_Sc4Al5N9
_symmetry_space_group_name_H-M   'P 1'
_cell_length_a   10.40586373
_cell_length_b   10.37218344
_cell_length_c   9.35388870
_cell_angle_alpha   90.21657605
_cell_angle_beta   89.99922214
_cell_angle_gamma   60.07464372
_symmetry_Int_Tables_number   1
_chemical_formula_structural   Sc4Al5N9
_chemical_formula_sum   'Sc16 Al20 N36'
_cell_volume   874.97002499
_cell_formula_units_Z   4
loop_
 _symmetry_equiv_pos_site_id
 _symmetry_equiv_pos_as_xyz
  1  'x, y, z'
loop_
 _atom_site_type_symbol
 _atom_site_label
 _atom_site_symmetry_multiplicity
 _atom_site_fract_x
 _atom_site_fract_y
 _atom_site_fract_z
 _atom_site_occupancy
  Sc  Sc0  1  0.10504738  0.08867323  0.34356282  1
  Sc  Sc1  1  0.22394882  0.20058035  0.09803605  1
  Sc  Sc2  1  0.87075725  0.21324794  0.60138563  1
  Sc  Sc3  1  0.22708069  0.20591508  0.60092922  1
  Sc  Sc4  1  0.11408718  0.43412052  0.35003146  1
  Sc  Sc5  1  0.23147797  0.54585648  0.08951207  1
  Sc  Sc6  1  0.55812164  0.52735235  0.09975242  1
  Sc  Sc7  1  0.10955191  0.43120303  0.84981130  1
  Sc  Sc8  1  0.22919855  0.54592368  0.59591051  1
  Sc  Sc9  1  0.77857309  0.42625744  0.34543114  1
  Sc  Sc10  1  0.78216857  0.76547197  0.85031490  1
  Sc  Sc11  1  0.55138922  0.87583094  0.10023821  1
  Sc  Sc12  1  0.21866228  0.86645692  0.59609124  1
  Sc  Sc13  1  0.78045504  0.76610963  0.34556563  1
  Sc  Sc14  1  0.44218417  0.74903041  0.84931465  1
  Sc  Sc15  1  0.55359395  0.86806959  0.59931805  1
  Al  Al16  1  0.77348933  0.09079493  0.82851446  1
  Al  Al17  1  0.44894680  0.09464382  0.36619034  1
  Al  Al18  1  0.56511519  0.20205549  0.08051349  1
  Al  Al19  1  0.10564338  0.09545242  0.82833534  1
  Al  Al20  1  0.77782038  0.09316460  0.32116515  1
  Al  Al21  1  0.89056623  0.19560116  0.07176918  1
  Al  Al22  1  0.44959490  0.09808212  0.86788800  1
  Al  Al23  1  0.56851774  0.19723382  0.57214176  1
  Al  Al24  1  0.77931275  0.42108145  0.87473723  1
  Al  Al25  1  0.88026199  0.54240108  0.62332203  1
  Al  Al26  1  0.44915032  0.42030306  0.33447738  1
  Al  Al27  1  0.89366920  0.53829309  0.11169463  1
  Al  Al28  1  0.46542229  0.41457028  0.81665883  1
  Al  Al29  1  0.55890834  0.53748505  0.56762405  1
  Al  Al30  1  0.11131847  0.76910404  0.32224740  1
  Al  Al31  1  0.20225249  0.88237269  0.06774578  1
  Al  Al32  1  0.88642285  0.87603663  0.57317201  1
  Al  Al33  1  0.42724541  0.76393517  0.32008383  1
  Al  Al34  1  0.10004838  0.77390684  0.82911266  1
  Al  Al35  1  0.89161680  0.88079792  0.07913381  1
  N  N36  1  0.23805123  0.19740970  0.34622467  1
  N  N37  1  0.09686937  0.08841554  0.10613239  1
  N  N38  1  0.88547618  0.20337847  0.85652910  1
  N  N39  1  0.76846827  0.07881334  0.62575840  1
  N  N40  1  0.56460877  0.19719916  0.36268022  1
  N  N41  1  0.45589605  0.10280801  0.08616044  1
  N  N42  1  0.23064659  0.19029457  0.84927200  1
  N  N43  1  0.10432822  0.09850990  0.61288265  1
  N  N44  1  0.87432986  0.19704553  0.36942751  1
  N  N45  1  0.77794038  0.09555276  0.11434459  1
  N  N46  1  0.55926674  0.20583805  0.86643512  1
  N  N47  1  0.45672712  0.10096632  0.58446018  1
  N  N48  1  0.23234187  0.55283992  0.35386543  1
  N  N49  1  0.10330044  0.43795876  0.08879462  1
  N  N50  1  0.87589287  0.53009307  0.83599872  1
  N  N51  1  0.76726013  0.45067645  0.58174996  1
  N  N52  1  0.53782952  0.54958509  0.35167403  1
  N  N53  1  0.45776846  0.40182807  0.13049883  1
  N  N54  1  0.24224086  0.54805694  0.84837332  1
  N  N55  1  0.09426291  0.44255100  0.59911676  1
  N  N56  1  0.89083252  0.54114451  0.31883837  1
  N  N57  1  0.80058909  0.41264927  0.09181068  1
  N  N58  1  0.57125989  0.51037960  0.87005314  1
  N  N59  1  0.47671789  0.40943286  0.60667733  1
  N  N60  1  0.22635618  0.85725402  0.36698199  1
  N  N61  1  0.09853606  0.78236526  0.11639209  1
  N  N62  1  0.89564044  0.88596160  0.87628710  1
  N  N63  1  0.79158335  0.75560573  0.59718966  1
  N  N64  1  0.53552053  0.87590105  0.34549708  1
  N  N65  1  0.41448782  0.76983563  0.10298303  1
  N  N66  1  0.20032131  0.88467498  0.85796708  1
  N  N67  1  0.08496475  0.77215211  0.62660728  1
  N  N68  1  0.90033746  0.88317441  0.36543913  1
  N  N69  1  0.79237073  0.75879526  0.09666170  1
  N  N70  1  0.54678196  0.88599961  0.84937529  1
  N  N71  1  0.44950480  0.73670448  0.62108110  1
