# generated using pymatgen
data_Sc4Al5N9
_symmetry_space_group_name_H-M   'P 1'
_cell_length_a   10.32197829
_cell_length_b   10.28288776
_cell_length_c   9.60177012
_cell_angle_alpha   89.85209541
_cell_angle_beta   89.75028341
_cell_angle_gamma   60.00313460
_symmetry_Int_Tables_number   1
_chemical_formula_structural   Sc4Al5N9
_chemical_formula_sum   'Sc16 Al20 N36'
_cell_volume   882.61136940
_cell_formula_units_Z   4
loop_
 _symmetry_equiv_pos_site_id
 _symmetry_equiv_pos_as_xyz
  1  'x, y, z'
loop_
 _atom_site_type_symbol
 _atom_site_label
 _atom_site_symmetry_multiplicity
 _atom_site_fract_x
 _atom_site_fract_y
 _atom_site_fract_z
 _atom_site_occupancy
  Sc  Sc0  1  0.10473774  0.08849393  0.33468847  1
  Sc  Sc1  1  0.22523962  0.19904445  0.08702828  1
  Sc  Sc2  1  0.87513856  0.20285933  0.59788611  1
  Sc  Sc3  1  0.22745047  0.20569338  0.58934392  1
  Sc  Sc4  1  0.11743089  0.43312202  0.34631028  1
  Sc  Sc5  1  0.23177122  0.54691338  0.08498210  1
  Sc  Sc6  1  0.56659096  0.52382003  0.09392687  1
  Sc  Sc7  1  0.10877330  0.43092696  0.84755324  1
  Sc  Sc8  1  0.23026621  0.54473457  0.59388934  1
  Sc  Sc9  1  0.77880945  0.42380011  0.34693361  1
  Sc  Sc10  1  0.78140804  0.76600305  0.84785836  1
  Sc  Sc11  1  0.55249026  0.87598673  0.09247305  1
  Sc  Sc12  1  0.22017766  0.86541771  0.59125596  1
  Sc  Sc13  1  0.77929166  0.76897488  0.34204108  1
  Sc  Sc14  1  0.44131901  0.75108461  0.84786210  1
  Sc  Sc15  1  0.55130511  0.86995600  0.58810800  1
  Al  Al16  1  0.77298769  0.09053396  0.82766090  1
  Al  Al17  1  0.44992673  0.09735483  0.32233325  1
  Al  Al18  1  0.56428487  0.20160805  0.07295714  1
  Al  Al19  1  0.10670484  0.09543280  0.82381897  1
  Al  Al20  1  0.77625560  0.09490212  0.31814070  1
  Al  Al21  1  0.88760377  0.20336941  0.06322894  1
  Al  Al22  1  0.44994029  0.09857774  0.82370213  1
  Al  Al23  1  0.56596923  0.19743191  0.57200045  1
  Al  Al24  1  0.77217780  0.42518342  0.82358392  1
  Al  Al25  1  0.88248455  0.54470148  0.62056526  1
  Al  Al26  1  0.44960206  0.42014152  0.32812015  1
  Al  Al27  1  0.89323916  0.53577701  0.12012220  1
  Al  Al28  1  0.46360988  0.41499232  0.81817227  1
  Al  Al29  1  0.55516282  0.53694327  0.56682968  1
  Al  Al30  1  0.11184232  0.76916577  0.32077323  1
  Al  Al31  1  0.20134518  0.88252472  0.06523111  1
  Al  Al32  1  0.88531879  0.87618742  0.57038972  1
  Al  Al33  1  0.42795620  0.76306569  0.31532427  1
  Al  Al34  1  0.10011577  0.77426477  0.82521338  1
  Al  Al35  1  0.89201878  0.88137727  0.07686359  1
  N  N36  1  0.23916628  0.19547299  0.35417203  1
  N  N37  1  0.09519286  0.08947040  0.10795915  1
  N  N38  1  0.88367655  0.20619271  0.85467838  1
  N  N39  1  0.76600023  0.07675118  0.63182227  1
  N  N40  1  0.56195112  0.19808115  0.37340958  1
  N  N41  1  0.45841220  0.10405549  0.12399294  1
  N  N42  1  0.23060954  0.18971740  0.85421464  1
  N  N43  1  0.10775496  0.09619857  0.61967801  1
  N  N44  1  0.87488240  0.19409493  0.37838579  1
  N  N45  1  0.77737971  0.09790849  0.11699962  1
  N  N46  1  0.55728755  0.20420459  0.87435464  1
  N  N47  1  0.45667400  0.10409083  0.62532492  1
  N  N48  1  0.23458761  0.55247755  0.35695129  1
  N  N49  1  0.10310125  0.43764864  0.08959352  1
  N  N50  1  0.87583730  0.53138609  0.82885189  1
  N  N51  1  0.76610720  0.44630395  0.60113434  1
  N  N52  1  0.53808729  0.54832898  0.35845279  1
  N  N53  1  0.45999676  0.40145790  0.13162941  1
  N  N54  1  0.24050103  0.54940225  0.85076700  1
  N  N55  1  0.09560146  0.44225859  0.59804757  1
  N  N56  1  0.89128975  0.54149246  0.32637635  1
  N  N57  1  0.80316786  0.41091254  0.11254484  1
  N  N58  1  0.57073547  0.51040453  0.87279082  1
  N  N59  1  0.47669709  0.40842821  0.61703325  1
  N  N60  1  0.22751331  0.85682240  0.36969456  1
  N  N61  1  0.09814607  0.78303689  0.12195674  1
  N  N62  1  0.89663758  0.88580516  0.88043878  1
  N  N63  1  0.78872009  0.75768326  0.59579473  1
  N  N64  1  0.53437957  0.87681784  0.34918746  1
  N  N65  1  0.41521414  0.76891379  0.10580218  1
  N  N66  1  0.19954492  0.88481812  0.86202655  1
  N  N67  1  0.08389274  0.77308198  0.62950559  1
  N  N68  1  0.90036439  0.88475838  0.36945581  1
  N  N69  1  0.79397274  0.75672669  0.09872962  1
  N  N70  1  0.54585489  0.88782302  0.85950605  1
  N  N71  1  0.45112985  0.73615276  0.62656373  1
