# generated using pymatgen
data_Sc4Al5N9
_symmetry_space_group_name_H-M   'P 1'
_cell_length_a   10.28840604
_cell_length_b   10.25112045
_cell_length_c   9.66636521
_cell_angle_alpha   89.93617917
_cell_angle_beta   89.86098448
_cell_angle_gamma   60.03467263
_symmetry_Int_Tables_number   1
_chemical_formula_structural   Sc4Al5N9
_chemical_formula_sum   'Sc16 Al20 N36'
_cell_volume   883.20925676
_cell_formula_units_Z   4
loop_
 _symmetry_equiv_pos_site_id
 _symmetry_equiv_pos_as_xyz
  1  'x, y, z'
loop_
 _atom_site_type_symbol
 _atom_site_label
 _atom_site_symmetry_multiplicity
 _atom_site_fract_x
 _atom_site_fract_y
 _atom_site_fract_z
 _atom_site_occupancy
  Sc  Sc0  1  0.10447452  0.08897890  0.32695915  1
  Sc  Sc1  1  0.22557535  0.19851767  0.07707885  1
  Sc  Sc2  1  0.87518092  0.20396100  0.59189877  1
  Sc  Sc3  1  0.22680319  0.20747849  0.57918884  1
  Sc  Sc4  1  0.11462123  0.43381987  0.32421081  1
  Sc  Sc5  1  0.23148320  0.54720601  0.07521713  1
  Sc  Sc6  1  0.56653723  0.52391225  0.08608965  1
  Sc  Sc7  1  0.10871383  0.43104170  0.83282974  1
  Sc  Sc8  1  0.22986275  0.54405172  0.58431759  1
  Sc  Sc9  1  0.77974603  0.42292602  0.33578033  1
  Sc  Sc10  1  0.78158838  0.76496789  0.82965419  1
  Sc  Sc11  1  0.55384411  0.87540159  0.08283486  1
  Sc  Sc12  1  0.22005368  0.86568635  0.58347995  1
  Sc  Sc13  1  0.78057153  0.76653413  0.32744630  1
  Sc  Sc14  1  0.44125244  0.75135714  0.84010529  1
  Sc  Sc15  1  0.55103409  0.87058805  0.57805064  1
  Al  Al16  1  0.77317194  0.09069597  0.82090557  1
  Al  Al17  1  0.45002053  0.09750621  0.31442278  1
  Al  Al18  1  0.56421521  0.20177917  0.06572512  1
  Al  Al19  1  0.10676251  0.09580063  0.81639487  1
  Al  Al20  1  0.77600984  0.09475870  0.31146767  1
  Al  Al21  1  0.88755122  0.20343789  0.05600871  1
  Al  Al22  1  0.44982593  0.09868869  0.81577555  1
  Al  Al23  1  0.56602073  0.19773767  0.56497439  1
  Al  Al24  1  0.77246937  0.42854398  0.81116793  1
  Al  Al25  1  0.88531049  0.54593361  0.56846279  1
  Al  Al26  1  0.44932749  0.42037879  0.32120888  1
  Al  Al27  1  0.88919925  0.53324122  0.06329790  1
  Al  Al28  1  0.46380298  0.41531840  0.81106503  1
  Al  Al29  1  0.55668088  0.53686138  0.56119699  1
  Al  Al30  1  0.11174173  0.76881145  0.31370413  1
  Al  Al31  1  0.20128479  0.88248141  0.05812106  1
  Al  Al32  1  0.88481403  0.87668114  0.56308281  1
  Al  Al33  1  0.42849784  0.76291994  0.30828121  1
  Al  Al34  1  0.09992438  0.77412649  0.81751036  1
  Al  Al35  1  0.89187648  0.88007628  0.06940204  1
  N  N36  1  0.23867652  0.19687650  0.34776165  1
  N  N37  1  0.09519390  0.08952505  0.10210445  1
  N  N38  1  0.88360397  0.20726167  0.84916944  1
  N  N39  1  0.76616486  0.07718503  0.62615347  1
  N  N40  1  0.56178341  0.19840739  0.36738620  1
  N  N41  1  0.45862104  0.10377800  0.11783383  1
  N  N42  1  0.23102404  0.18963929  0.84871780  1
  N  N43  1  0.10823940  0.09661060  0.61401414  1
  N  N44  1  0.87455710  0.19407909  0.37423740  1
  N  N45  1  0.77750740  0.09754925  0.11122568  1
  N  N46  1  0.55715161  0.20446059  0.86831653  1
  N  N47  1  0.45619889  0.10456540  0.61894898  1
  N  N48  1  0.23340862  0.55155732  0.35121996  1
  N  N49  1  0.10117994  0.43846129  0.09051259  1
  N  N50  1  0.87450722  0.53020589  0.86451252  1
  N  N51  1  0.76752618  0.44888073  0.60595403  1
  N  N52  1  0.53885692  0.54800971  0.35414291  1
  N  N53  1  0.45961444  0.40196866  0.12590690  1
  N  N54  1  0.24056557  0.54970782  0.84534347  1
  N  N55  1  0.09592644  0.44214336  0.60493383  1
  N  N56  1  0.89053893  0.54088356  0.37102700  1
  N  N57  1  0.80436222  0.41030126  0.11469919  1
  N  N58  1  0.57159259  0.51032244  0.86748792  1
  N  N59  1  0.47702439  0.40877266  0.61133606  1
  N  N60  1  0.22764735  0.85684610  0.36329042  1
  N  N61  1  0.09816485  0.78290931  0.11625526  1
  N  N62  1  0.89591429  0.88478981  0.87470082  1
  N  N63  1  0.78811787  0.75937736  0.59740305  1
  N  N64  1  0.53517703  0.87680213  0.34265051  1
  N  N65  1  0.41559563  0.76872443  0.09991848  1
  N  N66  1  0.19915605  0.88506637  0.85615361  1
  N  N67  1  0.08393142  0.77293107  0.62308903  1
  N  N68  1  0.89957328  0.88414519  0.36383695  1
  N  N69  1  0.79611724  0.75300341  0.09846664  1
  N  N70  1  0.54629330  0.88799236  0.85373242  1
  N  N71  1  0.45118492  0.73674350  0.62042620  1
