# generated using pymatgen
data_Sc4Al5N9
_symmetry_space_group_name_H-M   'P 1'
_cell_length_a   10.41008029
_cell_length_b   10.38114750
_cell_length_c   9.33842052
_cell_angle_alpha   90.21753263
_cell_angle_beta   89.97529230
_cell_angle_gamma   60.12126700
_symmetry_Int_Tables_number   1
_chemical_formula_structural   Sc4Al5N9
_chemical_formula_sum   'Sc16 Al20 N36'
_cell_volume   875.04060970
_cell_formula_units_Z   4
loop_
 _symmetry_equiv_pos_site_id
 _symmetry_equiv_pos_as_xyz
  1  'x, y, z'
loop_
 _atom_site_type_symbol
 _atom_site_label
 _atom_site_symmetry_multiplicity
 _atom_site_fract_x
 _atom_site_fract_y
 _atom_site_fract_z
 _atom_site_occupancy
  Sc  Sc0  1  0.10585938  0.08855589  0.34319739  1
  Sc  Sc1  1  0.22442525  0.20056853  0.09735873  1
  Sc  Sc2  1  0.87131461  0.21340039  0.60100265  1
  Sc  Sc3  1  0.22684240  0.20584141  0.60134977  1
  Sc  Sc4  1  0.11404481  0.43377580  0.34958718  1
  Sc  Sc5  1  0.23132017  0.54584488  0.08953523  1
  Sc  Sc6  1  0.55789782  0.52723439  0.09939242  1
  Sc  Sc7  1  0.10952971  0.43106129  0.84959233  1
  Sc  Sc8  1  0.22813959  0.54654290  0.59531316  1
  Sc  Sc9  1  0.77867221  0.42637707  0.34493382  1
  Sc  Sc10  1  0.78206172  0.76549500  0.85018043  1
  Sc  Sc11  1  0.55122262  0.87656491  0.09960811  1
  Sc  Sc12  1  0.21872220  0.86652483  0.59602764  1
  Sc  Sc13  1  0.78038473  0.76581324  0.34512445  1
  Sc  Sc14  1  0.44214475  0.74946156  0.84924370  1
  Sc  Sc15  1  0.55387126  0.86754463  0.59944492  1
  Al  Al16  1  0.77357619  0.09085174  0.82877092  1
  Al  Al17  1  0.44933358  0.09413201  0.37085136  1
  Al  Al18  1  0.56442699  0.19880596  0.12332133  1
  Al  Al19  1  0.10568187  0.09549032  0.82863836  1
  Al  Al20  1  0.78133341  0.09042511  0.32683273  1
  Al  Al21  1  0.89010704  0.19565535  0.07218772  1
  Al  Al22  1  0.45096843  0.09972322  0.86969230  1
  Al  Al23  1  0.56605974  0.19663374  0.60195541  1
  Al  Al24  1  0.77906889  0.42096691  0.87437067  1
  Al  Al25  1  0.88022558  0.54230506  0.62319821  1
  Al  Al26  1  0.44806372  0.42288456  0.33966846  1
  Al  Al27  1  0.89355550  0.53818205  0.11107256  1
  Al  Al28  1  0.46308186  0.41671784  0.81673538  1
  Al  Al29  1  0.55895893  0.53843185  0.56695628  1
  Al  Al30  1  0.11181767  0.76878033  0.32168324  1
  Al  Al31  1  0.20229136  0.88255665  0.06749642  1
  Al  Al32  1  0.88770760  0.87447843  0.57285675  1
  Al  Al33  1  0.42740583  0.76438835  0.31934853  1
  Al  Al34  1  0.09995748  0.77414240  0.82934238  1
  Al  Al35  1  0.89144162  0.88104695  0.07923349  1
  N  N36  1  0.23873963  0.19716686  0.34490655  1
  N  N37  1  0.09693418  0.08865636  0.10531621  1
  N  N38  1  0.88514776  0.20343356  0.85633015  1
  N  N39  1  0.77249757  0.07689144  0.62174042  1
  N  N40  1  0.56438693  0.19442216  0.34716886  1
  N  N41  1  0.45713144  0.10410802  0.08034077  1
  N  N42  1  0.23066115  0.19035710  0.84863933  1
  N  N43  1  0.10459086  0.09838262  0.61238528  1
  N  N44  1  0.87536578  0.19733014  0.36870914  1
  N  N45  1  0.77846711  0.09503217  0.11476346  1
  N  N46  1  0.55597657  0.20534956  0.83477629  1
  N  N47  1  0.45643375  0.09991954  0.57966394  1
  N  N48  1  0.23127393  0.55349308  0.35337981  1
  N  N49  1  0.10327407  0.43765057  0.08862997  1
  N  N50  1  0.87581611  0.53009185  0.83626008  1
  N  N51  1  0.76708682  0.45087252  0.58164006  1
  N  N52  1  0.53828403  0.55065790  0.35077202  1
  N  N53  1  0.45659300  0.40349427  0.12988578  1
  N  N54  1  0.24180337  0.54853527  0.84784450  1
  N  N55  1  0.09408721  0.44218888  0.59889645  1
  N  N56  1  0.89088697  0.54112214  0.31859654  1
  N  N57  1  0.80025191  0.41265576  0.09150773  1
  N  N58  1  0.57091621  0.51042667  0.86876316  1
  N  N59  1  0.47458174  0.41203113  0.59969996  1
  N  N60  1  0.22654319  0.85722780  0.36636830  1
  N  N61  1  0.09861932  0.78240437  0.11552623  1
  N  N62  1  0.89531371  0.88617207  0.87594443  1
  N  N63  1  0.79180408  0.75525380  0.59704518  1
  N  N64  1  0.53551795  0.87604027  0.34434858  1
  N  N65  1  0.41464858  0.77018788  0.10219078  1
  N  N66  1  0.20034782  0.88479818  0.85752849  1
  N  N67  1  0.08545440  0.77194374  0.62661587  1
  N  N68  1  0.90181507  0.88116179  0.36499832  1
  N  N69  1  0.79205662  0.75885392  0.09644962  1
  N  N70  1  0.54666192  0.88658760  0.84853041  1
  N  N71  1  0.44944426  0.73715971  0.62068658  1
