# generated using pymatgen
data_Sc4Al5N9
_symmetry_space_group_name_H-M   'P 1'
_cell_length_a   10.18576730
_cell_length_b   10.14872582
_cell_length_c   9.96033935
_cell_angle_alpha   89.92933857
_cell_angle_beta   89.90506920
_cell_angle_gamma   60.03443724
_symmetry_Int_Tables_number   1
_chemical_formula_structural   Sc4Al5N9
_chemical_formula_sum   'Sc16 Al20 N36'
_cell_volume   891.99001808
_cell_formula_units_Z   4
loop_
 _symmetry_equiv_pos_site_id
 _symmetry_equiv_pos_as_xyz
  1  'x, y, z'
loop_
 _atom_site_type_symbol
 _atom_site_label
 _atom_site_symmetry_multiplicity
 _atom_site_fract_x
 _atom_site_fract_y
 _atom_site_fract_z
 _atom_site_occupancy
  Sc  Sc0  1  0.10465855  0.08964246  0.31320949  1
  Sc  Sc1  1  0.22715116  0.19688741  0.06372838  1
  Sc  Sc2  1  0.87605937  0.20481687  0.58268535  1
  Sc  Sc3  1  0.22503875  0.20859081  0.56904655  1
  Sc  Sc4  1  0.11491138  0.43268044  0.30837978  1
  Sc  Sc5  1  0.23129036  0.54760744  0.06268531  1
  Sc  Sc6  1  0.56636857  0.52461689  0.07403572  1
  Sc  Sc7  1  0.10843615  0.43060295  0.82409498  1
  Sc  Sc8  1  0.22810671  0.54312222  0.57491519  1
  Sc  Sc9  1  0.77868512  0.42351029  0.32472576  1
  Sc  Sc10  1  0.78054777  0.76601568  0.81604790  1
  Sc  Sc11  1  0.55623303  0.87433343  0.07400007  1
  Sc  Sc12  1  0.21943781  0.86638355  0.57010493  1
  Sc  Sc13  1  0.78237652  0.76504915  0.31816491  1
  Sc  Sc14  1  0.44093283  0.75357251  0.82882664  1
  Sc  Sc15  1  0.55058994  0.87145422  0.56353511  1
  Al  Al16  1  0.77355277  0.09153964  0.81260205  1
  Al  Al17  1  0.44987265  0.09791460  0.30615131  1
  Al  Al18  1  0.56432816  0.20186678  0.05873866  1
  Al  Al19  1  0.10718882  0.09441216  0.80965939  1
  Al  Al20  1  0.77606791  0.09470842  0.30551269  1
  Al  Al21  1  0.88745391  0.20295538  0.04848578  1
  Al  Al22  1  0.44970122  0.09841980  0.80740980  1
  Al  Al23  1  0.56495696  0.19867967  0.55835346  1
  Al  Al24  1  0.77247591  0.42836299  0.80420359  1
  Al  Al25  1  0.88553125  0.54502130  0.56098540  1
  Al  Al26  1  0.44830663  0.42168156  0.31311560  1
  Al  Al27  1  0.88889088  0.53423866  0.05362588  1
  Al  Al28  1  0.46240765  0.41608656  0.80345662  1
  Al  Al29  1  0.55674859  0.53679360  0.55530010  1
  Al  Al30  1  0.11178004  0.76772912  0.30594353  1
  Al  Al31  1  0.20231528  0.88102908  0.05210560  1
  Al  Al32  1  0.88491939  0.87683450  0.55615369  1
  Al  Al33  1  0.42973427  0.76200692  0.30046135  1
  Al  Al34  1  0.10087963  0.77448076  0.80926969  1
  Al  Al35  1  0.89180820  0.87932843  0.06074481  1
  N  N36  1  0.23868975  0.19691707  0.34685836  1
  N  N37  1  0.09550960  0.08936307  0.09792845  1
  N  N38  1  0.88363366  0.20716672  0.84709816  1
  N  N39  1  0.76602495  0.07786035  0.62310688  1
  N  N40  1  0.56094879  0.19948742  0.36530430  1
  N  N41  1  0.45885522  0.10399389  0.11653369  1
  N  N42  1  0.23185783  0.18830533  0.84632962  1
  N  N43  1  0.10922746  0.09553110  0.61612222  1
  N  N44  1  0.87554575  0.19430629  0.37129652  1
  N  N45  1  0.77777857  0.09687582  0.10979545  1
  N  N46  1  0.55687914  0.20472907  0.86580937  1
  N  N47  1  0.45544688  0.10460947  0.61690627  1
  N  N48  1  0.23221643  0.55066873  0.35049137  1
  N  N49  1  0.10183096  0.43743626  0.08501101  1
  N  N50  1  0.87264132  0.53195299  0.86293147  1
  N  N51  1  0.76721212  0.44958607  0.60615472  1
  N  N52  1  0.53814695  0.54808535  0.35461050  1
  N  N53  1  0.45904951  0.40298533  0.12346955  1
  N  N54  1  0.23983781  0.55036014  0.84212190  1
  N  N55  1  0.09407934  0.44201073  0.60780845  1
  N  N56  1  0.89265695  0.53845362  0.37082335  1
  N  N57  1  0.80443955  0.41081356  0.11089902  1
  N  N58  1  0.57035641  0.51155357  0.86299606  1
  N  N59  1  0.47582578  0.40941444  0.61023738  1
  N  N60  1  0.22768961  0.85731258  0.35759911  1
  N  N61  1  0.09792651  0.78229329  0.11458489  1
  N  N62  1  0.89598827  0.88466595  0.87138043  1
  N  N63  1  0.78756410  0.75943830  0.59364893  1
  N  N64  1  0.53627341  0.87662683  0.33866801  1
  N  N65  1  0.41663662  0.76833601  0.09949479  1
  N  N66  1  0.19951742  0.88446227  0.85725109  1
  N  N67  1  0.08421758  0.77361724  0.62105555  1
  N  N68  1  0.90014420  0.88396720  0.36308449  1
  N  N69  1  0.79863515  0.75145391  0.09845426  1
  N  N70  1  0.54676897  0.88905297  0.85459381  1
  N  N71  1  0.45058105  0.73857369  0.61631331  1
