# generated using pymatgen
data_Sc4Al5N9
_symmetry_space_group_name_H-M   'P 1'
_cell_length_a   10.17021198
_cell_length_b   10.13343888
_cell_length_c   9.98749579
_cell_angle_alpha   89.96236576
_cell_angle_beta   90.05405384
_cell_angle_gamma   60.05272325
_symmetry_Int_Tables_number   1
_chemical_formula_structural   Sc4Al5N9
_chemical_formula_sum   'Sc16 Al20 N36'
_cell_volume   891.87506365
_cell_formula_units_Z   4
loop_
 _symmetry_equiv_pos_site_id
 _symmetry_equiv_pos_as_xyz
  1  'x, y, z'
loop_
 _atom_site_type_symbol
 _atom_site_label
 _atom_site_symmetry_multiplicity
 _atom_site_fract_x
 _atom_site_fract_y
 _atom_site_fract_z
 _atom_site_occupancy
  Sc  Sc0  1  0.10978572  0.09312015  0.35470769  1
  Sc  Sc1  1  0.22813747  0.20449330  0.10913715  1
  Sc  Sc2  1  0.87913958  0.20824378  0.62721712  1
  Sc  Sc3  1  0.22540512  0.19980749  0.63929188  1
  Sc  Sc4  1  0.11681595  0.42538238  0.38259793  1
  Sc  Sc5  1  0.22726993  0.54519610  0.12469647  1
  Sc  Sc6  1  0.55486126  0.53595449  0.11421657  1
  Sc  Sc7  1  0.10762063  0.43634122  0.86844450  1
  Sc  Sc8  1  0.23375048  0.54323609  0.62175969  1
  Sc  Sc9  1  0.76877232  0.43266771  0.37060387  1
  Sc  Sc10  1  0.77693039  0.76705122  0.87462210  1
  Sc  Sc11  1  0.54999971  0.87258319  0.13454932  1
  Sc  Sc12  1  0.20677006  0.87805551  0.61958485  1
  Sc  Sc13  1  0.78640446  0.76295803  0.37474544  1
  Sc  Sc14  1  0.43264993  0.76360958  0.86314715  1
  Sc  Sc15  1  0.55523970  0.87335032  0.61121565  1
  Al  Al16  1  0.77836567  0.09593679  0.88573067  1
  Al  Al17  1  0.44734208  0.10142101  0.38359144  1
  Al  Al18  1  0.56602096  0.19865855  0.13354852  1
  Al  Al19  1  0.10034251  0.09170405  0.89826652  1
  Al  Al20  1  0.77430897  0.09022535  0.38152168  1
  Al  Al21  1  0.88123848  0.20032278  0.13244077  1
  Al  Al22  1  0.45421998  0.09490251  0.88510355  1
  Al  Al23  1  0.56439889  0.20029959  0.63164951  1
  Al  Al24  1  0.78403669  0.41661575  0.88962477  1
  Al  Al25  1  0.88127125  0.54100817  0.64059755  1
  Al  Al26  1  0.45536244  0.42158329  0.38518262  1
  Al  Al27  1  0.89282868  0.53822841  0.12979201  1
  Al  Al28  1  0.45613214  0.41476329  0.88131828  1
  Al  Al29  1  0.56698476  0.52533621  0.64048560  1
  Al  Al30  1  0.10872049  0.76413425  0.38069973  1
  Al  Al31  1  0.21380614  0.87003319  0.13573216  1
  Al  Al32  1  0.88640838  0.87445842  0.63503466  1
  Al  Al33  1  0.43752354  0.75022038  0.38952839  1
  Al  Al34  1  0.10496236  0.77704430  0.88590437  1
  Al  Al35  1  0.89072550  0.88003637  0.13151620  1
  N  N36  1  0.24475023  0.19762038  0.32485876  1
  N  N37  1  0.09746452  0.08581050  0.09654592  1
  N  N38  1  0.88854312  0.20388247  0.84422992  1
  N  N39  1  0.76975616  0.07980079  0.57300235  1
  N  N40  1  0.55985200  0.20181928  0.32599592  1
  N  N41  1  0.46573177  0.09631134  0.07358518  1
  N  N42  1  0.22810289  0.18829165  0.86080924  1
  N  N43  1  0.10340015  0.10415824  0.56555099  1
  N  N44  1  0.86940903  0.20001710  0.32542545  1
  N  N45  1  0.77616225  0.09353230  0.07683990  1
  N  N46  1  0.56039360  0.20150662  0.82445428  1
  N  N47  1  0.44954231  0.11190091  0.57290801  1
  N  N48  1  0.23636175  0.54393664  0.34909819  1
  N  N49  1  0.09849138  0.44250223  0.08240402  1
  N  N50  1  0.87305638  0.53194858  0.83138578  1
  N  N51  1  0.77024912  0.44606847  0.58373246  1
  N  N52  1  0.53568798  0.54694654  0.32641259  1
  N  N53  1  0.45817295  0.40125516  0.07083648  1
  N  N54  1  0.23707314  0.55624260  0.84111339  1
  N  N55  1  0.09757589  0.43677179  0.60731752  1
  N  N56  1  0.89352637  0.53675571  0.31927314  1
  N  N57  1  0.79753937  0.41653211  0.08474582  1
  N  N58  1  0.57151437  0.51324746  0.83857851  1
  N  N59  1  0.47829003  0.40884765  0.57726079  1
  N  N60  1  0.23006761  0.85202485  0.33262832  1
  N  N61  1  0.09754786  0.78207788  0.07668131  1
  N  N62  1  0.89612371  0.88561878  0.82678297  1
  N  N63  1  0.79506319  0.75231349  0.59565609  1
  N  N64  1  0.53860009  0.87496522  0.35747756  1
  N  N65  1  0.41745583  0.77364434  0.07551974  1
  N  N66  1  0.19497532  0.89192297  0.83138005  1
  N  N67  1  0.08570030  0.77143550  0.56880995  1
  N  N68  1  0.90055588  0.88250475  0.32098486  1
  N  N69  1  0.79015640  0.75813489  0.09504947  1
  N  N70  1  0.54420577  0.89033438  0.82934356  1
  N  N71  1  0.44549738  0.73604393  0.59007653  1
