# generated using pymatgen
data_Sc4Al5N9
_symmetry_space_group_name_H-M   'P 1'
_cell_length_a   10.34682532
_cell_length_b   10.31035484
_cell_length_c   9.54614699
_cell_angle_alpha   90.09597129
_cell_angle_beta   90.03110875
_cell_angle_gamma   60.18745654
_symmetry_Int_Tables_number   1
_chemical_formula_structural   Sc4Al5N9
_chemical_formula_sum   'Sc16 Al20 N36'
_cell_volume   883.60080764
_cell_formula_units_Z   4
loop_
 _symmetry_equiv_pos_site_id
 _symmetry_equiv_pos_as_xyz
  1  'x, y, z'
loop_
 _atom_site_type_symbol
 _atom_site_label
 _atom_site_symmetry_multiplicity
 _atom_site_fract_x
 _atom_site_fract_y
 _atom_site_fract_z
 _atom_site_occupancy
  Sc  Sc0  1  0.10625571  0.09040150  0.34381752  1
  Sc  Sc1  1  0.22596222  0.20267716  0.10171377  1
  Sc  Sc2  1  0.87676193  0.20855345  0.59624241  1
  Sc  Sc3  1  0.22850970  0.20293381  0.60845715  1
  Sc  Sc4  1  0.11391311  0.43256012  0.35840568  1
  Sc  Sc5  1  0.22792895  0.54671155  0.09877562  1
  Sc  Sc6  1  0.55851255  0.52903259  0.09538024  1
  Sc  Sc7  1  0.10848531  0.43180675  0.85342234  1
  Sc  Sc8  1  0.23269396  0.54323720  0.60320713  1
  Sc  Sc9  1  0.76565156  0.43490832  0.35546246  1
  Sc  Sc10  1  0.78192635  0.76498134  0.84886390  1
  Sc  Sc11  1  0.55321706  0.87710250  0.10007737  1
  Sc  Sc12  1  0.22183336  0.86517435  0.59044918  1
  Sc  Sc13  1  0.78060810  0.76567181  0.34464393  1
  Sc  Sc14  1  0.43710291  0.75866126  0.85026743  1
  Sc  Sc15  1  0.55436278  0.86628855  0.59625542  1
  Al  Al16  1  0.77717233  0.08909532  0.82486942  1
  Al  Al17  1  0.44948532  0.09846113  0.37033067  1
  Al  Al18  1  0.56172707  0.20198981  0.12559319  1
  Al  Al19  1  0.10408628  0.09618923  0.85397736  1
  Al  Al20  1  0.77925036  0.09316126  0.32062798  1
  Al  Al21  1  0.88640349  0.19841771  0.07396645  1
  Al  Al22  1  0.45054902  0.09834570  0.87313687  1
  Al  Al23  1  0.56289246  0.19977365  0.62080679  1
  Al  Al24  1  0.78400340  0.41844127  0.87493743  1
  Al  Al25  1  0.88157927  0.54142473  0.62460985  1
  Al  Al26  1  0.45478943  0.42600044  0.37519875  1
  Al  Al27  1  0.89305419  0.53728310  0.11679763  1
  Al  Al28  1  0.45586611  0.41073300  0.87257905  1
  Al  Al29  1  0.56736982  0.52550121  0.63682029  1
  Al  Al30  1  0.11203711  0.76894133  0.32167914  1
  Al  Al31  1  0.20096475  0.88092171  0.06584787  1
  Al  Al32  1  0.88746271  0.87502371  0.56932671  1
  Al  Al33  1  0.42825384  0.76159461  0.31042889  1
  Al  Al34  1  0.09963391  0.77368340  0.82312753  1
  Al  Al35  1  0.89158981  0.88069035  0.07468316  1
  N  N36  1  0.24033134  0.19780829  0.33621474  1
  N  N37  1  0.09642046  0.09038600  0.09430490  1
  N  N38  1  0.88577881  0.20245388  0.85512523  1
  N  N39  1  0.77265873  0.07669773  0.62326315  1
  N  N40  1  0.55826545  0.20440365  0.32802503  1
  N  N41  1  0.45822291  0.10446589  0.07356663  1
  N  N42  1  0.23028736  0.18881539  0.84728370  1
  N  N43  1  0.10785451  0.09636980  0.59155931  1
  N  N44  1  0.87246641  0.20147700  0.36402860  1
  N  N45  1  0.77831838  0.09432771  0.11320385  1
  N  N46  1  0.55378492  0.20351752  0.82449631  1
  N  N47  1  0.45840748  0.10129735  0.57031549  1
  N  N48  1  0.23555665  0.54949531  0.34998627  1
  N  N49  1  0.10084847  0.43869516  0.08538703  1
  N  N50  1  0.87627607  0.53001147  0.82913954  1
  N  N51  1  0.76753230  0.44913801  0.58311019  1
  N  N52  1  0.53415558  0.54945107  0.31804624  1
  N  N53  1  0.45776543  0.40066837  0.07142538  1
  N  N54  1  0.23657560  0.55158788  0.84734046  1
  N  N55  1  0.09608910  0.44040249  0.59787718  1
  N  N56  1  0.88976657  0.53900338  0.31697605  1
  N  N57  1  0.79911097  0.41495961  0.08272061  1
  N  N58  1  0.57290652  0.50846694  0.84602194  1
  N  N59  1  0.47830725  0.40950796  0.57730809  1
  N  N60  1  0.22909226  0.85616145  0.36399407  1
  N  N61  1  0.09678334  0.78373954  0.12055119  1
  N  N62  1  0.89679268  0.88512797  0.87625545  1
  N  N63  1  0.79216132  0.75445791  0.59417776  1
  N  N64  1  0.53600208  0.87618022  0.33958742  1
  N  N65  1  0.41391901  0.77384103  0.09399837  1
  N  N66  1  0.19723603  0.88550085  0.85840007  1
  N  N67  1  0.08626879  0.77149628  0.62513691  1
  N  N68  1  0.90069192  0.88349431  0.36729933  1
  N  N69  1  0.79358443  0.75737929  0.09479382  1
  N  N70  1  0.54738038  0.88810628  0.84490882  1
  N  N71  1  0.45140300  0.73441495  0.62694237  1
