# generated using pymatgen
data_Sc4Al5N9
_symmetry_space_group_name_H-M   'P 1'
_cell_length_a   10.31695627
_cell_length_b   10.27856660
_cell_length_c   9.61659397
_cell_angle_alpha   89.82413161
_cell_angle_beta   89.74155322
_cell_angle_gamma   60.00281365
_symmetry_Int_Tables_number   1
_chemical_formula_structural   Sc4Al5N9
_chemical_formula_sum   'Sc16 Al20 N36'
_cell_volume   883.16888072
_cell_formula_units_Z   4
loop_
 _symmetry_equiv_pos_site_id
 _symmetry_equiv_pos_as_xyz
  1  'x, y, z'
loop_
 _atom_site_type_symbol
 _atom_site_label
 _atom_site_symmetry_multiplicity
 _atom_site_fract_x
 _atom_site_fract_y
 _atom_site_fract_z
 _atom_site_occupancy
  Sc  Sc0  1  0.10486434  0.08844699  0.33079152  1
  Sc  Sc1  1  0.22519093  0.19929544  0.08359134  1
  Sc  Sc2  1  0.87576037  0.20183606  0.59454054  1
  Sc  Sc3  1  0.22741700  0.20573041  0.58606429  1
  Sc  Sc4  1  0.11774082  0.43309342  0.34322098  1
  Sc  Sc5  1  0.23177730  0.54705880  0.08159420  1
  Sc  Sc6  1  0.56728975  0.52355671  0.09030491  1
  Sc  Sc7  1  0.10833161  0.43120119  0.84433844  1
  Sc  Sc8  1  0.23028871  0.54478197  0.59072906  1
  Sc  Sc9  1  0.77887782  0.42347368  0.34422761  1
  Sc  Sc10  1  0.78126397  0.76590788  0.84459789  1
  Sc  Sc11  1  0.55243523  0.87607714  0.08932027  1
  Sc  Sc12  1  0.22031537  0.86534866  0.58778621  1
  Sc  Sc13  1  0.77907907  0.76930933  0.33902804  1
  Sc  Sc14  1  0.44130437  0.75112476  0.84466347  1
  Sc  Sc15  1  0.55106581  0.87012116  0.58467417  1
  Al  Al16  1  0.77288275  0.09061083  0.82453421  1
  Al  Al17  1  0.44986226  0.09745092  0.31907791  1
  Al  Al18  1  0.56429732  0.20171691  0.06976907  1
  Al  Al19  1  0.10673914  0.09546348  0.82082620  1
  Al  Al20  1  0.77634936  0.09490090  0.31482752  1
  Al  Al21  1  0.88744762  0.20390661  0.05960504  1
  Al  Al22  1  0.44983770  0.09869954  0.82051376  1
  Al  Al23  1  0.56589010  0.19748993  0.56884016  1
  Al  Al24  1  0.77165270  0.42552624  0.81704911  1
  Al  Al25  1  0.88262791  0.54491601  0.61665776  1
  Al  Al26  1  0.44965021  0.42026575  0.32467185  1
  Al  Al27  1  0.89318007  0.53579074  0.11842935  1
  Al  Al28  1  0.46354987  0.41502767  0.81510338  1
  Al  Al29  1  0.55483192  0.53690440  0.56350042  1
  Al  Al30  1  0.11189082  0.76916841  0.31756404  1
  Al  Al31  1  0.20139274  0.88245523  0.06198214  1
  Al  Al32  1  0.88524449  0.87620597  0.56715040  1
  Al  Al33  1  0.42806268  0.76287675  0.31197562  1
  Al  Al34  1  0.10003023  0.77439437  0.82195803  1
  Al  Al35  1  0.89199892  0.88138491  0.07367362  1
  N  N36  1  0.23915349  0.19544250  0.35131197  1
  N  N37  1  0.09520902  0.08954876  0.10453832  1
  N  N38  1  0.88342893  0.20659832  0.85136875  1
  N  N39  1  0.76587418  0.07659552  0.62901682  1
  N  N40  1  0.56194783  0.19818517  0.37047587  1
  N  N41  1  0.45835791  0.10423995  0.12116419  1
  N  N42  1  0.23051200  0.18998491  0.85136159  1
  N  N43  1  0.10818998  0.09589110  0.61721902  1
  N  N44  1  0.87528578  0.19356887  0.37573251  1
  N  N45  1  0.77743752  0.09803776  0.11397221  1
  N  N46  1  0.55719925  0.20424612  0.87148623  1
  N  N47  1  0.45661583  0.10413633  0.62249716  1
  N  N48  1  0.23477580  0.55253944  0.35409423  1
  N  N49  1  0.10283573  0.43794903  0.08686979  1
  N  N50  1  0.87556771  0.53149898  0.82464213  1
  N  N51  1  0.76607720  0.44583532  0.59832617  1
  N  N52  1  0.53808787  0.54827694  0.35582114  1
  N  N53  1  0.46014908  0.40163350  0.12853576  1
  N  N54  1  0.24034640  0.54951972  0.84783120  1
  N  N55  1  0.09576729  0.44227685  0.59483487  1
  N  N56  1  0.89128783  0.54161570  0.32460977  1
  N  N57  1  0.80356352  0.41063083  0.11143201  1
  N  N58  1  0.57104105  0.51025569  0.86960936  1
  N  N59  1  0.47659521  0.40837200  0.61435320  1
  N  N60  1  0.22760613  0.85682999  0.36658723  1
  N  N61  1  0.09810588  0.78310188  0.11912824  1
  N  N62  1  0.89654766  0.88576857  0.87757907  1
  N  N63  1  0.78842142  0.75795700  0.59247199  1
  N  N64  1  0.53417603  0.87693605  0.34617317  1
  N  N65  1  0.41539460  0.76864851  0.10283428  1
  N  N66  1  0.19954280  0.88478103  0.85923904  1
  N  N67  1  0.08379058  0.77325957  0.62660803  1
  N  N68  1  0.90043111  0.88480708  0.36656027  1
  N  N69  1  0.79397485  0.75656315  0.09609968  1
  N  N70  1  0.54570887  0.88797668  0.85682829  1
  N  N71  1  0.45124899  0.73599920  0.62372552  1
