# generated using pymatgen
data_Sc4Al5N9
_symmetry_space_group_name_H-M   'P 1'
_cell_length_a   10.22278521
_cell_length_b   10.18460526
_cell_length_c   9.84463571
_cell_angle_alpha   90.04834708
_cell_angle_beta   90.05087984
_cell_angle_gamma   60.07233239
_symmetry_Int_Tables_number   1
_chemical_formula_structural   Sc4Al5N9
_chemical_formula_sum   'Sc16 Al20 N36'
_cell_volume   888.29983995
_cell_formula_units_Z   4
loop_
 _symmetry_equiv_pos_site_id
 _symmetry_equiv_pos_as_xyz
  1  'x, y, z'
loop_
 _atom_site_type_symbol
 _atom_site_label
 _atom_site_symmetry_multiplicity
 _atom_site_fract_x
 _atom_site_fract_y
 _atom_site_fract_z
 _atom_site_occupancy
  Sc  Sc0  1  0.10951296  0.09295865  0.35353614  1
  Sc  Sc1  1  0.22827199  0.20397703  0.10883371  1
  Sc  Sc2  1  0.87842555  0.20878553  0.62286123  1
  Sc  Sc3  1  0.22500057  0.20097886  0.63339335  1
  Sc  Sc4  1  0.11616133  0.42760348  0.37746070  1
  Sc  Sc5  1  0.22796986  0.54569521  0.12043395  1
  Sc  Sc6  1  0.55431308  0.53659035  0.11074470  1
  Sc  Sc7  1  0.10762865  0.43514057  0.86653005  1
  Sc  Sc8  1  0.23379026  0.54307388  0.61986533  1
  Sc  Sc9  1  0.76840098  0.43335480  0.36666797  1
  Sc  Sc10  1  0.77815421  0.76599626  0.87207169  1
  Sc  Sc11  1  0.54946500  0.87277767  0.12929814  1
  Sc  Sc12  1  0.20696977  0.87770284  0.61635715  1
  Sc  Sc13  1  0.78520049  0.76409190  0.37144283  1
  Sc  Sc14  1  0.43208073  0.76346728  0.85961639  1
  Sc  Sc15  1  0.55546346  0.87367268  0.61089760  1
  Al  Al16  1  0.77852400  0.09591572  0.88444438  1
  Al  Al17  1  0.44787885  0.10106944  0.38243478  1
  Al  Al18  1  0.56599360  0.19881407  0.13296568  1
  Al  Al19  1  0.10004431  0.09190560  0.89544313  1
  Al  Al20  1  0.77413892  0.08967742  0.38097283  1
  Al  Al21  1  0.88114225  0.19983164  0.13236919  1
  Al  Al22  1  0.45379423  0.09545541  0.88344118  1
  Al  Al23  1  0.56487451  0.20020813  0.63089749  1
  Al  Al24  1  0.78478722  0.41544519  0.88913599  1
  Al  Al25  1  0.88117417  0.54091415  0.63863346  1
  Al  Al26  1  0.45575302  0.42200235  0.38372421  1
  Al  Al27  1  0.89267836  0.53850667  0.12823613  1
  Al  Al28  1  0.45682702  0.41364601  0.88033516  1
  Al  Al29  1  0.56785955  0.52480921  0.64008864  1
  Al  Al30  1  0.10863972  0.76389337  0.37963071  1
  Al  Al31  1  0.21367173  0.87025007  0.13432896  1
  Al  Al32  1  0.88636356  0.87448453  0.63443449  1
  Al  Al33  1  0.43816640  0.75015337  0.38852311  1
  Al  Al34  1  0.10459202  0.77748761  0.88430425  1
  Al  Al35  1  0.89085081  0.88034340  0.13004542  1
  N  N36  1  0.24412484  0.19774102  0.32889676  1
  N  N37  1  0.09719119  0.08608913  0.09747523  1
  N  N38  1  0.88823436  0.20376491  0.84373892  1
  N  N39  1  0.76968053  0.07925462  0.57455945  1
  N  N40  1  0.56007428  0.20175144  0.32739964  1
  N  N41  1  0.46428450  0.09783987  0.07511812  1
  N  N42  1  0.22803750  0.18816820  0.85910965  1
  N  N43  1  0.10303311  0.10358899  0.56702575  1
  N  N44  1  0.86949885  0.19963571  0.32880771  1
  N  N45  1  0.77603231  0.09373476  0.07803140  1
  N  N46  1  0.56092006  0.20106124  0.82568213  1
  N  N47  1  0.45108883  0.11073968  0.57475641  1
  N  N48  1  0.23728696  0.54449548  0.34939689  1
  N  N49  1  0.09928203  0.44147664  0.08559474  1
  N  N50  1  0.87375187  0.53069042  0.83312092  1
  N  N51  1  0.76990579  0.44662905  0.58334666  1
  N  N52  1  0.53554120  0.54746626  0.32655607  1
  N  N53  1  0.45881880  0.40087027  0.07247059  1
  N  N54  1  0.23700202  0.55523823  0.84367074  1
  N  N55  1  0.09697883  0.43807909  0.60672881  1
  N  N56  1  0.89235176  0.53830839  0.32053430  1
  N  N57  1  0.79754131  0.41600196  0.08751922  1
  N  N58  1  0.57202336  0.51268861  0.84123648  1
  N  N59  1  0.47860260  0.40882712  0.57873471  1
  N  N60  1  0.23008741  0.85227461  0.33551006  1
  N  N61  1  0.09735492  0.78262077  0.07771744  1
  N  N62  1  0.89597924  0.88566336  0.82858270  1
  N  N63  1  0.79442538  0.75279207  0.59759756  1
  N  N64  1  0.53801614  0.87520514  0.35668567  1
  N  N65  1  0.41640075  0.77371193  0.07543857  1
  N  N66  1  0.19477644  0.89163909  0.83137483  1
  N  N67  1  0.08569155  0.77076142  0.57073323  1
  N  N68  1  0.90073133  0.88249646  0.32208273  1
  N  N69  1  0.79040484  0.75831098  0.09608933  1
  N  N70  1  0.54497270  0.88947928  0.83352754  1
  N  N71  1  0.44646079  0.73604228  0.59350907  1
