# generated using pymatgen
data_Sc4Al5N9
_symmetry_space_group_name_H-M   'P 1'
_cell_length_a   10.32053756
_cell_length_b   10.28170470
_cell_length_c   9.60551444
_cell_angle_alpha   89.82912364
_cell_angle_beta   89.74628502
_cell_angle_gamma   60.00522336
_symmetry_Int_Tables_number   1
_chemical_formula_structural   Sc4Al5N9
_chemical_formula_sum   'Sc16 Al20 N36'
_cell_volume   882.74879473
_cell_formula_units_Z   4
loop_
 _symmetry_equiv_pos_site_id
 _symmetry_equiv_pos_as_xyz
  1  'x, y, z'
loop_
 _atom_site_type_symbol
 _atom_site_label
 _atom_site_symmetry_multiplicity
 _atom_site_fract_x
 _atom_site_fract_y
 _atom_site_fract_z
 _atom_site_occupancy
  Sc  Sc0  1  0.10483213  0.08849093  0.32790110  1
  Sc  Sc1  1  0.22520341  0.19928018  0.08057646  1
  Sc  Sc2  1  0.87568807  0.20189947  0.59148505  1
  Sc  Sc3  1  0.22743788  0.20579244  0.58292407  1
  Sc  Sc4  1  0.11771453  0.43311438  0.33981965  1
  Sc  Sc5  1  0.23181737  0.54704488  0.07856812  1
  Sc  Sc6  1  0.56723507  0.52360781  0.08725404  1
  Sc  Sc7  1  0.10831951  0.43123984  0.84109313  1
  Sc  Sc8  1  0.23028946  0.54482048  0.58752885  1
  Sc  Sc9  1  0.77886906  0.42346031  0.34110360  1
  Sc  Sc10  1  0.78131614  0.76585413  0.84125149  1
  Sc  Sc11  1  0.55245896  0.87606963  0.08613260  1
  Sc  Sc12  1  0.22027658  0.86539260  0.58481280  1
  Sc  Sc13  1  0.77906609  0.76926776  0.33587142  1
  Sc  Sc14  1  0.44129339  0.75112691  0.84154997  1
  Sc  Sc15  1  0.55105203  0.87018133  0.58167096  1
  Al  Al16  1  0.77288182  0.09059192  0.82149478  1
  Al  Al17  1  0.44989377  0.09744184  0.31593439  1
  Al  Al18  1  0.56428772  0.20174342  0.06661000  1
  Al  Al19  1  0.10671257  0.09555288  0.81767326  1
  Al  Al20  1  0.77632905  0.09490479  0.31161796  1
  Al  Al21  1  0.88746166  0.20392078  0.05648777  1
  Al  Al22  1  0.44984242  0.09873601  0.81739314  1
  Al  Al23  1  0.56592345  0.19749289  0.56567019  1
  Al  Al24  1  0.77169456  0.42562357  0.81401295  1
  Al  Al25  1  0.88269795  0.54490206  0.61306199  1
  Al  Al26  1  0.44968525  0.42025818  0.32161248  1
  Al  Al27  1  0.89312363  0.53578791  0.11504427  1
  Al  Al28  1  0.46355865  0.41505132  0.81193621  1
  Al  Al29  1  0.55485391  0.53695693  0.56039085  1
  Al  Al30  1  0.11187937  0.76920916  0.31440541  1
  Al  Al31  1  0.20138278  0.88251911  0.05881362  1
  Al  Al32  1  0.88524133  0.87625159  0.56397589  1
  Al  Al33  1  0.42803741  0.76294576  0.30888871  1
  Al  Al34  1  0.09999923  0.77437377  0.81886943  1
  Al  Al35  1  0.89200327  0.88133658  0.07059705  1
  N  N36  1  0.23917351  0.19548779  0.34786884  1
  N  N37  1  0.09519992  0.08958626  0.10124221  1
  N  N38  1  0.88343606  0.20663462  0.84807457  1
  N  N39  1  0.76588329  0.07661741  0.62572015  1
  N  N40  1  0.56199528  0.19815524  0.36709301  1
  N  N41  1  0.45839138  0.10419633  0.11771837  1
  N  N42  1  0.23050500  0.19003169  0.84802695  1
  N  N43  1  0.10812531  0.09600296  0.61365576  1
  N  N44  1  0.87521848  0.19360239  0.37238609  1
  N  N45  1  0.77743390  0.09804573  0.11054453  1
  N  N46  1  0.55719553  0.20429294  0.86811960  1
  N  N47  1  0.45659543  0.10419948  0.61909474  1
  N  N48  1  0.23476412  0.55255145  0.35066795  1
  N  N49  1  0.10283175  0.43795409  0.08393658  1
  N  N50  1  0.87563719  0.53149205  0.82168227  1
  N  N51  1  0.76607669  0.44588493  0.59514038  1
  N  N52  1  0.53811200  0.54831557  0.35245617  1
  N  N53  1  0.46017171  0.40164195  0.12521210  1
  N  N54  1  0.24037618  0.54950841  0.84456523  1
  N  N55  1  0.09583669  0.44228824  0.59171031  1
  N  N56  1  0.89124245  0.54158278  0.32186502  1
  N  N57  1  0.80352508  0.41069183  0.10810070  1
  N  N58  1  0.57103474  0.51030910  0.86626627  1
  N  N59  1  0.47657611  0.40841945  0.61089999  1
  N  N60  1  0.22757466  0.85686770  0.36329239  1
  N  N61  1  0.09814327  0.78309953  0.11570689  1
  N  N62  1  0.89652022  0.88571231  0.87426721  1
  N  N63  1  0.78843351  0.75800054  0.58931809  1
  N  N64  1  0.53418010  0.87696770  0.34289693  1
  N  N65  1  0.41538224  0.76871199  0.09946107  1
  N  N66  1  0.19952235  0.88483107  0.85577258  1
  N  N67  1  0.08379095  0.77324189  0.62322845  1
  N  N68  1  0.90038740  0.88480603  0.36311945  1
  N  N69  1  0.79397153  0.75651270  0.09295868  1
  N  N70  1  0.54575078  0.88794734  0.85332553  1
  N  N71  1  0.45121557  0.73607281  0.62033805  1
