# generated using pymatgen
data_Sc4Al5N9
_symmetry_space_group_name_H-M   'P 1'
_cell_length_a   10.26506578
_cell_length_b   10.22201082
_cell_length_c   9.79768822
_cell_angle_alpha   90.16405690
_cell_angle_beta   90.37328626
_cell_angle_gamma   60.20295706
_symmetry_Int_Tables_number   1
_chemical_formula_structural   Sc4Al5N9
_chemical_formula_sum   'Sc16 Al20 N36'
_cell_volume   892.12892988
_cell_formula_units_Z   4
loop_
 _symmetry_equiv_pos_site_id
 _symmetry_equiv_pos_as_xyz
  1  'x, y, z'
loop_
 _atom_site_type_symbol
 _atom_site_label
 _atom_site_symmetry_multiplicity
 _atom_site_fract_x
 _atom_site_fract_y
 _atom_site_fract_z
 _atom_site_occupancy
  Sc  Sc0  1  0.11006665  0.09040384  0.34374209  1
  Sc  Sc1  1  0.22811539  0.20395139  0.10294605  1
  Sc  Sc2  1  0.88081145  0.20713471  0.61207775  1
  Sc  Sc3  1  0.22602808  0.20050089  0.61981532  1
  Sc  Sc4  1  0.11473504  0.42982651  0.36545942  1
  Sc  Sc5  1  0.22936387  0.54289396  0.09942157  1
  Sc  Sc6  1  0.55980014  0.52877656  0.09517682  1
  Sc  Sc7  1  0.10772273  0.43206906  0.85596620  1
  Sc  Sc8  1  0.23405701  0.54123801  0.60613176  1
  Sc  Sc9  1  0.76409822  0.43689680  0.36038716  1
  Sc  Sc10  1  0.78202557  0.76281833  0.86426961  1
  Sc  Sc11  1  0.55518975  0.87790720  0.10754927  1
  Sc  Sc12  1  0.22303541  0.86555316  0.58131659  1
  Sc  Sc13  1  0.78189846  0.76546449  0.36288511  1
  Sc  Sc14  1  0.43587631  0.76002047  0.85017191  1
  Sc  Sc15  1  0.55407491  0.86869806  0.60629020  1
  Al  Al16  1  0.77669236  0.09777823  0.87846664  1
  Al  Al17  1  0.44847851  0.09899829  0.37320676  1
  Al  Al18  1  0.56588257  0.20009522  0.12842285  1
  Al  Al19  1  0.09570613  0.10069584  0.88216061  1
  Al  Al20  1  0.77267863  0.09115732  0.37555379  1
  Al  Al21  1  0.88063101  0.20149327  0.12765579  1
  Al  Al22  1  0.45303724  0.09789129  0.87508500  1
  Al  Al23  1  0.56437013  0.20027028  0.62178315  1
  Al  Al24  1  0.78797119  0.41271647  0.88177300  1
  Al  Al25  1  0.88080012  0.54053445  0.62965195  1
  Al  Al26  1  0.45416619  0.42656247  0.37537384  1
  Al  Al27  1  0.89350596  0.53749182  0.12131440  1
  Al  Al28  1  0.45784131  0.40958152  0.87312344  1
  Al  Al29  1  0.56873213  0.52440634  0.64052877  1
  Al  Al30  1  0.11479163  0.76568777  0.31529087  1
  Al  Al31  1  0.20213402  0.87884055  0.06400313  1
  Al  Al32  1  0.88028345  0.87861569  0.62868731  1
  Al  Al33  1  0.42956988  0.76162784  0.30564483  1
  Al  Al34  1  0.10326496  0.77370130  0.81946163  1
  Al  Al35  1  0.88753282  0.88246790  0.12394312  1
  N  N36  1  0.24288440  0.19819782  0.32474433  1
  N  N37  1  0.09332230  0.09250597  0.08932817  1
  N  N38  1  0.88705467  0.20379213  0.83401232  1
  N  N39  1  0.76857263  0.08102266  0.56937883  1
  N  N40  1  0.55893920  0.20341281  0.32275322  1
  N  N41  1  0.46109571  0.10451533  0.06781329  1
  N  N42  1  0.22853741  0.18730362  0.84808283  1
  N  N43  1  0.10619224  0.09863163  0.56427352  1
  N  N44  1  0.86890191  0.20120696  0.32535794  1
  N  N45  1  0.77539800  0.09565927  0.07348312  1
  N  N46  1  0.56046812  0.20084238  0.81737339  1
  N  N47  1  0.45420519  0.10515458  0.56768517  1
  N  N48  1  0.23562175  0.54722846  0.34490201  1
  N  N49  1  0.09882537  0.43942843  0.07842118  1
  N  N50  1  0.87517642  0.52831061  0.82525882  1
  N  N51  1  0.76795153  0.44695172  0.57796579  1
  N  N52  1  0.53416020  0.54857967  0.31255564  1
  N  N53  1  0.45999121  0.39820102  0.06590283  1
  N  N54  1  0.23819912  0.55035954  0.84248222  1
  N  N55  1  0.09580617  0.43835232  0.59713568  1
  N  N56  1  0.89002009  0.53948733  0.31436048  1
  N  N57  1  0.80081473  0.41402899  0.08057490  1
  N  N58  1  0.57496248  0.50729513  0.84503824  1
  N  N59  1  0.47901657  0.41037323  0.57258628  1
  N  N60  1  0.23101412  0.85353451  0.36006262  1
  N  N61  1  0.09978059  0.77982270  0.11296918  1
  N  N62  1  0.88869760  0.89013874  0.82875306  1
  N  N63  1  0.79246379  0.75354298  0.59175272  1
  N  N64  1  0.53688161  0.87684097  0.33779448  1
  N  N65  1  0.41555979  0.77499071  0.09333956  1
  N  N66  1  0.19507885  0.88864038  0.86249135  1
  N  N67  1  0.08996404  0.77120999  0.62002132  1
  N  N68  1  0.89677728  0.88461772  0.32249795  1
  N  N69  1  0.79481446  0.75653474  0.08887431  1
  N  N70  1  0.54760019  0.88881552  0.84057386  1
  N  N71  1  0.45112573  0.73522567  0.63131658  1
