# generated using pymatgen
data_Sc4Al5N9
_symmetry_space_group_name_H-M   'P 1'
_cell_length_a   10.32733789
_cell_length_b   10.28664750
_cell_length_c   9.56452742
_cell_angle_alpha   89.88296174
_cell_angle_beta   89.79801814
_cell_angle_gamma   60.01280331
_symmetry_Int_Tables_number   1
_chemical_formula_structural   Sc4Al5N9
_chemical_formula_sum   'Sc16 Al20 N36'
_cell_volume   880.05474154
_cell_formula_units_Z   4
loop_
 _symmetry_equiv_pos_site_id
 _symmetry_equiv_pos_as_xyz
  1  'x, y, z'
loop_
 _atom_site_type_symbol
 _atom_site_label
 _atom_site_symmetry_multiplicity
 _atom_site_fract_x
 _atom_site_fract_y
 _atom_site_fract_z
 _atom_site_occupancy
  Sc  Sc0  1  0.10456947  0.08885495  0.32866443  1
  Sc  Sc1  1  0.22546825  0.19883823  0.07966834  1
  Sc  Sc2  1  0.87538882  0.20256485  0.59227200  1
  Sc  Sc3  1  0.22750501  0.20620527  0.58166525  1
  Sc  Sc4  1  0.11668922  0.43318814  0.33197940  1
  Sc  Sc5  1  0.23189653  0.54705965  0.07772203  1
  Sc  Sc6  1  0.56656122  0.52387330  0.08726530  1
  Sc  Sc7  1  0.10787620  0.43151398  0.83592450  1
  Sc  Sc8  1  0.23036481  0.54463709  0.58618228  1
  Sc  Sc9  1  0.77916926  0.42275988  0.33842947  1
  Sc  Sc10  1  0.78172552  0.76488581  0.83434472  1
  Sc  Sc11  1  0.55292105  0.87579009  0.08474318  1
  Sc  Sc12  1  0.22002886  0.86558326  0.58523741  1
  Sc  Sc13  1  0.77951986  0.76826536  0.33186237  1
  Sc  Sc14  1  0.44138826  0.75097840  0.84131315  1
  Sc  Sc15  1  0.55069934  0.87060876  0.58079284  1
  Al  Al16  1  0.77294862  0.09046388  0.82203632  1
  Al  Al17  1  0.45005962  0.09731310  0.31570829  1
  Al  Al18  1  0.56418396  0.20180803  0.06645731  1
  Al  Al19  1  0.10655397  0.09592533  0.81764963  1
  Al  Al20  1  0.77613749  0.09479761  0.31158319  1
  Al  Al21  1  0.88750809  0.20376358  0.05638363  1
  Al  Al22  1  0.44986112  0.09875497  0.81717248  1
  Al  Al23  1  0.56612255  0.19746501  0.56556136  1
  Al  Al24  1  0.77222107  0.42772640  0.81202721  1
  Al  Al25  1  0.88450750  0.54543233  0.57893035  1
  Al  Al26  1  0.44967244  0.42023279  0.32212342  1
  Al  Al27  1  0.89067979  0.53484244  0.08146997  1
  Al  Al28  1  0.46369728  0.41508564  0.81180710  1
  Al  Al29  1  0.55558047  0.53698442  0.56094611  1
  Al  Al30  1  0.11184583  0.76913973  0.31446975  1
  Al  Al31  1  0.20139420  0.88260352  0.05869505  1
  Al  Al32  1  0.88509101  0.87671202  0.56363560  1
  Al  Al33  1  0.42814701  0.76306834  0.30917741  1
  Al  Al34  1  0.09981238  0.77415493  0.81888779  1
  Al  Al35  1  0.89210794  0.88073598  0.07072733  1
  N  N36  1  0.23921978  0.19574871  0.34692777  1
  N  N37  1  0.09515114  0.08974232  0.10063775  1
  N  N38  1  0.88329060  0.20705679  0.84798875  1
  N  N39  1  0.76601768  0.07687536  0.62529109  1
  N  N40  1  0.56211687  0.19802892  0.36618736  1
  N  N41  1  0.45856713  0.10381336  0.11653110  1
  N  N42  1  0.23061796  0.19005157  0.84754268  1
  N  N43  1  0.10793453  0.09647310  0.61227145  1
  N  N44  1  0.87486819  0.19357038  0.37245127  1
  N  N45  1  0.77739825  0.09799320  0.10964665  1
  N  N46  1  0.55711441  0.20440492  0.86729296  1
  N  N47  1  0.45647990  0.10438960  0.61796806  1
  N  N48  1  0.23437034  0.55227106  0.35004872  1
  N  N49  1  0.10228092  0.43816621  0.08932387  1
  N  N50  1  0.87533539  0.53068011  0.85043078  1
  N  N51  1  0.76684476  0.44730445  0.60063649  1
  N  N52  1  0.53843324  0.54821184  0.35231583  1
  N  N53  1  0.46000135  0.40179462  0.12469831  1
  N  N54  1  0.24050572  0.54955443  0.84444734  1
  N  N55  1  0.09680506  0.44178132  0.59767076  1
  N  N56  1  0.89026965  0.54118982  0.35624269  1
  N  N57  1  0.80380394  0.41077005  0.11169423  1
  N  N58  1  0.57136035  0.51019061  0.86596850  1
  N  N59  1  0.47675853  0.40857807  0.60978256  1
  N  N60  1  0.22744586  0.85704954  0.36253944  1
  N  N61  1  0.09837890  0.78291817  0.11484563  1
  N  N62  1  0.89612268  0.88496123  0.87394380  1
  N  N63  1  0.78800809  0.75927758  0.59326544  1
  N  N64  1  0.53438747  0.87702307  0.34232088  1
  N  N65  1  0.41551457  0.76875702  0.09877907  1
  N  N66  1  0.19942919  0.88490465  0.85464151  1
  N  N67  1  0.08383604  0.77301228  0.62217453  1
  N  N68  1  0.89998803  0.88460115  0.36219416  1
  N  N69  1  0.79494436  0.75470835  0.09647219  1
  N  N70  1  0.54597534  0.88776277  0.85223284  1
  N  N71  1  0.45106873  0.73645772  0.61926479  1
