# generated using pymatgen
data_Sc4Al5N9
_symmetry_space_group_name_H-M   'P 1'
_cell_length_a   10.34169746
_cell_length_b   10.30043957
_cell_length_c   9.54844586
_cell_angle_alpha   90.07778378
_cell_angle_beta   90.17923983
_cell_angle_gamma   60.19065306
_symmetry_Int_Tables_number   1
_chemical_formula_structural   Sc4Al5N9
_chemical_formula_sum   'Sc16 Al20 N36'
_cell_volume   882.55120974
_cell_formula_units_Z   4
loop_
 _symmetry_equiv_pos_site_id
 _symmetry_equiv_pos_as_xyz
  1  'x, y, z'
loop_
 _atom_site_type_symbol
 _atom_site_label
 _atom_site_symmetry_multiplicity
 _atom_site_fract_x
 _atom_site_fract_y
 _atom_site_fract_z
 _atom_site_occupancy
  Sc  Sc0  1  0.11071844  0.08895973  0.34421250  1
  Sc  Sc1  1  0.22833620  0.20344891  0.10146661  1
  Sc  Sc2  1  0.87963208  0.20779921  0.60695679  1
  Sc  Sc3  1  0.22615701  0.20233775  0.61149990  1
  Sc  Sc4  1  0.11434882  0.43220882  0.35825796  1
  Sc  Sc5  1  0.23011486  0.54400994  0.09626612  1
  Sc  Sc6  1  0.55892483  0.52901577  0.09434430  1
  Sc  Sc7  1  0.10799069  0.43187432  0.85296614  1
  Sc  Sc8  1  0.23309669  0.54329217  0.60296244  1
  Sc  Sc9  1  0.76503031  0.43658927  0.35624176  1
  Sc  Sc10  1  0.78089518  0.76287796  0.85775963  1
  Sc  Sc11  1  0.55287663  0.87821257  0.10266404  1
  Sc  Sc12  1  0.22077580  0.86733834  0.58911424  1
  Sc  Sc13  1  0.78184425  0.76567368  0.35272627  1
  Sc  Sc14  1  0.43651928  0.75933153  0.85002066  1
  Sc  Sc15  1  0.55329256  0.86742253  0.59909850  1
  Al  Al16  1  0.77667507  0.09860711  0.87692213  1
  Al  Al17  1  0.44910779  0.09910279  0.37183976  1
  Al  Al18  1  0.56535867  0.20047877  0.12737028  1
  Al  Al19  1  0.09657522  0.10052273  0.87623103  1
  Al  Al20  1  0.77349752  0.08976622  0.37301157  1
  Al  Al21  1  0.88138073  0.20081036  0.12696922  1
  Al  Al22  1  0.45262814  0.09794996  0.87136285  1
  Al  Al23  1  0.56503074  0.19952443  0.62068629  1
  Al  Al24  1  0.78780820  0.41222054  0.87977664  1
  Al  Al25  1  0.88139071  0.54015652  0.62648987  1
  Al  Al26  1  0.45444996  0.42656363  0.37423990  1
  Al  Al27  1  0.89301094  0.53684998  0.11744813  1
  Al  Al28  1  0.45848096  0.40932291  0.87064934  1
  Al  Al29  1  0.56838951  0.52496521  0.63718004  1
  Al  Al30  1  0.11340316  0.76711448  0.31697410  1
  Al  Al31  1  0.20301652  0.87990502  0.06607012  1
  Al  Al32  1  0.88201477  0.87617494  0.61924781  1
  Al  Al33  1  0.42929344  0.76099034  0.31055213  1
  Al  Al34  1  0.10196342  0.77368445  0.82585378  1
  Al  Al35  1  0.88867420  0.88144201  0.11015085  1
  N  N36  1  0.24215269  0.19844663  0.33229661  1
  N  N37  1  0.09400256  0.09228860  0.09057376  1
  N  N38  1  0.88681672  0.20386644  0.83549823  1
  N  N39  1  0.76910408  0.08019850  0.57307526  1
  N  N40  1  0.55923641  0.20339870  0.32627057  1
  N  N41  1  0.46010754  0.10501888  0.07105312  1
  N  N42  1  0.22855709  0.18859912  0.84807177  1
  N  N43  1  0.10617747  0.09822981  0.57083229  1
  N  N44  1  0.87048134  0.20020615  0.33137560  1
  N  N45  1  0.77448076  0.09770056  0.07737324  1
  N  N46  1  0.56159498  0.20024710  0.82058755  1
  N  N47  1  0.45612410  0.10339316  0.57214937  1
  N  N48  1  0.23607769  0.54885937  0.34701054  1
  N  N49  1  0.10041864  0.43892554  0.08459493  1
  N  N50  1  0.87606939  0.52770592  0.82964866  1
  N  N51  1  0.76844379  0.44696702  0.57979499  1
  N  N52  1  0.53449909  0.54931905  0.31719084  1
  N  N53  1  0.45982114  0.39896519  0.06955663  1
  N  N54  1  0.23841394  0.55006697  0.84518674  1
  N  N55  1  0.09582332  0.44022319  0.59810770  1
  N  N56  1  0.88978575  0.53948338  0.31697198  1
  N  N57  1  0.79981644  0.41344422  0.08476668  1
  N  N58  1  0.57494179  0.50782043  0.84605146  1
  N  N59  1  0.47836477  0.40988416  0.57642086  1
  N  N60  1  0.22952321  0.85443817  0.35975175  1
  N  N61  1  0.10005810  0.78024836  0.10874482  1
  N  N62  1  0.89067057  0.88792474  0.84284625  1
  N  N63  1  0.79174586  0.75369804  0.59428292  1
  N  N64  1  0.53588811  0.87699506  0.34073935  1
  N  N65  1  0.41512378  0.77417324  0.09356682  1
  N  N66  1  0.19639394  0.88891668  0.85761026  1
  N  N67  1  0.08852519  0.77152464  0.62103400  1
  N  N68  1  0.89863070  0.88284368  0.32588477  1
  N  N69  1  0.79265673  0.75640143  0.09177610  1
  N  N70  1  0.54653292  0.88819851  0.84365456  1
  N  N71  1  0.45108885  0.73436536  0.62605269  1
