# generated using pymatgen
data_Sc4Al5N9
_symmetry_space_group_name_H-M   'P 1'
_cell_length_a   10.34461556
_cell_length_b   10.30671737
_cell_length_c   9.53661546
_cell_angle_alpha   89.95048241
_cell_angle_beta   89.96341519
_cell_angle_gamma   60.22340312
_symmetry_Int_Tables_number   1
_chemical_formula_structural   Sc4Al5N9
_chemical_formula_sum   'Sc16 Al20 N36'
_cell_volume   882.53659109
_cell_formula_units_Z   4
loop_
 _symmetry_equiv_pos_site_id
 _symmetry_equiv_pos_as_xyz
  1  'x, y, z'
loop_
 _atom_site_type_symbol
 _atom_site_label
 _atom_site_symmetry_multiplicity
 _atom_site_fract_x
 _atom_site_fract_y
 _atom_site_fract_z
 _atom_site_occupancy
  Sc  Sc0  1  0.11233055  0.08799030  0.34439212  1
  Sc  Sc1  1  0.22813834  0.20388727  0.10132201  1
  Sc  Sc2  1  0.88086036  0.20833192  0.60568355  1
  Sc  Sc3  1  0.22691354  0.20207262  0.61134770  1
  Sc  Sc4  1  0.11393544  0.43231375  0.35829146  1
  Sc  Sc5  1  0.22820604  0.54631410  0.09723244  1
  Sc  Sc6  1  0.55861162  0.52824427  0.09425964  1
  Sc  Sc7  1  0.10754368  0.43217378  0.85297998  1
  Sc  Sc8  1  0.23288548  0.54315439  0.60316622  1
  Sc  Sc9  1  0.76483015  0.43695984  0.35540834  1
  Sc  Sc10  1  0.78143085  0.76458406  0.84787589  1
  Sc  Sc11  1  0.55296985  0.87763719  0.09901080  1
  Sc  Sc12  1  0.22156741  0.86688551  0.58991355  1
  Sc  Sc13  1  0.78061716  0.76542460  0.34333262  1
  Sc  Sc14  1  0.43624274  0.75890607  0.85018539  1
  Sc  Sc15  1  0.55379893  0.86655047  0.59610352  1
  Al  Al16  1  0.77634424  0.09938883  0.86900310  1
  Al  Al17  1  0.44919279  0.09861992  0.37091228  1
  Al  Al18  1  0.56550342  0.20014959  0.12714241  1
  Al  Al19  1  0.09705893  0.09971779  0.87631702  1
  Al  Al20  1  0.77248142  0.09296043  0.37215291  1
  Al  Al21  1  0.88174683  0.20028404  0.12654400  1
  Al  Al22  1  0.45180786  0.09795004  0.87147908  1
  Al  Al23  1  0.56418480  0.19991275  0.62091780  1
  Al  Al24  1  0.78757802  0.41222902  0.87943121  1
  Al  Al25  1  0.88114150  0.54030402  0.62538192  1
  Al  Al26  1  0.45367284  0.42705517  0.37449696  1
  Al  Al27  1  0.89282501  0.53729447  0.11544110  1
  Al  Al28  1  0.45695329  0.40982930  0.87170557  1
  Al  Al29  1  0.56815430  0.52468008  0.63721809  1
  Al  Al30  1  0.11215530  0.76782269  0.32018189  1
  Al  Al31  1  0.20177802  0.87948139  0.06766464  1
  Al  Al32  1  0.88865891  0.87156899  0.57135019  1
  Al  Al33  1  0.42927248  0.76059164  0.30993468  1
  Al  Al34  1  0.09966321  0.77494095  0.82263874  1
  Al  Al35  1  0.89072890  0.88071892  0.07343817  1
  N  N36  1  0.24236253  0.19880442  0.33242848  1
  N  N37  1  0.09440659  0.09201395  0.09083749  1
  N  N38  1  0.88763074  0.20412896  0.83501804  1
  N  N39  1  0.76907565  0.08287404  0.58095835  1
  N  N40  1  0.55953771  0.20319778  0.32714615  1
  N  N41  1  0.45989385  0.10467115  0.07181752  1
  N  N42  1  0.22857271  0.18858238  0.84836358  1
  N  N43  1  0.10805476  0.09717820  0.57125192  1
  N  N44  1  0.87206063  0.20007474  0.33249956  1
  N  N45  1  0.77376764  0.09876839  0.07999142  1
  N  N46  1  0.55927973  0.20116127  0.82123668  1
  N  N47  1  0.45672135  0.10249027  0.57160279  1
  N  N48  1  0.23573830  0.54886979  0.34895614  1
  N  N49  1  0.10049798  0.43935939  0.08465929  1
  N  N50  1  0.87535980  0.52870387  0.83009754  1
  N  N51  1  0.76805629  0.44756765  0.57943024  1
  N  N52  1  0.53451314  0.54907212  0.31736148  1
  N  N53  1  0.45781272  0.39949820  0.07109607  1
  N  N54  1  0.23725738  0.55120988  0.84651639  1
  N  N55  1  0.09570059  0.43998004  0.59833328  1
  N  N56  1  0.88981497  0.53920707  0.31601033  1
  N  N57  1  0.79968919  0.41337804  0.08474752  1
  N  N58  1  0.57464793  0.50715050  0.84642250  1
  N  N59  1  0.47737348  0.41036112  0.57684703  1
  N  N60  1  0.23027570  0.85383250  0.36120330  1
  N  N61  1  0.09581530  0.78365798  0.11826028  1
  N  N62  1  0.89570569  0.88530516  0.86918155  1
  N  N63  1  0.79168217  0.75367755  0.59509547  1
  N  N64  1  0.53560813  0.87657404  0.33964455  1
  N  N65  1  0.41441414  0.77335097  0.09357558  1
  N  N66  1  0.19605394  0.88792544  0.85866823  1
  N  N67  1  0.08752102  0.77195571  0.62404591  1
  N  N68  1  0.90300171  0.87858190  0.36435983  1
  N  N69  1  0.79310426  0.75764748  0.09323404  1
  N  N70  1  0.54670507  0.88798364  0.84424971  1
  N  N71  1  0.45140673  0.73397387  0.62644128  1
