# generated using pymatgen
data_Sc4Al5N9
_symmetry_space_group_name_H-M   'P 1'
_cell_length_a   10.36685518
_cell_length_b   10.32305529
_cell_length_c   9.47234403
_cell_angle_alpha   90.11564198
_cell_angle_beta   89.89066302
_cell_angle_gamma   60.04219232
_symmetry_Int_Tables_number   1
_chemical_formula_structural   Sc4Al5N9
_chemical_formula_sum   'Sc16 Al20 N36'
_cell_volume   878.26286853
_cell_formula_units_Z   4
loop_
 _symmetry_equiv_pos_site_id
 _symmetry_equiv_pos_as_xyz
  1  'x, y, z'
loop_
 _atom_site_type_symbol
 _atom_site_label
 _atom_site_symmetry_multiplicity
 _atom_site_fract_x
 _atom_site_fract_y
 _atom_site_fract_z
 _atom_site_occupancy
  Sc  Sc0  1  0.10400705  0.08893411  0.34217048  1
  Sc  Sc1  1  0.22486636  0.19914410  0.09163756  1
  Sc  Sc2  1  0.86891311  0.21462286  0.60123315  1
  Sc  Sc3  1  0.22715446  0.20582516  0.59349100  1
  Sc  Sc4  1  0.11521640  0.43407231  0.34975891  1
  Sc  Sc5  1  0.23154526  0.54608623  0.08791367  1
  Sc  Sc6  1  0.55862370  0.52728657  0.10085438  1
  Sc  Sc7  1  0.11009294  0.43052992  0.84841556  1
  Sc  Sc8  1  0.23109254  0.54473496  0.59598740  1
  Sc  Sc9  1  0.77825994  0.42673265  0.34631059  1
  Sc  Sc10  1  0.78216048  0.76535246  0.84893619  1
  Sc  Sc11  1  0.55214626  0.87563191  0.09435208  1
  Sc  Sc12  1  0.21866928  0.86657722  0.59527438  1
  Sc  Sc13  1  0.77971048  0.76739409  0.34477770  1
  Sc  Sc14  1  0.44233356  0.74866879  0.84908676  1
  Sc  Sc15  1  0.55245902  0.86864079  0.59317508  1
  Al  Al16  1  0.77454827  0.09006779  0.82853632  1
  Al  Al17  1  0.44973602  0.09663976  0.32609916  1
  Al  Al18  1  0.56408488  0.20074142  0.07363703  1
  Al  Al19  1  0.10557400  0.09573316  0.82521855  1
  Al  Al20  1  0.77570674  0.09427852  0.32055240  1
  Al  Al21  1  0.89096476  0.19489672  0.07132015  1
  Al  Al22  1  0.45019266  0.09797459  0.82681735  1
  Al  Al23  1  0.56706093  0.19676864  0.57333545  1
  Al  Al24  1  0.78042221  0.42105863  0.87916915  1
  Al  Al25  1  0.87996126  0.54258378  0.62375777  1
  Al  Al26  1  0.44906542  0.41881748  0.33127200  1
  Al  Al27  1  0.89487797  0.53841465  0.11492685  1
  Al  Al28  1  0.46640968  0.41459949  0.81833011  1
  Al  Al29  1  0.55821189  0.53739238  0.56596710  1
  Al  Al30  1  0.11130778  0.76919111  0.32253604  1
  Al  Al31  1  0.20143551  0.88268246  0.06697895  1
  Al  Al32  1  0.88602546  0.87672384  0.57261134  1
  Al  Al33  1  0.42644564  0.76477328  0.31834014  1
  Al  Al34  1  0.10055599  0.77349333  0.82737794  1
  Al  Al35  1  0.89182401  0.88054532  0.07828424  1
  N  N36  1  0.23868192  0.19662486  0.35275933  1
  N  N37  1  0.09661975  0.08834914  0.11047876  1
  N  N38  1  0.88571845  0.20319760  0.85856244  1
  N  N39  1  0.76781395  0.07892281  0.62943615  1
  N  N40  1  0.56215824  0.19697929  0.37202264  1
  N  N41  1  0.45801914  0.10303794  0.12078346  1
  N  N42  1  0.23033926  0.18941694  0.85276173  1
  N  N43  1  0.10344320  0.09921240  0.61581380  1
  N  N44  1  0.87271840  0.19711431  0.37254026  1
  N  N45  1  0.77674889  0.09605860  0.11651549  1
  N  N46  1  0.55856620  0.20384768  0.87204038  1
  N  N47  1  0.45690412  0.10361749  0.62287695  1
  N  N48  1  0.23365384  0.55218529  0.35567039  1
  N  N49  1  0.10415972  0.43715395  0.08794215  1
  N  N50  1  0.87603614  0.52942032  0.83289489  1
  N  N51  1  0.76672769  0.45222301  0.57814480  1
  N  N52  1  0.53665011  0.54914625  0.35219742  1
  N  N53  1  0.45870599  0.39992195  0.13126466  1
  N  N54  1  0.24241473  0.54850032  0.84980121  1
  N  N55  1  0.09465083  0.44285165  0.59899525  1
  N  N56  1  0.89161639  0.54152350  0.31828768  1
  N  N57  1  0.80198814  0.41280333  0.09276510  1
  N  N58  1  0.57211659  0.50988836  0.87491608  1
  N  N59  1  0.47871678  0.40879468  0.61331509  1
  N  N60  1  0.22638232  0.85714142  0.37009707  1
  N  N61  1  0.09819850  0.78271474  0.11997273  1
  N  N62  1  0.89677739  0.88529455  0.87857062  1
  N  N63  1  0.79043002  0.75664407  0.59742078  1
  N  N64  1  0.53478219  0.87646190  0.34910110  1
  N  N65  1  0.41368192  0.77049748  0.10506811  1
  N  N66  1  0.19976800  0.88502506  0.86012840  1
  N  N67  1  0.08484551  0.77188858  0.62822550  1
  N  N68  1  0.89985051  0.88412641  0.36814247  1
  N  N69  1  0.79310275  0.75827763  0.09679343  1
  N  N70  1  0.54651627  0.88616186  0.85591145  1
  N  N71  1  0.44990188  0.73624323  0.62442836  1
