# generated using pymatgen
data_Sc4Al5N9
_symmetry_space_group_name_H-M   'P 1'
_cell_length_a   10.28946643
_cell_length_b   10.24829702
_cell_length_c   9.71660234
_cell_angle_alpha   90.17270426
_cell_angle_beta   90.35343411
_cell_angle_gamma   60.19916254
_symmetry_Int_Tables_number   1
_chemical_formula_structural   Sc4Al5N9
_chemical_formula_sum   'Sc16 Al20 N36'
_cell_volume   889.09761444
_cell_formula_units_Z   4
loop_
 _symmetry_equiv_pos_site_id
 _symmetry_equiv_pos_as_xyz
  1  'x, y, z'
loop_
 _atom_site_type_symbol
 _atom_site_label
 _atom_site_symmetry_multiplicity
 _atom_site_fract_x
 _atom_site_fract_y
 _atom_site_fract_z
 _atom_site_occupancy
  Sc  Sc0  1  0.11027991  0.08980150  0.34391537  1
  Sc  Sc1  1  0.22822873  0.20361665  0.10251295  1
  Sc  Sc2  1  0.88013885  0.20763820  0.61006692  1
  Sc  Sc3  1  0.22595625  0.20125843  0.61671961  1
  Sc  Sc4  1  0.11465742  0.43067209  0.36257241  1
  Sc  Sc5  1  0.22965635  0.54329459  0.09776121  1
  Sc  Sc6  1  0.55944745  0.52891962  0.09479661  1
  Sc  Sc7  1  0.10782012  0.43180742  0.85490208  1
  Sc  Sc8  1  0.23368856  0.54189928  0.60467737  1
  Sc  Sc9  1  0.76447738  0.43698454  0.35872005  1
  Sc  Sc10  1  0.78162084  0.76277648  0.86254818  1
  Sc  Sc11  1  0.55470049  0.87787534  0.10624776  1
  Sc  Sc12  1  0.22201598  0.86623719  0.58417788  1
  Sc  Sc13  1  0.78211741  0.76575942  0.36115387  1
  Sc  Sc14  1  0.43610188  0.75975955  0.85014944  1
  Sc  Sc15  1  0.55362148  0.86825348  0.60406702  1
  Al  Al16  1  0.77671313  0.09791417  0.87785282  1
  Al  Al17  1  0.44882820  0.09894850  0.37288182  1
  Al  Al18  1  0.56588340  0.20002381  0.12797844  1
  Al  Al19  1  0.09586092  0.10071344  0.88000814  1
  Al  Al20  1  0.77299811  0.09059545  0.37507392  1
  Al  Al21  1  0.88082373  0.20117632  0.12750539  1
  Al  Al22  1  0.45287539  0.09779673  0.87396295  1
  Al  Al23  1  0.56464455  0.19995627  0.62144004  1
  Al  Al24  1  0.78795556  0.41244935  0.88136439  1
  Al  Al25  1  0.88086983  0.54055221  0.62879777  1
  Al  Al26  1  0.45447405  0.42644900  0.37492129  1
  Al  Al27  1  0.89329539  0.53769070  0.12024831  1
  Al  Al28  1  0.45820614  0.40930735  0.87228407  1
  Al  Al29  1  0.56865020  0.52457393  0.63940464  1
  Al  Al30  1  0.11474865  0.76590147  0.31582087  1
  Al  Al31  1  0.20231494  0.87928482  0.06431716  1
  Al  Al32  1  0.88052616  0.87840705  0.62851018  1
  Al  Al33  1  0.42953048  0.76143329  0.30728547  1
  Al  Al34  1  0.10296152  0.77338500  0.82143627  1
  Al  Al35  1  0.88781217  0.88239009  0.12203317  1
  N  N36  1  0.24269263  0.19810723  0.32728042  1
  N  N37  1  0.09344332  0.09244117  0.08958904  1
  N  N38  1  0.88681673  0.20388410  0.83421347  1
  N  N39  1  0.76873347  0.08061505  0.57042358  1
  N  N40  1  0.55919592  0.20323269  0.32370965  1
  N  N41  1  0.46079682  0.10454571  0.06885205  1
  N  N42  1  0.22851473  0.18766177  0.84785750  1
  N  N43  1  0.10598543  0.09854507  0.56626096  1
  N  N44  1  0.86931737  0.20088690  0.32734614  1
  N  N45  1  0.77533286  0.09592546  0.07435003  1
  N  N46  1  0.56082174  0.20052379  0.81832981  1
  N  N47  1  0.45489566  0.10453393  0.56908439  1
  N  N48  1  0.23593739  0.54771260  0.34546438  1
  N  N49  1  0.09941931  0.43911985  0.08068117  1
  N  N50  1  0.87545840  0.52798470  0.82675492  1
  N  N51  1  0.76798287  0.44723148  0.57819779  1
  N  N52  1  0.53424999  0.54886845  0.31390509  1
  N  N53  1  0.46015509  0.39823943  0.06695705  1
  N  N54  1  0.23821156  0.55017212  0.84358733  1
  N  N55  1  0.09564938  0.43909204  0.59728089  1
  N  N56  1  0.88976147  0.54010129  0.31521617  1
  N  N57  1  0.80049681  0.41389186  0.08219567  1
  N  N58  1  0.57499140  0.50740824  0.84541077  1
  N  N59  1  0.47896462  0.41005776  0.57368887  1
  N  N60  1  0.23060817  0.85380744  0.36004915  1
  N  N61  1  0.09974963  0.77997249  0.11093559  1
  N  N62  1  0.88889991  0.88982498  0.83070066  1
  N  N63  1  0.79210826  0.75380184  0.59310945  1
  N  N64  1  0.53684170  0.87668902  0.33915953  1
  N  N65  1  0.41535098  0.77485785  0.09332746  1
  N  N66  1  0.19538844  0.88883203  0.86042117  1
  N  N67  1  0.08951048  0.77100937  0.61984326  1
  N  N68  1  0.89744441  0.88434036  0.32260936  1
  N  N69  1  0.79434584  0.75677452  0.08964402  1
  N  N70  1  0.54724292  0.88848415  0.84177012  1
  N  N71  1  0.45103534  0.73485137  0.62966935  1
