# generated using pymatgen
data_Sc4Al5N9
_symmetry_space_group_name_H-M   'P 1'
_cell_length_a   10.26416121
_cell_length_b   10.22059597
_cell_length_c   9.78410031
_cell_angle_alpha   89.99668464
_cell_angle_beta   90.16903160
_cell_angle_gamma   60.18636707
_symmetry_Int_Tables_number   1
_chemical_formula_structural   Sc4Al5N9
_chemical_formula_sum   'Sc16 Al20 N36'
_cell_volume   890.55589002
_cell_formula_units_Z   4
loop_
 _symmetry_equiv_pos_site_id
 _symmetry_equiv_pos_as_xyz
  1  'x, y, z'
loop_
 _atom_site_type_symbol
 _atom_site_label
 _atom_site_symmetry_multiplicity
 _atom_site_fract_x
 _atom_site_fract_y
 _atom_site_fract_z
 _atom_site_occupancy
  Sc  Sc0  1  0.11381798  0.08509800  0.35154074  1
  Sc  Sc1  1  0.22805317  0.20289198  0.10815765  1
  Sc  Sc2  1  0.87775998  0.20941506  0.61985588  1
  Sc  Sc3  1  0.22475207  0.20243286  0.62838656  1
  Sc  Sc4  1  0.11674341  0.42781393  0.37141979  1
  Sc  Sc5  1  0.23008791  0.54207887  0.10543561  1
  Sc  Sc6  1  0.55288472  0.53917080  0.11080843  1
  Sc  Sc7  1  0.10602524  0.43361573  0.86322225  1
  Sc  Sc8  1  0.23429290  0.54081135  0.61244276  1
  Sc  Sc9  1  0.76988379  0.43217313  0.36516494  1
  Sc  Sc10  1  0.77628060  0.76521622  0.87575295  1
  Sc  Sc11  1  0.54682670  0.87352494  0.13047815  1
  Sc  Sc12  1  0.21047306  0.87433265  0.60208740  1
  Sc  Sc13  1  0.78657819  0.76325082  0.37093415  1
  Sc  Sc14  1  0.43778296  0.76057987  0.85201330  1
  Sc  Sc15  1  0.55709616  0.87585374  0.61098287  1
  Al  Al16  1  0.77584641  0.09807890  0.88677716  1
  Al  Al17  1  0.44804777  0.10142659  0.38239649  1
  Al  Al18  1  0.56616225  0.19870119  0.13422404  1
  Al  Al19  1  0.09409276  0.10246896  0.88705949  1
  Al  Al20  1  0.77465106  0.08903488  0.38231885  1
  Al  Al21  1  0.88079163  0.20048336  0.13353282  1
  Al  Al22  1  0.45372173  0.09611735  0.88285399  1
  Al  Al23  1  0.56436799  0.20172354  0.63095770  1
  Al  Al24  1  0.78366463  0.41575496  0.88956644  1
  Al  Al25  1  0.88074387  0.54149896  0.63715140  1
  Al  Al26  1  0.45580800  0.42334235  0.38216516  1
  Al  Al27  1  0.89220559  0.53788115  0.12842730  1
  Al  Al28  1  0.45903539  0.41171566  0.88061751  1
  Al  Al29  1  0.57056505  0.52282818  0.64089163  1
  Al  Al30  1  0.11902182  0.76499719  0.32218823  1
  Al  Al31  1  0.20643318  0.87652643  0.06436428  1
  Al  Al32  1  0.87915652  0.87786896  0.63835448  1
  Al  Al33  1  0.44136279  0.74882181  0.39417462  1
  Al  Al34  1  0.10117266  0.77120953  0.82941643  1
  Al  Al35  1  0.88776896  0.88204787  0.13073943  1
  N  N36  1  0.24416024  0.19586441  0.33024127  1
  N  N37  1  0.09436107  0.09012350  0.09273057  1
  N  N38  1  0.88450662  0.20598982  0.84219982  1
  N  N39  1  0.76846757  0.07991575  0.57709656  1
  N  N40  1  0.56041748  0.20203693  0.32899193  1
  N  N41  1  0.46332091  0.09864888  0.07609542  1
  N  N42  1  0.22778710  0.18868319  0.85606400  1
  N  N43  1  0.10206178  0.10405839  0.57224088  1
  N  N44  1  0.87206534  0.19760784  0.33140796  1
  N  N45  1  0.77570064  0.09485435  0.08120932  1
  N  N46  1  0.56041385  0.20169557  0.82679798  1
  N  N47  1  0.45114115  0.11232952  0.57555630  1
  N  N48  1  0.23746444  0.54560305  0.35035064  1
  N  N49  1  0.09817765  0.43955455  0.08557742  1
  N  N50  1  0.87273906  0.53051931  0.83354422  1
  N  N51  1  0.77042527  0.44665351  0.58272807  1
  N  N52  1  0.53646757  0.54890065  0.32837375  1
  N  N53  1  0.46251153  0.39951474  0.07423072  1
  N  N54  1  0.23865141  0.54956558  0.85088008  1
  N  N55  1  0.09565601  0.43919615  0.60474437  1
  N  N56  1  0.89271221  0.53782279  0.32147232  1
  N  N57  1  0.79625303  0.41637216  0.08929534  1
  N  N58  1  0.57292389  0.51099041  0.84259489  1
  N  N59  1  0.47955596  0.40944255  0.57909362  1
  N  N60  1  0.23264323  0.85093719  0.37742141  1
  N  N61  1  0.10178115  0.78003840  0.11712947  1
  N  N62  1  0.88660215  0.88944000  0.83921245  1
  N  N63  1  0.79438272  0.75299219  0.59796906  1
  N  N64  1  0.53857694  0.87517855  0.35923483  1
  N  N65  1  0.41718086  0.77405258  0.07218745  1
  N  N66  1  0.19350542  0.89026263  0.85651884  1
  N  N67  1  0.08748256  0.76867133  0.62988886  1
  N  N68  1  0.90032608  0.88281578  0.32881709  1
  N  N69  1  0.78868145  0.75849212  0.10027037  1
  N  N70  1  0.54540541  0.89111529  0.83459068  1
  N  N71  1  0.45268576  0.73516861  0.60507715  1
