# generated using pymatgen
data_Sc4Al5N9
_symmetry_space_group_name_H-M   'P 1'
_cell_length_a   10.31423614
_cell_length_b   10.27425571
_cell_length_c   9.63544017
_cell_angle_alpha   90.16375714
_cell_angle_beta   90.31200438
_cell_angle_gamma   60.19505155
_symmetry_Int_Tables_number   1
_chemical_formula_structural   Sc4Al5N9
_chemical_formula_sum   'Sc16 Al20 N36'
_cell_volume   885.99939773
_cell_formula_units_Z   4
loop_
 _symmetry_equiv_pos_site_id
 _symmetry_equiv_pos_as_xyz
  1  'x, y, z'
loop_
 _atom_site_type_symbol
 _atom_site_label
 _atom_site_symmetry_multiplicity
 _atom_site_fract_x
 _atom_site_fract_y
 _atom_site_fract_z
 _atom_site_occupancy
  Sc  Sc0  1  0.11042394  0.08936236  0.34402851  1
  Sc  Sc1  1  0.22832848  0.20337119  0.10201954  1
  Sc  Sc2  1  0.87966286  0.20787996  0.60825843  1
  Sc  Sc3  1  0.22596015  0.20191395  0.61370690  1
  Sc  Sc4  1  0.11448892  0.43151348  0.35997909  1
  Sc  Sc5  1  0.22997093  0.54354875  0.09658402  1
  Sc  Sc6  1  0.55913282  0.52905117  0.09451891  1
  Sc  Sc7  1  0.10794334  0.43160638  0.85384925  1
  Sc  Sc8  1  0.23329413  0.54259984  0.60359309  1
  Sc  Sc9  1  0.76485526  0.43690603  0.35726698  1
  Sc  Sc10  1  0.78120257  0.76269085  0.86100501  1
  Sc  Sc11  1  0.55408291  0.87794579  0.10500178  1
  Sc  Sc12  1  0.22113465  0.86679771  0.58668808  1
  Sc  Sc13  1  0.78228711  0.76595044  0.35906537  1
  Sc  Sc14  1  0.43631155  0.75952564  0.85007164  1
  Sc  Sc15  1  0.55334011  0.86788875  0.60201333  1
  Al  Al16  1  0.77667235  0.09809607  0.87719966  1
  Al  Al17  1  0.44911923  0.09894860  0.37249994  1
  Al  Al18  1  0.56584866  0.20002271  0.12750980  1
  Al  Al19  1  0.09614256  0.10067622  0.87787134  1
  Al  Al20  1  0.77334107  0.09000174  0.37446981  1
  Al  Al21  1  0.88104863  0.20086794  0.12715874  1
  Al  Al22  1  0.45273921  0.09776733  0.87273148  1
  Al  Al23  1  0.56490950  0.19969832  0.62097908  1
  Al  Al24  1  0.78787747  0.41223913  0.88074941  1
  Al  Al25  1  0.88098873  0.54054926  0.62791787  1
  Al  Al26  1  0.45464368  0.42638404  0.37444265  1
  Al  Al27  1  0.89307738  0.53769241  0.11905846  1
  Al  Al28  1  0.45850491  0.40914925  0.87137770  1
  Al  Al29  1  0.56852454  0.52479160  0.63816088  1
  Al  Al30  1  0.11445812  0.76621831  0.31626375  1
  Al  Al31  1  0.20261054  0.87968188  0.06494364  1
  Al  Al32  1  0.88083437  0.87807944  0.62829346  1
  Al  Al33  1  0.42951277  0.76120235  0.30901238  1
  Al  Al34  1  0.10271860  0.77317282  0.82377135  1
  Al  Al35  1  0.88802582  0.88230432  0.11969252  1
  N  N36  1  0.24245331  0.19818408  0.32990292  1
  N  N37  1  0.09365065  0.09238787  0.08995306  1
  N  N38  1  0.88668382  0.20389169  0.83463428  1
  N  N39  1  0.76895617  0.08015506  0.57151169  1
  N  N40  1  0.55941306  0.20311202  0.32475864  1
  N  N41  1  0.46048627  0.10465213  0.06991367  1
  N  N42  1  0.22853925  0.18804347  0.84778020  1
  N  N43  1  0.10590852  0.09841335  0.56838869  1
  N  N44  1  0.86975733  0.20052593  0.32925745  1
  N  N45  1  0.77520819  0.09625009  0.07525635  1
  N  N46  1  0.56118159  0.20029768  0.81929629  1
  N  N47  1  0.45553903  0.10395562  0.57057622  1
  N  N48  1  0.23609956  0.54823909  0.34580902  1
  N  N49  1  0.09994655  0.43887685  0.08286006  1
  N  N50  1  0.87573942  0.52775127  0.82836453  1
  N  N51  1  0.76816344  0.44726889  0.57873857  1
  N  N52  1  0.53439347  0.54910991  0.31545169  1
  N  N53  1  0.46025165  0.39838575  0.06807299  1
  N  N54  1  0.23831959  0.54991719  0.84441168  1
  N  N55  1  0.09555903  0.43974178  0.59758823  1
  N  N56  1  0.88952656  0.54045916  0.31612716  1
  N  N57  1  0.80014227  0.41371811  0.08366128  1
  N  N58  1  0.57496415  0.50761028  0.84566816  1
  N  N59  1  0.47876679  0.40987237  0.57482029  1
  N  N60  1  0.23005141  0.85416069  0.35963491  1
  N  N61  1  0.09970414  0.78004869  0.10865689  1
  N  N62  1  0.88906753  0.88945312  0.83291877  1
  N  N63  1  0.79187062  0.75396995  0.59423694  1
  N  N64  1  0.53671838  0.87664748  0.34033038  1
  N  N65  1  0.41525374  0.77463198  0.09341425  1
  N  N66  1  0.19579470  0.88895287  0.85868065  1
  N  N67  1  0.08909563  0.77096340  0.61981761  1
  N  N68  1  0.89798547  0.88404442  0.32252450  1
  N  N69  1  0.79376777  0.75693574  0.09051686  1
  N  N70  1  0.54691339  0.88820795  0.84286768  1
  N  N71  1  0.45096242  0.73459894  0.62783091  1
