# generated using pymatgen
data_Sc4Al5N9
_symmetry_space_group_name_H-M   'P 1'
_cell_length_a   10.41187727
_cell_length_b   10.38175921
_cell_length_c   9.33090824
_cell_angle_alpha   90.21926281
_cell_angle_beta   89.98584160
_cell_angle_gamma   60.10341818
_symmetry_Int_Tables_number   1
_chemical_formula_structural   Sc4Al5N9
_chemical_formula_sum   'Sc16 Al20 N36'
_cell_volume   874.38291010
_cell_formula_units_Z   4
loop_
 _symmetry_equiv_pos_site_id
 _symmetry_equiv_pos_as_xyz
  1  'x, y, z'
loop_
 _atom_site_type_symbol
 _atom_site_label
 _atom_site_symmetry_multiplicity
 _atom_site_fract_x
 _atom_site_fract_y
 _atom_site_fract_z
 _atom_site_occupancy
  Sc  Sc0  1  0.10559843  0.08860664  0.34345368  1
  Sc  Sc1  1  0.22408220  0.20057957  0.09758224  1
  Sc  Sc2  1  0.87128405  0.21333296  0.60134081  1
  Sc  Sc3  1  0.22693891  0.20585454  0.60129205  1
  Sc  Sc4  1  0.11401857  0.43392320  0.34967405  1
  Sc  Sc5  1  0.23133512  0.54589077  0.08952559  1
  Sc  Sc6  1  0.55796216  0.52732965  0.09946612  1
  Sc  Sc7  1  0.10955838  0.43110649  0.84965307  1
  Sc  Sc8  1  0.22837811  0.54643023  0.59566947  1
  Sc  Sc9  1  0.77868553  0.42633229  0.34505717  1
  Sc  Sc10  1  0.78208150  0.76556070  0.85021755  1
  Sc  Sc11  1  0.55128555  0.87604990  0.09981987  1
  Sc  Sc12  1  0.21867446  0.86653077  0.59617822  1
  Sc  Sc13  1  0.78044203  0.76585413  0.34526235  1
  Sc  Sc14  1  0.44213201  0.74928752  0.84929132  1
  Sc  Sc15  1  0.55374353  0.86776544  0.59945928  1
  Al  Al16  1  0.77263325  0.09121255  0.82850238  1
  Al  Al17  1  0.44897181  0.09412374  0.36889011  1
  Al  Al18  1  0.56495556  0.19991410  0.10704809  1
  Al  Al19  1  0.10566640  0.09547060  0.82879748  1
  Al  Al20  1  0.78039444  0.09124833  0.32505207  1
  Al  Al21  1  0.89024841  0.19568288  0.07204846  1
  Al  Al22  1  0.45081087  0.09930628  0.86929573  1
  Al  Al23  1  0.56729017  0.19687452  0.58590439  1
  Al  Al24  1  0.77907023  0.42102768  0.87422172  1
  Al  Al25  1  0.88026792  0.54235318  0.62317620  1
  Al  Al26  1  0.44833375  0.42231284  0.33811675  1
  Al  Al27  1  0.89357063  0.53820788  0.11103695  1
  Al  Al28  1  0.46437620  0.41512119  0.81654165  1
  Al  Al29  1  0.55902318  0.53819262  0.56735865  1
  Al  Al30  1  0.11165188  0.76886219  0.32197734  1
  Al  Al31  1  0.20231938  0.88245573  0.06770531  1
  Al  Al32  1  0.88731721  0.87493571  0.57308048  1
  Al  Al33  1  0.42738527  0.76420156  0.31979051  1
  Al  Al34  1  0.09988801  0.77414838  0.82947771  1
  Al  Al35  1  0.89153582  0.88088791  0.07929659  1
  N  N36  1  0.23833465  0.19732258  0.34536116  1
  N  N37  1  0.09687480  0.08856271  0.10536818  1
  N  N38  1  0.88517570  0.20341932  0.85633942  1
  N  N39  1  0.77100103  0.07766847  0.62283157  1
  N  N40  1  0.56457650  0.19558863  0.35444770  1
  N  N41  1  0.45637831  0.10324517  0.08324196  1
  N  N42  1  0.23074490  0.19033983  0.84892875  1
  N  N43  1  0.10456892  0.09840680  0.61244840  1
  N  N44  1  0.87511469  0.19729047  0.36890191  1
  N  N45  1  0.77860593  0.09499694  0.11516921  1
  N  N46  1  0.55739399  0.20552841  0.84931805  1
  N  N47  1  0.45642601  0.10020065  0.58118090  1
  N  N48  1  0.23151801  0.55337787  0.35356846  1
  N  N49  1  0.10330294  0.43776684  0.08880195  1
  N  N50  1  0.87584714  0.53014790  0.83642755  1
  N  N51  1  0.76718291  0.45075898  0.58195595  1
  N  N52  1  0.53821563  0.55037201  0.35114798  1
  N  N53  1  0.45683463  0.40325414  0.13071843  1
  N  N54  1  0.24197760  0.54829571  0.84796097  1
  N  N55  1  0.09414170  0.44230720  0.59900285  1
  N  N56  1  0.89084005  0.54112724  0.31880105  1
  N  N57  1  0.80029257  0.41264862  0.09162905  1
  N  N58  1  0.57095121  0.51040716  0.86891099  1
  N  N59  1  0.47527028  0.41116907  0.60186943  1
  N  N60  1  0.22644453  0.85726668  0.36638189  1
  N  N61  1  0.09860295  0.78235381  0.11559765  1
  N  N62  1  0.89522517  0.88632484  0.87589684  1
  N  N63  1  0.79172592  0.75538007  0.59712316  1
  N  N64  1  0.53556595  0.87586570  0.34478268  1
  N  N65  1  0.41460831  0.76998112  0.10240785  1
  N  N66  1  0.20036473  0.88472912  0.85757592  1
  N  N67  1  0.08529589  0.77204973  0.62651177  1
  N  N68  1  0.90136075  0.88174666  0.36503995  1
  N  N69  1  0.79216596  0.75885333  0.09655009  1
  N  N70  1  0.54666232  0.88643348  0.84889305  1
  N  N71  1  0.44942803  0.73710433  0.62059950  1
