# generated using pymatgen
data_Sc4Al5N9
_symmetry_space_group_name_H-M   'P 1'
_cell_length_a   10.34641282
_cell_length_b   10.30965561
_cell_length_c   9.55003493
_cell_angle_alpha   90.08498284
_cell_angle_beta   90.02553466
_cell_angle_gamma   60.18793407
_symmetry_Int_Tables_number   1
_chemical_formula_structural   Sc4Al5N9
_chemical_formula_sum   'Sc16 Al20 N36'
_cell_volume   883.86998066
_cell_formula_units_Z   4
loop_
 _symmetry_equiv_pos_site_id
 _symmetry_equiv_pos_as_xyz
  1  'x, y, z'
loop_
 _atom_site_type_symbol
 _atom_site_label
 _atom_site_symmetry_multiplicity
 _atom_site_fract_x
 _atom_site_fract_y
 _atom_site_fract_z
 _atom_site_occupancy
  Sc  Sc0  1  0.10682591  0.09037217  0.34443723  1
  Sc  Sc1  1  0.22661745  0.20318707  0.10232949  1
  Sc  Sc2  1  0.87776464  0.20816789  0.59591023  1
  Sc  Sc3  1  0.22808305  0.20248432  0.60951726  1
  Sc  Sc4  1  0.11396688  0.43240383  0.35895192  1
  Sc  Sc5  1  0.22785931  0.54664440  0.09882680  1
  Sc  Sc6  1  0.55840466  0.52905850  0.09536650  1
  Sc  Sc7  1  0.10835726  0.43184421  0.85344840  1
  Sc  Sc8  1  0.23271440  0.54327932  0.60333823  1
  Sc  Sc9  1  0.76558169  0.43514983  0.35542102  1
  Sc  Sc10  1  0.78189404  0.76497660  0.84874680  1
  Sc  Sc11  1  0.55328462  0.87705910  0.10007492  1
  Sc  Sc12  1  0.22158505  0.86582218  0.59031308  1
  Sc  Sc13  1  0.78061992  0.76568638  0.34473380  1
  Sc  Sc14  1  0.43702738  0.75869356  0.85009511  1
  Sc  Sc15  1  0.55431615  0.86635046  0.59627653  1
  Al  Al16  1  0.77738812  0.08934797  0.82471406  1
  Al  Al17  1  0.44938640  0.09856094  0.37055901  1
  Al  Al18  1  0.56167155  0.20195215  0.12569526  1
  Al  Al19  1  0.10351381  0.09644292  0.86310827  1
  Al  Al20  1  0.77904967  0.09296024  0.32072418  1
  Al  Al21  1  0.88526524  0.19913412  0.07673648  1
  Al  Al22  1  0.45061655  0.09826157  0.87302595  1
  Al  Al23  1  0.56286040  0.19986089  0.62075323  1
  Al  Al24  1  0.78412120  0.41812360  0.87513618  1
  Al  Al25  1  0.88156273  0.54132105  0.62471763  1
  Al  Al26  1  0.45472763  0.42600624  0.37527998  1
  Al  Al27  1  0.89305876  0.53745289  0.11686006  1
  Al  Al28  1  0.45588319  0.41070022  0.87254531  1
  Al  Al29  1  0.56746323  0.52540101  0.63682693  1
  Al  Al30  1  0.11198079  0.76878602  0.32179028  1
  Al  Al31  1  0.20158779  0.87975212  0.06657863  1
  Al  Al32  1  0.88748552  0.87505720  0.56937971  1
  Al  Al33  1  0.42845293  0.76141006  0.31057201  1
  Al  Al34  1  0.09964406  0.77385481  0.82299169  1
  Al  Al35  1  0.89145391  0.88066337  0.07440066  1
  N  N36  1  0.24075592  0.19805379  0.33495215  1
  N  N37  1  0.09652311  0.09049492  0.09138025  1
  N  N38  1  0.88577048  0.20252974  0.85504618  1
  N  N39  1  0.77279792  0.07695761  0.62292013  1
  N  N40  1  0.55817399  0.20438017  0.32808057  1
  N  N41  1  0.45848683  0.10435421  0.07322315  1
  N  N42  1  0.22989089  0.18856753  0.84756416  1
  N  N43  1  0.10810921  0.09654780  0.58458660  1
  N  N44  1  0.87234031  0.20175153  0.36155894  1
  N  N45  1  0.77806815  0.09402170  0.11329036  1
  N  N46  1  0.55383429  0.20349880  0.82430628  1
  N  N47  1  0.45804974  0.10150571  0.57041379  1
  N  N48  1  0.23551017  0.54937697  0.35002890  1
  N  N49  1  0.10072670  0.43888528  0.08509897  1
  N  N50  1  0.87614623  0.52998200  0.82913439  1
  N  N51  1  0.76769348  0.44884401  0.58290363  1
  N  N52  1  0.53415566  0.54934108  0.31794619  1
  N  N53  1  0.45772375  0.40059429  0.07135121  1
  N  N54  1  0.23654450  0.55163702  0.84730289  1
  N  N55  1  0.09615167  0.44019852  0.59809615  1
  N  N56  1  0.88989720  0.53907048  0.31689249  1
  N  N57  1  0.79894622  0.41525148  0.08286226  1
  N  N58  1  0.57294382  0.50843654  0.84600068  1
  N  N59  1  0.47822588  0.40959868  0.57727072  1
  N  N60  1  0.22924600  0.85577761  0.36322021  1
  N  N61  1  0.09652749  0.78365303  0.12068967  1
  N  N62  1  0.89674742  0.88521027  0.87606853  1
  N  N63  1  0.79216677  0.75443222  0.59424856  1
  N  N64  1  0.53602259  0.87618945  0.33959649  1
  N  N65  1  0.41415727  0.77367856  0.09397448  1
  N  N66  1  0.19721942  0.88559345  0.85851468  1
  N  N67  1  0.08633621  0.77168552  0.62507529  1
  N  N68  1  0.90067740  0.88343004  0.36747707  1
  N  N69  1  0.79355184  0.75741088  0.09470072  1
  N  N70  1  0.54735554  0.88806996  0.84477660  1
  N  N71  1  0.45134883  0.73444317  0.62677742  1
