# generated using pymatgen
data_Sc4Al5N9
_symmetry_space_group_name_H-M   'P 1'
_cell_length_a   10.27327671
_cell_length_b   10.22674557
_cell_length_c   9.75462066
_cell_angle_alpha   90.05104120
_cell_angle_beta   90.24307639
_cell_angle_gamma   60.23157252
_symmetry_Int_Tables_number   1
_chemical_formula_structural   Sc4Al5N9
_chemical_formula_sum   'Sc16 Al20 N36'
_cell_volume   889.59393716
_cell_formula_units_Z   4
loop_
 _symmetry_equiv_pos_site_id
 _symmetry_equiv_pos_as_xyz
  1  'x, y, z'
loop_
 _atom_site_type_symbol
 _atom_site_label
 _atom_site_symmetry_multiplicity
 _atom_site_fract_x
 _atom_site_fract_y
 _atom_site_fract_z
 _atom_site_occupancy
  Sc  Sc0  1  0.11253682  0.08677613  0.34344286  1
  Sc  Sc1  1  0.22831924  0.20316700  0.10106219  1
  Sc  Sc2  1  0.87834343  0.20902073  0.61166643  1
  Sc  Sc3  1  0.22518475  0.20222242  0.61931546  1
  Sc  Sc4  1  0.11613160  0.42889296  0.36324770  1
  Sc  Sc5  1  0.23016030  0.54280979  0.09766762  1
  Sc  Sc6  1  0.55415772  0.53762643  0.10093212  1
  Sc  Sc7  1  0.10683372  0.43304854  0.85523305  1
  Sc  Sc8  1  0.23422814  0.54137798  0.60452233  1
  Sc  Sc9  1  0.76879442  0.43314946  0.35755021  1
  Sc  Sc10  1  0.77812999  0.76422152  0.86640052  1
  Sc  Sc11  1  0.54846309  0.87379115  0.11766066  1
  Sc  Sc12  1  0.21232749  0.87327128  0.59225391  1
  Sc  Sc13  1  0.78520165  0.76399744  0.36254531  1
  Sc  Sc14  1  0.43675592  0.76031737  0.84553299  1
  Sc  Sc15  1  0.55646618  0.87401092  0.60427852  1
  Al  Al16  1  0.77604444  0.09798318  0.87863324  1
  Al  Al17  1  0.44818868  0.10066915  0.37405322  1
  Al  Al18  1  0.56606356  0.19910488  0.12672598  1
  Al  Al19  1  0.09458319  0.10199445  0.87971078  1
  Al  Al20  1  0.77398243  0.08962715  0.37463911  1
  Al  Al21  1  0.88067866  0.20078756  0.12591723  1
  Al  Al22  1  0.45354866  0.09638669  0.87485300  1
  Al  Al23  1  0.56443176  0.20112867  0.62269479  1
  Al  Al24  1  0.78482347  0.41497696  0.88160661  1
  Al  Al25  1  0.88104346  0.54106023  0.62906058  1
  Al  Al26  1  0.45537797  0.42390428  0.37453330  1
  Al  Al27  1  0.89272345  0.53783218  0.12045315  1
  Al  Al28  1  0.45894408  0.41111770  0.87262567  1
  Al  Al29  1  0.57008970  0.52321398  0.63405662  1
  Al  Al30  1  0.11757519  0.76547989  0.31499692  1
  Al  Al31  1  0.20608256  0.87688751  0.05918064  1
  Al  Al32  1  0.87942513  0.87809842  0.62972055  1
  Al  Al33  1  0.43998376  0.75127838  0.37587388  1
  Al  Al34  1  0.10138160  0.77201721  0.82150642  1
  Al  Al35  1  0.88764500  0.88223452  0.12271737  1
  N  N36  1  0.24368788  0.19675510  0.32411129  1
  N  N37  1  0.09425661  0.09068571  0.08642163  1
  N  N38  1  0.88513215  0.20545501  0.83468558  1
  N  N39  1  0.76839870  0.08024281  0.56971197  1
  N  N40  1  0.55996992  0.20233580  0.32195883  1
  N  N41  1  0.46267358  0.09999343  0.06869481  1
  N  N42  1  0.22812974  0.18835450  0.84819741  1
  N  N43  1  0.10269238  0.10325266  0.56477074  1
  N  N44  1  0.87112523  0.19856478  0.32453316  1
  N  N45  1  0.77548611  0.09513984  0.07374870  1
  N  N46  1  0.56051812  0.20131486  0.81897591  1
  N  N47  1  0.45234342  0.10982580  0.56822225  1
  N  N48  1  0.23709500  0.54643299  0.34362299  1
  N  N49  1  0.09877747  0.43956331  0.07883886  1
  N  N50  1  0.87399025  0.52950647  0.82602570  1
  N  N51  1  0.76989739  0.44664183  0.57583567  1
  N  N52  1  0.53605760  0.54869763  0.31931694  1
  N  N53  1  0.46197310  0.39934403  0.06672790  1
  N  N54  1  0.23861759  0.55005253  0.84316094  1
  N  N55  1  0.09585755  0.43925287  0.59709633  1
  N  N56  1  0.89191831  0.53856166  0.31429094  1
  N  N57  1  0.79734006  0.41589991  0.08176525  1
  N  N58  1  0.57338934  0.51045318  0.83704636  1
  N  N59  1  0.47935418  0.40933502  0.57204633  1
  N  N60  1  0.23170571  0.85228827  0.36686909  1
  N  N61  1  0.10095935  0.78036001  0.10990796  1
  N  N62  1  0.88720927  0.88962380  0.83108887  1
  N  N63  1  0.79373141  0.75312622  0.59109462  1
  N  N64  1  0.53802233  0.87541625  0.34824171  1
  N  N65  1  0.41684701  0.77362641  0.06824141  1
  N  N66  1  0.19368091  0.89021151  0.85087139  1
  N  N67  1  0.08769378  0.76942119  0.62105479  1
  N  N68  1  0.89930832  0.88335196  0.32173430  1
  N  N69  1  0.79025182  0.75794479  0.09162766  1
  N  N70  1  0.54602747  0.88989555  0.83077113  1
  N  N71  1  0.45207777  0.73510033  0.60056486  1
