# generated using pymatgen
data_Sc4Al5N9
_symmetry_space_group_name_H-M   'P 1'
_cell_length_a   10.40911762
_cell_length_b   10.37689329
_cell_length_c   9.34117248
_cell_angle_alpha   90.21814341
_cell_angle_beta   89.99511217
_cell_angle_gamma   60.08454663
_symmetry_Int_Tables_number   1
_chemical_formula_structural   Sc4Al5N9
_chemical_formula_sum   'Sc16 Al20 N36'
_cell_volume   874.53736575
_cell_formula_units_Z   4
loop_
 _symmetry_equiv_pos_site_id
 _symmetry_equiv_pos_as_xyz
  1  'x, y, z'
loop_
 _atom_site_type_symbol
 _atom_site_label
 _atom_site_symmetry_multiplicity
 _atom_site_fract_x
 _atom_site_fract_y
 _atom_site_fract_z
 _atom_site_occupancy
  Sc  Sc0  1  0.10526065  0.08865311  0.34356988  1
  Sc  Sc1  1  0.22395718  0.20058163  0.09790045  1
  Sc  Sc2  1  0.87098399  0.21326801  0.60143666  1
  Sc  Sc3  1  0.22706058  0.20588348  0.60107732  1
  Sc  Sc4  1  0.11404446  0.43405082  0.34985657  1
  Sc  Sc5  1  0.23146171  0.54583694  0.08958062  1
  Sc  Sc6  1  0.55801405  0.52734598  0.09967763  1
  Sc  Sc7  1  0.10953790  0.43117879  0.84976008  1
  Sc  Sc8  1  0.22883098  0.54614179  0.59587270  1
  Sc  Sc9  1  0.77863133  0.42625996  0.34526448  1
  Sc  Sc10  1  0.78214493  0.76551765  0.85028790  1
  Sc  Sc11  1  0.55135316  0.87584333  0.10012374  1
  Sc  Sc12  1  0.21865428  0.86650047  0.59616866  1
  Sc  Sc13  1  0.78047938  0.76598934  0.34543728  1
  Sc  Sc14  1  0.44215851  0.74912271  0.84932003  1
  Sc  Sc15  1  0.55364032  0.86800001  0.59937502  1
  Al  Al16  1  0.77305294  0.09101045  0.82850226  1
  Al  Al17  1  0.44893367  0.09444874  0.36684894  1
  Al  Al18  1  0.56512976  0.20157455  0.08602024  1
  Al  Al19  1  0.10564345  0.09545921  0.82863499  1
  Al  Al20  1  0.77860883  0.09256316  0.32240150  1
  Al  Al21  1  0.89043035  0.19562475  0.07193787  1
  Al  Al22  1  0.44999205  0.09843011  0.86844392  1
  Al  Al23  1  0.56830246  0.19706491  0.57405545  1
  Al  Al24  1  0.77918020  0.42106733  0.87443541  1
  Al  Al25  1  0.88027308  0.54238378  0.62323732  1
  Al  Al26  1  0.44892921  0.42093127  0.33578169  1
  Al  Al27  1  0.89361155  0.53825517  0.11132508  1
  Al  Al28  1  0.46517572  0.41456119  0.81656218  1
  Al  Al29  1  0.55898415  0.53773689  0.56763254  1
  Al  Al30  1  0.11143676  0.76901432  0.32217944  1
  Al  Al31  1  0.20230457  0.88238776  0.06778743  1
  Al  Al32  1  0.88670614  0.87566140  0.57322638  1
  Al  Al33  1  0.42731738  0.76402435  0.32006538  1
  Al  Al34  1  0.09995526  0.77403508  0.82936067  1
  Al  Al35  1  0.89158096  0.88084550  0.07926335  1
  N  N36  1  0.23811317  0.19739610  0.34596242  1
  N  N37  1  0.09686975  0.08846832  0.10572074  1
  N  N38  1  0.88533083  0.20339733  0.85643334  1
  N  N39  1  0.76901009  0.07859832  0.62487456  1
  N  N40  1  0.56470276  0.19671187  0.36117259  1
  N  N41  1  0.45589855  0.10277042  0.08562734  1
  N  N42  1  0.23072195  0.19033075  0.84916748  1
  N  N43  1  0.10443794  0.09846553  0.61269136  1
  N  N44  1  0.87465763  0.19712104  0.36922432  1
  N  N45  1  0.77824362  0.09529762  0.11482723  1
  N  N46  1  0.55889980  0.20585498  0.86411186  1
  N  N47  1  0.45664261  0.10073528  0.58356525  1
  N  N48  1  0.23200137  0.55307490  0.35379816  1
  N  N49  1  0.10330023  0.43789850  0.08883891  1
  N  N50  1  0.87586454  0.53013527  0.83627491  1
  N  N51  1  0.76725252  0.45066954  0.58196034  1
  N  N52  1  0.53798708  0.54989414  0.35156374  1
  N  N53  1  0.45745415  0.40230468  0.13090955  1
  N  N54  1  0.24218236  0.54807201  0.84820528  1
  N  N55  1  0.09420096  0.44246050  0.59909465  1
  N  N56  1  0.89081885  0.54112981  0.31886100  1
  N  N57  1  0.80042624  0.41264617  0.09174381  1
  N  N58  1  0.57110435  0.51039373  0.86952118  1
  N  N59  1  0.47626781  0.40983608  0.60516182  1
  N  N60  1  0.22637906  0.85727530  0.36666281  1
  N  N61  1  0.09857962  0.78233123  0.11598405  1
  N  N62  1  0.89541803  0.88616374  0.87608342  1
  N  N63  1  0.79163958  0.75551143  0.59718619  1
  N  N64  1  0.53555596  0.87585430  0.34530125  1
  N  N65  1  0.41454756  0.76985237  0.10273707  1
  N  N66  1  0.20036103  0.88468235  0.85777595  1
  N  N67  1  0.08506769  0.77215189  0.62656067  1
  N  N68  1  0.90071065  0.88265762  0.36529149  1
  N  N69  1  0.79231028  0.75881454  0.09662324  1
  N  N70  1  0.54674809  0.88616780  0.84920718  1
  N  N71  1  0.44946296  0.73688679  0.62081739  1
