# generated using pymatgen
data_Sc4Al5N9
_symmetry_space_group_name_H-M   'P 1'
_cell_length_a   10.18491843
_cell_length_b   10.14777404
_cell_length_c   9.96306018
_cell_angle_alpha   89.92888619
_cell_angle_beta   89.90520245
_cell_angle_gamma   60.03328771
_symmetry_Int_Tables_number   1
_chemical_formula_structural   Sc4Al5N9
_chemical_formula_sum   'Sc16 Al20 N36'
_cell_volume   892.06533164
_cell_formula_units_Z   4
loop_
 _symmetry_equiv_pos_site_id
 _symmetry_equiv_pos_as_xyz
  1  'x, y, z'
loop_
 _atom_site_type_symbol
 _atom_site_label
 _atom_site_symmetry_multiplicity
 _atom_site_fract_x
 _atom_site_fract_y
 _atom_site_fract_z
 _atom_site_occupancy
  Sc  Sc0  1  0.10465831  0.08971012  0.30442455  1
  Sc  Sc1  1  0.22717165  0.19691516  0.05493858  1
  Sc  Sc2  1  0.87605845  0.20488401  0.57393678  1
  Sc  Sc3  1  0.22501426  0.20864319  0.56032345  1
  Sc  Sc4  1  0.11491799  0.43270570  0.29959572  1
  Sc  Sc5  1  0.23128135  0.54765134  0.05392384  1
  Sc  Sc6  1  0.56634850  0.52469068  0.06524769  1
  Sc  Sc7  1  0.10842004  0.43065585  0.81536043  1
  Sc  Sc8  1  0.22807621  0.54316524  0.56616960  1
  Sc  Sc9  1  0.77865625  0.42357632  0.31595032  1
  Sc  Sc10  1  0.78053624  0.76608665  0.80724659  1
  Sc  Sc11  1  0.55626869  0.87437176  0.06527557  1
  Sc  Sc12  1  0.21941752  0.86644625  0.56131427  1
  Sc  Sc13  1  0.78240290  0.76508307  0.30944591  1
  Sc  Sc14  1  0.44092569  0.75367006  0.82004871  1
  Sc  Sc15  1  0.55057965  0.87152706  0.55473112  1
  Al  Al16  1  0.77355280  0.09160620  0.80388176  1
  Al  Al17  1  0.44986925  0.09797426  0.29742625  1
  Al  Al18  1  0.56432480  0.20192581  0.05002779  1
  Al  Al19  1  0.10717978  0.09444731  0.80095667  1
  Al  Al20  1  0.77606676  0.09476298  0.29680287  1
  Al  Al21  1  0.88744616  0.20300826  0.03976615  1
  Al  Al22  1  0.44970285  0.09847308  0.79868364  1
  Al  Al23  1  0.56494049  0.19874666  0.54964339  1
  Al  Al24  1  0.77246863  0.42842183  0.79549398  1
  Al  Al25  1  0.88552409  0.54505695  0.55225687  1
  Al  Al26  1  0.44829386  0.42175355  0.30439541  1
  Al  Al27  1  0.88888436  0.53430919  0.04489331  1
  Al  Al28  1  0.46237618  0.41615703  0.79473171  1
  Al  Al29  1  0.55673955  0.53685413  0.54660071  1
  Al  Al30  1  0.11178070  0.76777055  0.29721308  1
  Al  Al31  1  0.20233444  0.88106191  0.04340863  1
  Al  Al32  1  0.88492240  0.87689392  0.54743569  1
  Al  Al33  1  0.42974890  0.76205224  0.29174338  1
  Al  Al34  1  0.10089099  0.77453235  0.80055259  1
  Al  Al35  1  0.89180862  0.87936940  0.05201757  1
  N  N36  1  0.23869515  0.19695824  0.33821821  1
  N  N37  1  0.09551077  0.08941993  0.08922613  1
  N  N38  1  0.88362428  0.20722450  0.83843727  1
  N  N39  1  0.76602059  0.07792560  0.61442884  1
  N  N40  1  0.56094089  0.19955081  0.35663100  1
  N  N41  1  0.45885371  0.10405329  0.10786812  1
  N  N42  1  0.23186046  0.18834325  0.83763797  1
  N  N43  1  0.10922144  0.09556793  0.60749497  1
  N  N44  1  0.87555172  0.19436871  0.36260204  1
  N  N45  1  0.77777935  0.09692330  0.10112450  1
  N  N46  1  0.55686960  0.20479399  0.85713392  1
  N  N47  1  0.45543775  0.10466611  0.60823503  1
  N  N48  1  0.23219571  0.55071050  0.34182840  1
  N  N49  1  0.10183588  0.43746385  0.07630997  1
  N  N50  1  0.87261130  0.53203964  0.85426237  1
  N  N51  1  0.76719884  0.44964955  0.59751375  1
  N  N52  1  0.53813070  0.54814346  0.34597839  1
  N  N53  1  0.45904155  0.40305775  0.11479645  1
  N  N54  1  0.23981916  0.55041196  0.83344403  1
  N  N55  1  0.09405177  0.44205907  0.59917129  1
  N  N56  1  0.89267664  0.53846335  0.36215510  1
  N  N57  1  0.80441692  0.41088741  0.10219008  1
  N  N58  1  0.57032114  0.51164131  0.85427761  1
  N  N59  1  0.47579620  0.40948467  0.60156906  1
  N  N60  1  0.22768262  0.85737648  0.34887688  1
  N  N61  1  0.09793053  0.78233200  0.10590931  1
  N  N62  1  0.89598470  0.88471476  0.86269735  1
  N  N63  1  0.78755584  0.75949395  0.58493051  1
  N  N64  1  0.53629002  0.87667732  0.32997329  1
  N  N65  1  0.41665301  0.76839416  0.09085320  1
  N  N66  1  0.19952341  0.88450164  0.84862020  1
  N  N67  1  0.08421989  0.77367510  0.61238942  1
  N  N68  1  0.90015501  0.88402165  0.35442156  1
  N  N69  1  0.79866890  0.75149062  0.08982378  1
  N  N70  1  0.54678277  0.88911901  0.84595420  1
  N  N71  1  0.45056234  0.73866888  0.60760241  1
