# generated using pymatgen
data_Sc4Al5N9
_symmetry_space_group_name_H-M   'P 1'
_cell_length_a   10.32555440
_cell_length_b   10.28381259
_cell_length_c   9.59592974
_cell_angle_alpha   89.94879692
_cell_angle_beta   89.78463732
_cell_angle_gamma   60.01016808
_symmetry_Int_Tables_number   1
_chemical_formula_structural   Sc4Al5N9
_chemical_formula_sum   'Sc16 Al20 N36'
_cell_volume   882.52367267
_cell_formula_units_Z   4
loop_
 _symmetry_equiv_pos_site_id
 _symmetry_equiv_pos_as_xyz
  1  'x, y, z'
loop_
 _atom_site_type_symbol
 _atom_site_label
 _atom_site_symmetry_multiplicity
 _atom_site_fract_x
 _atom_site_fract_y
 _atom_site_fract_z
 _atom_site_occupancy
  Sc  Sc0  1  0.10454978  0.08866738  0.33681213  1
  Sc  Sc1  1  0.22550121  0.19874946  0.08724952  1
  Sc  Sc2  1  0.87144102  0.21062765  0.59994241  1
  Sc  Sc3  1  0.22738445  0.20574678  0.58954347  1
  Sc  Sc4  1  0.11647309  0.43332655  0.34718073  1
  Sc  Sc5  1  0.23121250  0.54670475  0.08467146  1
  Sc  Sc6  1  0.56124100  0.52644139  0.09778849  1
  Sc  Sc7  1  0.10966455  0.43049505  0.84673549  1
  Sc  Sc8  1  0.23029139  0.54476541  0.59400136  1
  Sc  Sc9  1  0.77779856  0.42568340  0.34854921  1
  Sc  Sc10  1  0.78153697  0.76613637  0.84694463  1
  Sc  Sc11  1  0.55274457  0.87583856  0.09215905  1
  Sc  Sc12  1  0.21945763  0.86602107  0.59180542  1
  Sc  Sc13  1  0.77983096  0.76776184  0.34230074  1
  Sc  Sc14  1  0.44210160  0.75015482  0.84741183  1
  Sc  Sc15  1  0.55181114  0.86935954  0.58817888  1
  Al  Al16  1  0.77348060  0.09023324  0.82686172  1
  Al  Al17  1  0.45003804  0.09724830  0.32244118  1
  Al  Al18  1  0.56422959  0.20117915  0.07273229  1
  Al  Al19  1  0.10694223  0.09498631  0.82316586  1
  Al  Al20  1  0.77610122  0.09465968  0.31920573  1
  Al  Al21  1  0.89033627  0.19692771  0.06645552  1
  Al  Al22  1  0.45020716  0.09833833  0.82353077  1
  Al  Al23  1  0.56626944  0.19748602  0.57203931  1
  Al  Al24  1  0.77857236  0.42182709  0.86828214  1
  Al  Al25  1  0.87994097  0.54285935  0.62284070  1
  Al  Al26  1  0.44874350  0.41974932  0.32853813  1
  Al  Al27  1  0.89452946  0.53713639  0.11713222  1
  Al  Al28  1  0.46469267  0.41499767  0.81772620  1
  Al  Al29  1  0.55708980  0.53702950  0.56623298  1
  Al  Al30  1  0.11162961  0.76917274  0.32089283  1
  Al  Al31  1  0.20146506  0.88241909  0.06527331  1
  Al  Al32  1  0.88544617  0.87660732  0.57060290  1
  Al  Al33  1  0.42713690  0.76417154  0.31562868  1
  Al  Al34  1  0.10032530  0.77411647  0.82508402  1
  Al  Al35  1  0.89192151  0.88087256  0.07650687  1
  N  N36  1  0.23929853  0.19574479  0.35407844  1
  N  N37  1  0.09619276  0.08867892  0.10985390  1
  N  N38  1  0.88544055  0.20321444  0.85710110  1
  N  N39  1  0.76665611  0.07808876  0.63092990  1
  N  N40  1  0.56175925  0.19799284  0.37340209  1
  N  N41  1  0.45857119  0.10365941  0.12379673  1
  N  N42  1  0.23079449  0.18925348  0.85388900  1
  N  N43  1  0.10587665  0.09767074  0.61900294  1
  N  N44  1  0.87414979  0.19542658  0.37597153  1
  N  N45  1  0.77712077  0.09691736  0.11777796  1
  N  N46  1  0.55778923  0.20401585  0.87402737  1
  N  N47  1  0.45689823  0.10398637  0.62508183  1
  N  N48  1  0.23382279  0.55244514  0.35692324  1
  N  N49  1  0.10396297  0.43700183  0.08723536  1
  N  N50  1  0.87550139  0.53034297  0.82883465  1
  N  N51  1  0.76671256  0.44989301  0.58190135  1
  N  N52  1  0.53662881  0.54890351  0.35430093  1
  N  N53  1  0.45880398  0.40067660  0.13179944  1
  N  N54  1  0.24089629  0.54922076  0.85018213  1
  N  N55  1  0.09459755  0.44261937  0.59788519  1
  N  N56  1  0.89149881  0.54056953  0.31862204  1
  N  N57  1  0.80257748  0.41256236  0.09299487  1
  N  N58  1  0.57030404  0.51060487  0.87501213  1
  N  N59  1  0.47755488  0.40882885  0.61631016  1
  N  N60  1  0.22710214  0.85688828  0.37019679  1
  N  N61  1  0.09803317  0.78306163  0.12172076  1
  N  N62  1  0.89677960  0.88580544  0.87989680  1
  N  N63  1  0.78943719  0.75703282  0.59603393  1
  N  N64  1  0.53482075  0.87657343  0.34901946  1
  N  N65  1  0.41428249  0.77026413  0.10581428  1
  N  N66  1  0.19982334  0.88471867  0.86182193  1
  N  N67  1  0.08408653  0.77283932  0.62934914  1
  N  N68  1  0.90016565  0.88433901  0.36945036  1
  N  N69  1  0.79394325  0.75737226  0.09705089  1
  N  N70  1  0.54613932  0.88755522  0.85895390  1
  N  N71  1  0.45065460  0.73628029  0.62603807  1
