# generated using pymatgen
data_Sc4Al5N9
_symmetry_space_group_name_H-M   'P 1'
_cell_length_a   10.31717680
_cell_length_b   10.27876666
_cell_length_c   9.61591500
_cell_angle_alpha   89.82442102
_cell_angle_beta   89.74172398
_cell_angle_gamma   60.00298746
_symmetry_Int_Tables_number   1
_chemical_formula_structural   Sc4Al5N9
_chemical_formula_sum   'Sc16 Al20 N36'
_cell_volume   883.14415289
_cell_formula_units_Z   4
loop_
 _symmetry_equiv_pos_site_id
 _symmetry_equiv_pos_as_xyz
  1  'x, y, z'
loop_
 _atom_site_type_symbol
 _atom_site_label
 _atom_site_symmetry_multiplicity
 _atom_site_fract_x
 _atom_site_fract_y
 _atom_site_fract_z
 _atom_site_occupancy
  Sc  Sc0  1  0.10486565  0.08845415  0.32918972  1
  Sc  Sc1  1  0.22519100  0.19930599  0.08198375  1
  Sc  Sc2  1  0.87575757  0.20185087  0.59292026  1
  Sc  Sc3  1  0.22741902  0.20573987  0.58444500  1
  Sc  Sc4  1  0.11774148  0.43310617  0.34159767  1
  Sc  Sc5  1  0.23177951  0.54706779  0.07998473  1
  Sc  Sc6  1  0.56728000  0.52356994  0.08868722  1
  Sc  Sc7  1  0.10833412  0.43121023  0.84271826  1
  Sc  Sc8  1  0.23028851  0.54479372  0.58910659  1
  Sc  Sc9  1  0.77887667  0.42348392  0.34260498  1
  Sc  Sc10  1  0.78126536  0.76591394  0.84297435  1
  Sc  Sc11  1  0.55243226  0.87608749  0.08769777  1
  Sc  Sc12  1  0.22031185  0.86536230  0.58617267  1
  Sc  Sc13  1  0.77907595  0.76931977  0.33740673  1
  Sc  Sc14  1  0.44130348  0.75113342  0.84304579  1
  Sc  Sc15  1  0.55106284  0.87013547  0.58306572  1
  Al  Al16  1  0.77288130  0.09061822  0.82291222  1
  Al  Al17  1  0.44986129  0.09746086  0.31745470  1
  Al  Al18  1  0.56429682  0.20172751  0.06814607  1
  Al  Al19  1  0.10673834  0.09547776  0.81920124  1
  Al  Al20  1  0.77634851  0.09490979  0.31319949  1
  Al  Al21  1  0.88745010  0.20391222  0.05798204  1
  Al  Al22  1  0.44983641  0.09871050  0.81889567  1
  Al  Al23  1  0.56588904  0.19749908  0.56721398  1
  Al  Al24  1  0.77165594  0.42553837  0.81544288  1
  Al  Al25  1  0.88263049  0.54492341  0.61502037  1
  Al  Al26  1  0.44964997  0.42027479  0.32304878  1
  Al  Al27  1  0.89317950  0.53580043  0.11678902  1
  Al  Al28  1  0.46355020  0.41503732  0.81347977  1
  Al  Al29  1  0.55483327  0.53691682  0.56188052  1
  Al  Al30  1  0.11189087  0.76917991  0.31593547  1
  Al  Al31  1  0.20139071  0.88246828  0.06035947  1
  Al  Al32  1  0.88524662  0.87621493  0.56552119  1
  Al  Al33  1  0.42805662  0.76289097  0.31035638  1
  Al  Al34  1  0.10002822  0.77440192  0.82033984  1
  Al  Al35  1  0.89199887  0.88139319  0.07205106  1
  N  N36  1  0.23915186  0.19545789  0.34967065  1
  N  N37  1  0.09520650  0.08956080  0.10290798  1
  N  N38  1  0.88342970  0.20660734  0.84973496  1
  N  N39  1  0.76587433  0.07660536  0.62738075  1
  N  N40  1  0.56195004  0.19819259  0.36883991  1
  N  N41  1  0.45835849  0.10424658  0.11952480  1
  N  N42  1  0.23050984  0.18999711  0.84972798  1
  N  N43  1  0.10818432  0.09590698  0.61557040  1
  N  N44  1  0.87527796  0.19358431  0.37409632  1
  N  N45  1  0.77743713  0.09804754  0.11233360  1
  N  N46  1  0.55720062  0.20425668  0.86985053  1
  N  N47  1  0.45661616  0.10414891  0.62086161  1
  N  N48  1  0.23477312  0.55254823  0.35245201  1
  N  N49  1  0.10283214  0.43795994  0.08524768  1
  N  N50  1  0.87557192  0.53150762  0.82302399  1
  N  N51  1  0.76607796  0.44584804  0.59669619  1
  N  N52  1  0.53809167  0.54828627  0.35418402  1
  N  N53  1  0.46015290  0.40164180  0.12690076  1
  N  N54  1  0.24034838  0.54952805  0.84619896  1
  N  N55  1  0.09576668  0.44229044  0.59320496  1
  N  N56  1  0.89128003  0.54162441  0.32298816  1
  N  N57  1  0.80356245  0.41064357  0.10978797  1
  N  N58  1  0.57104108  0.51026711  0.86797434  1
  N  N59  1  0.47659490  0.40838280  0.61271289  1
  N  N60  1  0.22760420  0.85684035  0.36495799  1
  N  N61  1  0.09810565  0.78311220  0.11748525  1
  N  N62  1  0.89654501  0.88577682  0.87594233  1
  N  N63  1  0.78842416  0.75796541  0.59084325  1
  N  N64  1  0.53417583  0.87694682  0.34454216  1
  N  N65  1  0.41539389  0.76866042  0.10119769  1
  N  N66  1  0.19954074  0.88479339  0.85759649  1
  N  N67  1  0.08378775  0.77326731  0.62497303  1
  N  N68  1  0.90042661  0.88481553  0.36491914  1
  N  N69  1  0.79397236  0.75657129  0.09446843  1
  N  N70  1  0.54571152  0.88798291  0.85518405  1
  N  N71  1  0.45124902  0.73600946  0.62208938  1
