# generated using pymatgen
data_Sc4Al5N9
_symmetry_space_group_name_H-M   'P 1'
_cell_length_a   10.24786677
_cell_length_b   10.20442304
_cell_length_c   9.83284622
_cell_angle_alpha   89.97836595
_cell_angle_beta   90.17138677
_cell_angle_gamma   60.19452591
_symmetry_Int_Tables_number   1
_chemical_formula_structural   Sc4Al5N9
_chemical_formula_sum   'Sc16 Al20 N36'
_cell_volume   892.22999184
_cell_formula_units_Z   4
loop_
 _symmetry_equiv_pos_site_id
 _symmetry_equiv_pos_as_xyz
  1  'x, y, z'
loop_
 _atom_site_type_symbol
 _atom_site_label
 _atom_site_symmetry_multiplicity
 _atom_site_fract_x
 _atom_site_fract_y
 _atom_site_fract_z
 _atom_site_occupancy
  Sc  Sc0  1  0.11393271  0.08523034  0.34801468  1
  Sc  Sc1  1  0.22793811  0.20312743  0.10442187  1
  Sc  Sc2  1  0.87799430  0.20926507  0.61757094  1
  Sc  Sc3  1  0.22481146  0.20218517  0.62677859  1
  Sc  Sc4  1  0.11708527  0.42704468  0.36947128  1
  Sc  Sc5  1  0.22991524  0.54184985  0.10272979  1
  Sc  Sc6  1  0.55295903  0.53924800  0.10803107  1
  Sc  Sc7  1  0.10573910  0.43409119  0.86013133  1
  Sc  Sc8  1  0.23456854  0.54049690  0.60968781  1
  Sc  Sc9  1  0.77012068  0.43177795  0.36255678  1
  Sc  Sc10  1  0.77579413  0.76562566  0.87327494  1
  Sc  Sc11  1  0.54664959  0.87357623  0.12855001  1
  Sc  Sc12  1  0.21059361  0.87445604  0.59778201  1
  Sc  Sc13  1  0.78693081  0.76277914  0.36810033  1
  Sc  Sc14  1  0.43788931  0.76068315  0.84848184  1
  Sc  Sc15  1  0.55726517  0.87607612  0.60744297  1
  Al  Al16  1  0.77573193  0.09802126  0.88347200  1
  Al  Al17  1  0.44781855  0.10169325  0.37905776  1
  Al  Al18  1  0.56621424  0.19862820  0.13072977  1
  Al  Al19  1  0.09395326  0.10260608  0.88433471  1
  Al  Al20  1  0.77464109  0.08926436  0.37892663  1
  Al  Al21  1  0.88078278  0.20059181  0.12979644  1
  Al  Al22  1  0.45386023  0.09600629  0.87970686  1
  Al  Al23  1  0.56419175  0.20192795  0.62753302  1
  Al  Al24  1  0.78337095  0.41616124  0.88605887  1
  Al  Al25  1  0.88067405  0.54164707  0.63396321  1
  Al  Al26  1  0.45571786  0.42331153  0.37882839  1
  Al  Al27  1  0.89223963  0.53776324  0.12533502  1
  Al  Al28  1  0.45887686  0.41200140  0.87736791  1
  Al  Al29  1  0.57062594  0.52277541  0.63748418  1
  Al  Al30  1  0.11928517  0.76488427  0.31830586  1
  Al  Al31  1  0.20641123  0.87626471  0.06001017  1
  Al  Al32  1  0.87884621  0.87796000  0.63478384  1
  Al  Al33  1  0.44171546  0.74861304  0.39142043  1
  Al  Al34  1  0.10111402  0.77132441  0.82459612  1
  Al  Al35  1  0.88763634  0.88210163  0.12821428  1
  N  N36  1  0.24447930  0.19573930  0.32481491  1
  N  N37  1  0.09437731  0.09006605  0.08849018  1
  N  N38  1  0.88448725  0.20609924  0.83851011  1
  N  N39  1  0.76838551  0.08014494  0.57284332  1
  N  N40  1  0.56040482  0.20209186  0.32472103  1
  N  N41  1  0.46371172  0.09822857  0.07179420  1
  N  N42  1  0.22772606  0.18875253  0.85270634  1
  N  N43  1  0.10200162  0.10460082  0.56762616  1
  N  N44  1  0.87211283  0.19755589  0.32640978  1
  N  N45  1  0.77578909  0.09463015  0.07701202  1
  N  N46  1  0.56017926  0.20193436  0.82262464  1
  N  N47  1  0.45051963  0.11304294  0.57108727  1
  N  N48  1  0.23741668  0.54521939  0.34610027  1
  N  N49  1  0.09770497  0.43988632  0.08048255  1
  N  N50  1  0.87224729  0.53112343  0.82905931  1
  N  N51  1  0.77062278  0.44640774  0.57889028  1
  N  N52  1  0.53656323  0.54894190  0.32450716  1
  N  N53  1  0.46255307  0.39952866  0.06994393  1
  N  N54  1  0.23864518  0.54976217  0.84661143  1
  N  N55  1  0.09577592  0.43888466  0.60108545  1
  N  N56  1  0.89324162  0.53714603  0.31725970  1
  N  N57  1  0.79618808  0.41655487  0.08467682  1
  N  N58  1  0.57283431  0.51100410  0.83803691  1
  N  N59  1  0.47962467  0.40952156  0.57473988  1
  N  N60  1  0.23275276  0.85078038  0.37460270  1
  N  N61  1  0.10197478  0.78002402  0.11462919  1
  N  N62  1  0.88623503  0.88957414  0.83450755  1
  N  N63  1  0.79464052  0.75280312  0.59315988  1
  N  N64  1  0.53868595  0.87516164  0.35586969  1
  N  N65  1  0.41755398  0.77407327  0.06772812  1
  N  N66  1  0.19334011  0.89029762  0.85318815  1
  N  N67  1  0.08754506  0.76873796  0.62642155  1
  N  N68  1  0.90013845  0.88292563  0.32508059  1
  N  N69  1  0.78846339  0.75856476  0.09658178  1
  N  N70  1  0.54530067  0.89156421  0.82936861  1
  N  N71  1  0.45289508  0.73516653  0.60114493  1
