# generated using pymatgen
data_Sc4Al5N9
_symmetry_space_group_name_H-M   'P 1'
_cell_length_a   10.40601656
_cell_length_b   10.37443586
_cell_length_c   9.35809327
_cell_angle_alpha   90.21089606
_cell_angle_beta   89.97618154
_cell_angle_gamma   60.11689334
_symmetry_Int_Tables_number   1
_chemical_formula_structural   Sc4Al5N9
_chemical_formula_sum   'Sc16 Al20 N36'
_cell_volume   875.93715602
_cell_formula_units_Z   4
loop_
 _symmetry_equiv_pos_site_id
 _symmetry_equiv_pos_as_xyz
  1  'x, y, z'
loop_
 _atom_site_type_symbol
 _atom_site_label
 _atom_site_symmetry_multiplicity
 _atom_site_fract_x
 _atom_site_fract_y
 _atom_site_fract_z
 _atom_site_occupancy
  Sc  Sc0  1  0.10566510  0.08862858  0.34292353  1
  Sc  Sc1  1  0.22438019  0.20044341  0.09720151  1
  Sc  Sc2  1  0.87043799  0.21318465  0.60020747  1
  Sc  Sc3  1  0.22687845  0.20569790  0.60082946  1
  Sc  Sc4  1  0.11423694  0.43347971  0.34966809  1
  Sc  Sc5  1  0.23041143  0.54641011  0.08973058  1
  Sc  Sc6  1  0.55789070  0.52804806  0.09908999  1
  Sc  Sc7  1  0.10937730  0.43104088  0.84929385  1
  Sc  Sc8  1  0.22920700  0.54569026  0.59469471  1
  Sc  Sc9  1  0.77844447  0.42635179  0.34472516  1
  Sc  Sc10  1  0.78219546  0.76508963  0.84955705  1
  Sc  Sc11  1  0.55132241  0.87690462  0.09940635  1
  Sc  Sc12  1  0.21892911  0.86639321  0.59529727  1
  Sc  Sc13  1  0.78044654  0.76597761  0.34494556  1
  Sc  Sc14  1  0.44217753  0.74992861  0.84857335  1
  Sc  Sc15  1  0.55413853  0.86750754  0.59883019  1
  Al  Al16  1  0.77535338  0.09011223  0.83102470  1
  Al  Al17  1  0.45010921  0.09500074  0.37170331  1
  Al  Al18  1  0.56369840  0.19870283  0.12378223  1
  Al  Al19  1  0.10547451  0.09563713  0.82713597  1
  Al  Al20  1  0.78055278  0.09059738  0.32472839  1
  Al  Al21  1  0.89049557  0.19583974  0.07177839  1
  Al  Al22  1  0.45012179  0.09944519  0.86962943  1
  Al  Al23  1  0.56537170  0.19681568  0.61350530  1
  Al  Al24  1  0.77927265  0.42107860  0.87447155  1
  Al  Al25  1  0.88032237  0.54199886  0.62252480  1
  Al  Al26  1  0.44853368  0.42180887  0.33767013  1
  Al  Al27  1  0.89363567  0.53816089  0.11167786  1
  Al  Al28  1  0.46153262  0.41857302  0.82010339  1
  Al  Al29  1  0.55877838  0.53787579  0.56664434  1
  Al  Al30  1  0.11185304  0.76899821  0.32168082  1
  Al  Al31  1  0.20210269  0.88287104  0.06681632  1
  Al  Al32  1  0.88758499  0.87472296  0.57261664  1
  Al  Al33  1  0.42739519  0.76470549  0.31881471  1
  Al  Al34  1  0.10050115  0.77357207  0.82799405  1
  Al  Al35  1  0.89205349  0.88033574  0.07837522  1
  N  N36  1  0.23927512  0.19682376  0.34467521  1
  N  N37  1  0.09695936  0.08871195  0.10579000  1
  N  N38  1  0.88556128  0.20359514  0.85623760  1
  N  N39  1  0.77241750  0.07647106  0.62385878  1
  N  N40  1  0.56388868  0.19424856  0.34030074  1
  N  N41  1  0.45669470  0.10424909  0.07774225  1
  N  N42  1  0.23024849  0.19025717  0.84769019  1
  N  N43  1  0.10407623  0.09853070  0.61166288  1
  N  N44  1  0.87470996  0.19707985  0.36809784  1
  N  N45  1  0.77860601  0.09487005  0.11194125  1
  N  N46  1  0.55522196  0.20566030  0.83333834  1
  N  N47  1  0.45702197  0.10062359  0.57914546  1
  N  N48  1  0.23180573  0.55290906  0.35254866  1
  N  N49  1  0.10302476  0.43749499  0.08810582  1
  N  N50  1  0.87592622  0.52982230  0.83481839  1
  N  N51  1  0.76702369  0.45069918  0.58053102  1
  N  N52  1  0.53800620  0.55034892  0.34995778  1
  N  N53  1  0.45628224  0.40414107  0.12628566  1
  N  N54  1  0.24112869  0.54920199  0.84800423  1
  N  N55  1  0.09444142  0.44196146  0.59832605  1
  N  N56  1  0.89098307  0.54104101  0.31845796  1
  N  N57  1  0.80041453  0.41288315  0.09115153  1
  N  N58  1  0.57110062  0.51110261  0.86893883  1
  N  N59  1  0.47488421  0.41151931  0.60073924  1
  N  N60  1  0.22676247  0.85725045  0.36647122  1
  N  N61  1  0.09866312  0.78282042  0.11621405  1
  N  N62  1  0.89643767  0.88473824  0.87572242  1
  N  N63  1  0.79194789  0.75508332  0.59643662  1
  N  N64  1  0.53561143  0.87649671  0.34401871  1
  N  N65  1  0.41448773  0.77100621  0.10187157  1
  N  N66  1  0.20015133  0.88496311  0.85713158  1
  N  N67  1  0.08586289  0.77146661  0.62572785  1
  N  N68  1  0.90153476  0.88169893  0.36504999  1
  N  N69  1  0.79223857  0.75863191  0.09607709  1
  N  N70  1  0.54685689  0.88654663  0.84744020  1
  N  N71  1  0.44971310  0.73693819  0.62034392  1
