# generated using pymatgen
data_Sc4Al5N9
_symmetry_space_group_name_H-M   'P 1'
_cell_length_a   10.27514728
_cell_length_b   10.23125447
_cell_length_c   9.75483365
_cell_angle_alpha   90.12297267
_cell_angle_beta   90.31385271
_cell_angle_gamma   60.23260844
_symmetry_Int_Tables_number   1
_chemical_formula_structural   Sc4Al5N9
_chemical_formula_sum   'Sc16 Al20 N36'
_cell_volume   890.17217834
_cell_formula_units_Z   4
loop_
 _symmetry_equiv_pos_site_id
 _symmetry_equiv_pos_as_xyz
  1  'x, y, z'
loop_
 _atom_site_type_symbol
 _atom_site_label
 _atom_site_symmetry_multiplicity
 _atom_site_fract_x
 _atom_site_fract_y
 _atom_site_fract_z
 _atom_site_occupancy
  Sc  Sc0  1  0.11077362  0.08907557  0.34395424  1
  Sc  Sc1  1  0.22808805  0.20354211  0.10182703  1
  Sc  Sc2  1  0.87937140  0.20817127  0.61152001  1
  Sc  Sc3  1  0.22552954  0.20156902  0.61901873  1
  Sc  Sc4  1  0.11562309  0.42950973  0.36374981  1
  Sc  Sc5  1  0.22988980  0.54295858  0.09806084  1
  Sc  Sc6  1  0.55804608  0.53162857  0.09688520  1
  Sc  Sc7  1  0.10726826  0.43261412  0.85532055  1
  Sc  Sc8  1  0.23425887  0.54164798  0.60518663  1
  Sc  Sc9  1  0.76650905  0.43517316  0.35877187  1
  Sc  Sc10  1  0.78016671  0.76341889  0.86447428  1
  Sc  Sc11  1  0.55296506  0.87680086  0.11057455  1
  Sc  Sc12  1  0.21936408  0.86849922  0.58693310  1
  Sc  Sc13  1  0.78358624  0.76468928  0.36244386  1
  Sc  Sc14  1  0.43663299  0.75973381  0.84810958  1
  Sc  Sc15  1  0.55410548  0.86992571  0.60433920  1
  Al  Al16  1  0.77633830  0.09785605  0.87838968  1
  Al  Al17  1  0.44826199  0.10001784  0.37355744  1
  Al  Al18  1  0.56600226  0.19963955  0.12756511  1
  Al  Al19  1  0.09520281  0.10124417  0.88051633  1
  Al  Al20  1  0.77342102  0.09017865  0.37507642  1
  Al  Al21  1  0.88079316  0.20097850  0.12673190  1
  Al  Al22  1  0.45315798  0.09736850  0.87456700  1
  Al  Al23  1  0.56447354  0.20042168  0.62209680  1
  Al  Al24  1  0.78674199  0.41353237  0.88166786  1
  Al  Al25  1  0.88087817  0.54083664  0.62913439  1
  Al  Al26  1  0.45493989  0.42519953  0.37503732  1
  Al  Al27  1  0.89330690  0.53761778  0.12063503  1
  Al  Al28  1  0.45855379  0.41002308  0.87277623  1
  Al  Al29  1  0.56887503  0.52471555  0.63763560  1
  Al  Al30  1  0.11577739  0.76545167  0.31533980  1
  Al  Al31  1  0.20352830  0.87834842  0.06213036  1
  Al  Al32  1  0.87993718  0.87830821  0.62914615  1
  Al  Al33  1  0.43223666  0.75942685  0.32191918  1
  Al  Al34  1  0.10241443  0.77290214  0.82096765  1
  Al  Al35  1  0.88775172  0.88222658  0.12282126  1
  N  N36  1  0.24315918  0.19743277  0.32495932  1
  N  N37  1  0.09359160  0.09178706  0.08812496  1
  N  N38  1  0.88611255  0.20449254  0.83447597  1
  N  N39  1  0.76851371  0.08050326  0.56982990  1
  N  N40  1  0.55956240  0.20275206  0.32267699  1
  N  N41  1  0.46146233  0.10301825  0.06839346  1
  N  N42  1  0.22822166  0.18802253  0.84816207  1
  N  N43  1  0.10448022  0.10070405  0.56520770  1
  N  N44  1  0.86995193  0.19987586  0.32543941  1
  N  N45  1  0.77539922  0.09539241  0.07386654  1
  N  N46  1  0.56059702  0.20096269  0.81834933  1
  N  N47  1  0.45350533  0.10677980  0.56832345  1
  N  N48  1  0.23660122  0.54691682  0.34439085  1
  N  N49  1  0.09904305  0.43940888  0.07912776  1
  N  N50  1  0.87469923  0.52876024  0.82599803  1
  N  N51  1  0.76863435  0.44703213  0.57712270  1
  N  N52  1  0.53549891  0.54803517  0.31563141  1
  N  N53  1  0.46090824  0.39854836  0.06670207  1
  N  N54  1  0.23852555  0.55015620  0.84330381  1
  N  N55  1  0.09585924  0.43909788  0.59719403  1
  N  N56  1  0.89109431  0.53914007  0.31458885  1
  N  N57  1  0.79959562  0.41461331  0.08167032  1
  N  N58  1  0.57460547  0.50829855  0.84293467  1
  N  N59  1  0.47935781  0.40975672  0.57272899  1
  N  N60  1  0.23074529  0.85320646  0.36325916  1
  N  N61  1  0.10021645  0.78006406  0.11118468  1
  N  N62  1  0.88810891  0.88979852  0.83041236  1
  N  N63  1  0.79259947  0.75351428  0.59180564  1
  N  N64  1  0.53732388  0.87625917  0.34213305  1
  N  N65  1  0.41562205  0.77459174  0.08881378  1
  N  N66  1  0.19494365  0.88915862  0.85785514  1
  N  N67  1  0.08888815  0.77049486  0.62057739  1
  N  N68  1  0.89809579  0.88385104  0.32223797  1
  N  N69  1  0.79298925  0.75704500  0.09025160  1
  N  N70  1  0.54673626  0.88930709  0.83749850  1
  N  N71  1  0.45082788  0.73548200  0.62463223  1
