# generated using pymatgen
data_Sc4Al5N9
_symmetry_space_group_name_H-M   'P 1'
_cell_length_a   10.40299839
_cell_length_b   10.36795846
_cell_length_c   9.37481654
_cell_angle_alpha   90.18462834
_cell_angle_beta   90.06916493
_cell_angle_gamma   60.08849940
_symmetry_Int_Tables_number   1
_chemical_formula_structural   Sc4Al5N9
_chemical_formula_sum   'Sc16 Al20 N36'
_cell_volume   876.45473651
_cell_formula_units_Z   4
loop_
 _symmetry_equiv_pos_site_id
 _symmetry_equiv_pos_as_xyz
  1  'x, y, z'
loop_
 _atom_site_type_symbol
 _atom_site_label
 _atom_site_symmetry_multiplicity
 _atom_site_fract_x
 _atom_site_fract_y
 _atom_site_fract_z
 _atom_site_occupancy
  Sc  Sc0  1  0.10538588  0.08885049  0.34274144  1
  Sc  Sc1  1  0.22424992  0.20027605  0.09783649  1
  Sc  Sc2  1  0.87013865  0.21259739  0.59947600  1
  Sc  Sc3  1  0.22757007  0.20532312  0.60119132  1
  Sc  Sc4  1  0.11462707  0.43356145  0.35244872  1
  Sc  Sc5  1  0.22692592  0.54812355  0.09677671  1
  Sc  Sc6  1  0.55881805  0.53016007  0.10174961  1
  Sc  Sc7  1  0.10896214  0.43104959  0.85093503  1
  Sc  Sc8  1  0.23378379  0.54274763  0.60146771  1
  Sc  Sc9  1  0.77833338  0.42680623  0.34572412  1
  Sc  Sc10  1  0.78208507  0.76480916  0.84917396  1
  Sc  Sc11  1  0.55141587  0.87679742  0.09900307  1
  Sc  Sc12  1  0.21891558  0.86611122  0.59482409  1
  Sc  Sc13  1  0.78044189  0.76624459  0.34500634  1
  Sc  Sc14  1  0.44218512  0.74926358  0.84750472  1
  Sc  Sc15  1  0.55407096  0.86844746  0.59796679  1
  Al  Al16  1  0.77629195  0.08972276  0.83106427  1
  Al  Al17  1  0.45012190  0.09674629  0.37068283  1
  Al  Al18  1  0.56304805  0.19862564  0.12242284  1
  Al  Al19  1  0.10533667  0.09559558  0.82621177  1
  Al  Al20  1  0.77967003  0.09147746  0.32227957  1
  Al  Al21  1  0.89068083  0.19604325  0.07098968  1
  Al  Al22  1  0.44930079  0.09842185  0.86937512  1
  Al  Al23  1  0.56271089  0.20157631  0.62110382  1
  Al  Al24  1  0.77892986  0.42136537  0.87399398  1
  Al  Al25  1  0.88099865  0.54201669  0.62263040  1
  Al  Al26  1  0.45236727  0.41988174  0.36356403  1
  Al  Al27  1  0.89362367  0.53803519  0.11273886  1
  Al  Al28  1  0.45847238  0.41386530  0.87562686  1
  Al  Al29  1  0.56018214  0.53569847  0.57381913  1
  Al  Al30  1  0.11173772  0.76952044  0.32246448  1
  Al  Al31  1  0.20177205  0.88330100  0.06604223  1
  Al  Al32  1  0.88727685  0.87519287  0.57280909  1
  Al  Al33  1  0.42743637  0.76505698  0.31844283  1
  Al  Al34  1  0.10064807  0.77292290  0.82769365  1
  Al  Al35  1  0.89198509  0.88043967  0.07734814  1
  N  N36  1  0.23907672  0.19692423  0.34430105  1
  N  N37  1  0.09688049  0.08889353  0.10589566  1
  N  N38  1  0.88571261  0.20366086  0.85581207  1
  N  N39  1  0.77106715  0.07724798  0.62439866  1
  N  N40  1  0.56110152  0.19794639  0.32952355  1
  N  N41  1  0.45635384  0.10370916  0.07570988  1
  N  N42  1  0.23010210  0.18993654  0.84702734  1
  N  N43  1  0.10402873  0.09852351  0.61112241  1
  N  N44  1  0.87412210  0.19714668  0.36760132  1
  N  N45  1  0.77883978  0.09479591  0.10964749  1
  N  N46  1  0.55381042  0.20597676  0.83110443  1
  N  N47  1  0.45809084  0.10243352  0.57690133  1
  N  N48  1  0.23455260  0.55093113  0.34801398  1
  N  N49  1  0.10240601  0.43713511  0.08859026  1
  N  N50  1  0.87595211  0.52968488  0.83390722  1
  N  N51  1  0.76788518  0.45035346  0.58032893  1
  N  N52  1  0.53894023  0.55005172  0.34325778  1
  N  N53  1  0.45754780  0.40221281  0.08783847  1
  N  N54  1  0.23906998  0.54989320  0.84981264  1
  N  N55  1  0.09571896  0.44191252  0.59872040  1
  N  N56  1  0.89136609  0.54107382  0.31885552  1
  N  N57  1  0.80055972  0.41316855  0.09058993  1
  N  N58  1  0.57113078  0.51126186  0.86497950  1
  N  N59  1  0.47633389  0.40835824  0.57277696  1
  N  N60  1  0.22702943  0.85728832  0.36661410  1
  N  N61  1  0.09774679  0.78442068  0.11709807  1
  N  N62  1  0.89673604  0.88412598  0.87501245  1
  N  N63  1  0.79188942  0.75516636  0.59610723  1
  N  N64  1  0.53563486  0.87736721  0.34333458  1
  N  N65  1  0.41395938  0.77223649  0.10083048  1
  N  N66  1  0.19976024  0.88484782  0.85663241  1
  N  N67  1  0.08674667  0.76998145  0.62496887  1
  N  N68  1  0.90084883  0.88261349  0.36547152  1
  N  N69  1  0.79249441  0.75848837  0.09577679  1
  N  N70  1  0.54684145  0.88621176  0.84600197  1
  N  N71  1  0.45001520  0.73686102  0.61880694  1
