# generated using pymatgen
data_Sc4Al5N9
_symmetry_space_group_name_H-M   'P 1'
_cell_length_a   10.15707915
_cell_length_b   10.12090253
_cell_length_c   10.02340082
_cell_angle_alpha   89.93941946
_cell_angle_beta   90.05111261
_cell_angle_gamma   60.04205871
_symmetry_Int_Tables_number   1
_chemical_formula_structural   Sc4Al5N9
_chemical_formula_sum   'Sc16 Al20 N36'
_cell_volume   892.72333113
_cell_formula_units_Z   4
loop_
 _symmetry_equiv_pos_site_id
 _symmetry_equiv_pos_as_xyz
  1  'x, y, z'
loop_
 _atom_site_type_symbol
 _atom_site_label
 _atom_site_symmetry_multiplicity
 _atom_site_fract_x
 _atom_site_fract_y
 _atom_site_fract_z
 _atom_site_occupancy
  Sc  Sc0  1  0.10998277  0.09283983  0.36358624  1
  Sc  Sc1  1  0.22803103  0.20456348  0.11770156  1
  Sc  Sc2  1  0.87934032  0.20796581  0.63672731  1
  Sc  Sc3  1  0.22551023  0.19942869  0.64916003  1
  Sc  Sc4  1  0.11694267  0.42462898  0.39232373  1
  Sc  Sc5  1  0.22701986  0.54502208  0.13443531  1
  Sc  Sc6  1  0.55497461  0.53577379  0.12371683  1
  Sc  Sc7  1  0.10756495  0.43663394  0.87742734  1
  Sc  Sc8  1  0.23370686  0.54309536  0.63058751  1
  Sc  Sc9  1  0.76893496  0.43234026  0.38017732  1
  Sc  Sc10  1  0.77656641  0.76738564  0.88388066  1
  Sc  Sc11  1  0.55007982  0.87262832  0.14442934  1
  Sc  Sc12  1  0.20686555  0.87794131  0.62913986  1
  Sc  Sc13  1  0.78679588  0.76255166  0.38395462  1
  Sc  Sc14  1  0.43298080  0.76362167  0.87260260  1
  Sc  Sc15  1  0.55524494  0.87327341  0.61971516  1
  Al  Al16  1  0.77829574  0.09595046  0.89453136  1
  Al  Al17  1  0.44723126  0.10147267  0.39237548  1
  Al  Al18  1  0.56596373  0.19865958  0.14213492  1
  Al  Al19  1  0.10037311  0.09169721  0.90732453  1
  Al  Al20  1  0.77439531  0.09026099  0.39009578  1
  Al  Al21  1  0.88128239  0.20040614  0.14094029  1
  Al  Al22  1  0.45426227  0.09483843  0.89397169  1
  Al  Al23  1  0.56428268  0.20030768  0.64034058  1
  Al  Al24  1  0.78376394  0.41691396  0.89818625  1
  Al  Al25  1  0.88125931  0.54100727  0.64961471  1
  Al  Al26  1  0.45530305  0.42138428  0.39409789  1
  Al  Al27  1  0.89279190  0.53809411  0.13865460  1
  Al  Al28  1  0.45585997  0.41511963  0.89003256  1
  Al  Al29  1  0.56676449  0.52543861  0.64907272  1
  Al  Al30  1  0.10884050  0.76411589  0.38956009  1
  Al  Al31  1  0.21382034  0.86994551  0.14423697  1
  Al  Al32  1  0.88640582  0.87438167  0.64363794  1
  Al  Al33  1  0.43739930  0.75018440  0.39828415  1
  Al  Al34  1  0.10506167  0.77677187  0.89467607  1
  Al  Al35  1  0.89074126  0.87991252  0.14037367  1
  N  N36  1  0.24490318  0.19740565  0.33243890  1
  N  N37  1  0.09749211  0.08571571  0.10465262  1
  N  N38  1  0.88856679  0.20390578  0.85280041  1
  N  N39  1  0.76976038  0.07986877  0.58108848  1
  N  N40  1  0.55981274  0.20178746  0.33412989  1
  N  N41  1  0.46601545  0.09597823  0.08170270  1
  N  N42  1  0.22806535  0.18835576  0.86970741  1
  N  N43  1  0.10360545  0.10403723  0.57382629  1
  N  N44  1  0.86950039  0.19998167  0.33312913  1
  N  N45  1  0.77618394  0.09346529  0.08506922  1
  N  N46  1  0.56023187  0.20165995  0.83269328  1
  N  N47  1  0.44911104  0.11226008  0.58096293  1
  N  N48  1  0.23610470  0.54364161  0.35777255  1
  N  N49  1  0.09826550  0.44273044  0.09022778  1
  N  N50  1  0.87277185  0.53236621  0.83955595  1
  N  N51  1  0.77040068  0.44579830  0.59244145  1
  N  N52  1  0.53580431  0.54669929  0.33502598  1
  N  N53  1  0.45788275  0.40146405  0.07896838  1
  N  N54  1  0.23703583  0.55639192  0.84883182  1
  N  N55  1  0.09764456  0.43632085  0.61596138  1
  N  N56  1  0.89379998  0.53622012  0.32747199  1
  N  N57  1  0.79747247  0.41662204  0.09252394  1
  N  N58  1  0.57131591  0.51341270  0.84637494  1
  N  N59  1  0.47823869  0.40881347  0.58543706  1
  N  N60  1  0.23016954  0.85174370  0.34023969  1
  N  N61  1  0.09761832  0.78178352  0.08482020  1
  N  N62  1  0.89610913  0.88559661  0.83482729  1
  N  N63  1  0.79528483  0.75210256  0.60358804  1
  N  N64  1  0.53880209  0.87487284  0.36628643  1
  N  N65  1  0.41788125  0.77358758  0.08410472  1
  N  N66  1  0.19516373  0.89185278  0.84013159  1
  N  N67  1  0.08578537  0.77155707  0.57696426  1
  N  N68  1  0.90063927  0.88238400  0.32923582  1
  N  N69  1  0.79003616  0.75810309  0.10344828  1
  N  N70  1  0.54402500  0.89064117  0.83678511  1
  N  N71  1  0.44534743  0.73602793  0.59772417  1
