# generated using pymatgen
data_Sc4Al5N9
_symmetry_space_group_name_H-M   'P 1'
_cell_length_a   10.31993312
_cell_length_b   10.28157423
_cell_length_c   9.63730823
_cell_angle_alpha   90.18020876
_cell_angle_beta   90.07140380
_cell_angle_gamma   60.16671084
_symmetry_Int_Tables_number   1
_chemical_formula_structural   Sc4Al5N9
_chemical_formula_sum   'Sc16 Al20 N36'
_cell_volume   887.04942722
_cell_formula_units_Z   4
loop_
 _symmetry_equiv_pos_site_id
 _symmetry_equiv_pos_as_xyz
  1  'x, y, z'
loop_
 _atom_site_type_symbol
 _atom_site_label
 _atom_site_symmetry_multiplicity
 _atom_site_fract_x
 _atom_site_fract_y
 _atom_site_fract_z
 _atom_site_occupancy
  Sc  Sc0  1  0.10338894  0.09047272  0.33961254  1
  Sc  Sc1  1  0.22324837  0.20078697  0.10018415  1
  Sc  Sc2  1  0.87227601  0.21024226  0.59678491  1
  Sc  Sc3  1  0.22981076  0.20406573  0.60374320  1
  Sc  Sc4  1  0.11398419  0.43304334  0.35790356  1
  Sc  Sc5  1  0.22816158  0.54674370  0.09896775  1
  Sc  Sc6  1  0.55963809  0.52904829  0.09580707  1
  Sc  Sc7  1  0.10966501  0.43050125  0.85411923  1
  Sc  Sc8  1  0.23299705  0.54271754  0.60401789  1
  Sc  Sc9  1  0.76485348  0.43518725  0.35791203  1
  Sc  Sc10  1  0.78244693  0.76443625  0.85051767  1
  Sc  Sc11  1  0.55346468  0.87748085  0.10059427  1
  Sc  Sc12  1  0.22307391  0.86271629  0.58821059  1
  Sc  Sc13  1  0.78044389  0.76580731  0.34494204  1
  Sc  Sc14  1  0.43606481  0.75975740  0.85152378  1
  Sc  Sc15  1  0.55523189  0.86565521  0.59788798  1
  Al  Al16  1  0.77730232  0.08810065  0.82492638  1
  Al  Al17  1  0.45001000  0.09792694  0.37060112  1
  Al  Al18  1  0.56149473  0.20239513  0.12615786  1
  Al  Al19  1  0.10550567  0.09480813  0.81968790  1
  Al  Al20  1  0.77981892  0.09374941  0.31929914  1
  Al  Al21  1  0.89072248  0.19565592  0.06620724  1
  Al  Al22  1  0.44924121  0.09906368  0.87475425  1
  Al  Al23  1  0.56262071  0.19954200  0.62319198  1
  Al  Al24  1  0.78465884  0.41854439  0.87566519  1
  Al  Al25  1  0.88183374  0.54169061  0.62552406  1
  Al  Al26  1  0.45511452  0.42612924  0.37583779  1
  Al  Al27  1  0.89346787  0.53631398  0.11808951  1
  Al  Al28  1  0.45586041  0.41100335  0.87434852  1
  Al  Al29  1  0.56708026  0.52584760  0.63927905  1
  Al  Al30  1  0.11252502  0.76926719  0.32038925  1
  Al  Al31  1  0.19801205  0.88565296  0.06347838  1
  Al  Al32  1  0.88777873  0.87465186  0.56880253  1
  Al  Al33  1  0.42730666  0.76285769  0.30789449  1
  Al  Al34  1  0.10003952  0.77391032  0.82319056  1
  Al  Al35  1  0.89228514  0.88064953  0.07463939  1
  N  N36  1  0.23892478  0.19689466  0.34117656  1
  N  N37  1  0.09466818  0.08969033  0.11195130  1
  N  N38  1  0.88728901  0.20121218  0.85546247  1
  N  N39  1  0.77235871  0.07529044  0.62636484  1
  N  N40  1  0.55794086  0.20466244  0.32640544  1
  N  N41  1  0.45656525  0.10556171  0.07360848  1
  N  N42  1  0.23082953  0.18860264  0.84595856  1
  N  N43  1  0.10672661  0.09575783  0.61370757  1
  N  N44  1  0.87127219  0.20128391  0.37359048  1
  N  N45  1  0.77945915  0.09504999  0.11427695  1
  N  N46  1  0.55284378  0.20391422  0.82469577  1
  N  N47  1  0.45988210  0.10051129  0.56884406  1
  N  N48  1  0.23585686  0.54985665  0.34977887  1
  N  N49  1  0.10144980  0.43755028  0.08511508  1
  N  N50  1  0.87724012  0.52935383  0.82733535  1
  N  N51  1  0.76631000  0.45104468  0.58296969  1
  N  N52  1  0.53383874  0.54994055  0.31645407  1
  N  N53  1  0.45832560  0.40099897  0.07070789  1
  N  N54  1  0.23691568  0.55148436  0.84739486  1
  N  N55  1  0.09619165  0.44068761  0.59620843  1
  N  N56  1  0.88945941  0.53848679  0.31595758  1
  N  N57  1  0.80062691  0.41378549  0.08075060  1
  N  N58  1  0.57320263  0.50840527  0.84623667  1
  N  N59  1  0.47942280  0.40898930  0.57637233  1
  N  N60  1  0.22939850  0.85647838  0.36763546  1
  N  N61  1  0.09753965  0.78425611  0.12155030  1
  N  N62  1  0.89729151  0.88473214  0.87821676  1
  N  N63  1  0.79260412  0.75418505  0.59339987  1
  N  N64  1  0.53598519  0.87631234  0.33851670  1
  N  N65  1  0.41276868  0.77530055  0.09421013  1
  N  N66  1  0.19572703  0.88762880  0.86084824  1
  N  N67  1  0.08634992  0.77128923  0.62720563  1
  N  N68  1  0.90123382  0.88378769  0.36853279  1
  N  N69  1  0.79428825  0.75681769  0.09495698  1
  N  N70  1  0.54783885  0.88834134  0.84544885  1
  N  N71  1  0.45080190  0.73495902  0.63032175  1
