# generated using pymatgen
data_Sc4Al5N9
_symmetry_space_group_name_H-M   'P 1'
_cell_length_a   10.24481318
_cell_length_b   10.20917258
_cell_length_c   9.78747497
_cell_angle_alpha   89.94762548
_cell_angle_beta   89.89092933
_cell_angle_gamma   60.04714558
_symmetry_Int_Tables_number   1
_chemical_formula_structural   Sc4Al5N9
_chemical_formula_sum   'Sc16 Al20 N36'
_cell_volume   886.95425650
_cell_formula_units_Z   4
loop_
 _symmetry_equiv_pos_site_id
 _symmetry_equiv_pos_as_xyz
  1  'x, y, z'
loop_
 _atom_site_type_symbol
 _atom_site_label
 _atom_site_symmetry_multiplicity
 _atom_site_fract_x
 _atom_site_fract_y
 _atom_site_fract_z
 _atom_site_occupancy
  Sc  Sc0  1  0.10447940  0.08911847  0.32382967  1
  Sc  Sc1  1  0.22607424  0.19784539  0.07400208  1
  Sc  Sc2  1  0.87550075  0.20436390  0.59062716  1
  Sc  Sc3  1  0.22613995  0.20816188  0.57690516  1
  Sc  Sc4  1  0.11452688  0.43356213  0.31946864  1
  Sc  Sc5  1  0.23139128  0.54752130  0.07223890  1
  Sc  Sc6  1  0.56662696  0.52405601  0.08389865  1
  Sc  Sc7  1  0.10878024  0.43075345  0.83153568  1
  Sc  Sc8  1  0.22926856  0.54361730  0.58272473  1
  Sc  Sc9  1  0.77952583  0.42308419  0.33389815  1
  Sc  Sc10  1  0.78118661  0.76527210  0.82663057  1
  Sc  Sc11  1  0.55465408  0.87506428  0.08129008  1
  Sc  Sc12  1  0.22000736  0.86586534  0.58058109  1
  Sc  Sc13  1  0.78119587  0.76591776  0.32551514  1
  Sc  Sc14  1  0.44114102  0.75200786  0.83818727  1
  Sc  Sc15  1  0.55092903  0.87081237  0.57460087  1
  Al  Al16  1  0.77332427  0.09096534  0.81952220  1
  Al  Al17  1  0.44995061  0.09766881  0.31315546  1
  Al  Al18  1  0.56429103  0.20175178  0.06496440  1
  Al  Al19  1  0.10704686  0.09534463  0.81546859  1
  Al  Al20  1  0.77599611  0.09471331  0.31131113  1
  Al  Al21  1  0.88754687  0.20315812  0.05513430  1
  Al  Al22  1  0.44971128  0.09859429  0.81446571  1
  Al  Al23  1  0.56563048  0.19812686  0.56441884  1
  Al  Al24  1  0.77241260  0.42845258  0.81042748  1
  Al  Al25  1  0.88548643  0.54574473  0.56785936  1
  Al  Al26  1  0.44886132  0.42081962  0.31994018  1
  Al  Al27  1  0.88900602  0.53341125  0.06119645  1
  Al  Al28  1  0.46344795  0.41557427  0.81024548  1
  Al  Al29  1  0.55675683  0.53683738  0.56087134  1
  Al  Al30  1  0.11171716  0.76839465  0.31283361  1
  Al  Al31  1  0.20141114  0.88205834  0.05765215  1
  Al  Al32  1  0.88478387  0.87667913  0.56247277  1
  Al  Al33  1  0.42885841  0.76265103  0.30713029  1
  Al  Al34  1  0.10023879  0.77428822  0.81613110  1
  Al  Al35  1  0.89180071  0.87983179  0.06794687  1
  N  N36  1  0.23856775  0.19705862  0.34940402  1
  N  N37  1  0.09521648  0.08934915  0.10309487  1
  N  N38  1  0.88369117  0.20717335  0.85039762  1
  N  N39  1  0.76609512  0.07738993  0.62713789  1
  N  N40  1  0.56135659  0.19890764  0.36886702  1
  N  N41  1  0.45871908  0.10384963  0.11962143  1
  N  N42  1  0.23140636  0.18905266  0.85026435  1
  N  N43  1  0.10875466  0.09631828  0.61696174  1
  N  N44  1  0.87483660  0.19412227  0.37569261  1
  N  N45  1  0.77759396  0.09724015  0.11307035  1
  N  N46  1  0.55710704  0.20448177  0.86958473  1
  N  N47  1  0.45588472  0.10463032  0.62041448  1
  N  N48  1  0.23294468  0.55118804  0.35316727  1
  N  N49  1  0.10133912  0.43816748  0.09050187  1
  N  N50  1  0.87384387  0.53062086  0.86623502  1
  N  N51  1  0.76741724  0.44925891  0.60827627  1
  N  N52  1  0.53859843  0.54804745  0.35630451  1
  N  N53  1  0.45934809  0.40224085  0.12716091  1
  N  N54  1  0.24037605  0.55008684  0.84633193  1
  N  N55  1  0.09523094  0.44216651  0.60888097  1
  N  N56  1  0.89134815  0.54018465  0.37376573  1
  N  N57  1  0.80467919  0.41023760  0.11589019  1
  N  N58  1  0.57136013  0.51054659  0.86848851  1
  N  N59  1  0.47678627  0.40895877  0.61333401  1
  N  N60  1  0.22776711  0.85686644  0.36365677  1
  N  N61  1  0.09793488  0.78280215  0.11800343  1
  N  N62  1  0.89597681  0.88481737  0.87562068  1
  N  N63  1  0.78791647  0.75941957  0.59876996  1
  N  N64  1  0.53554244  0.87674377  0.34332196  1
  N  N65  1  0.41581036  0.76859113  0.10170282  1
  N  N66  1  0.19914496  0.88500580  0.85861802  1
  N  N67  1  0.08401948  0.77314649  0.62446099  1
  N  N68  1  0.89967803  0.88401099  0.36590819  1
  N  N69  1  0.79705173  0.75228997  0.10037808  1
  N  N70  1  0.54635215  0.88845768  0.85630454  1
  N  N71  1  0.45114606  0.73717200  0.62148972  1
