# generated using pymatgen
data_Sc4Al5N9
_symmetry_space_group_name_H-M   'P 1'
_cell_length_a   10.18570700
_cell_length_b   10.14862510
_cell_length_c   9.96064146
_cell_angle_alpha   89.92930536
_cell_angle_beta   89.90506842
_cell_angle_gamma   60.03407803
_symmetry_Int_Tables_number   1
_chemical_formula_structural   Sc4Al5N9
_chemical_formula_sum   'Sc16 Al20 N36'
_cell_volume   891.99971411
_cell_formula_units_Z   4
loop_
 _symmetry_equiv_pos_site_id
 _symmetry_equiv_pos_as_xyz
  1  'x, y, z'
loop_
 _atom_site_type_symbol
 _atom_site_label
 _atom_site_symmetry_multiplicity
 _atom_site_fract_x
 _atom_site_fract_y
 _atom_site_fract_z
 _atom_site_occupancy
  Sc  Sc0  1  0.10465681  0.08966062  0.31139092  1
  Sc  Sc1  1  0.22716625  0.19688599  0.06189936  1
  Sc  Sc2  1  0.87605900  0.20483738  0.58087607  1
  Sc  Sc3  1  0.22502646  0.20859901  0.56725230  1
  Sc  Sc4  1  0.11491252  0.43267490  0.30655926  1
  Sc  Sc5  1  0.23128873  0.54760896  0.06087096  1
  Sc  Sc6  1  0.56635827  0.52463905  0.07220780  1
  Sc  Sc7  1  0.10842879  0.43061502  0.82228720  1
  Sc  Sc8  1  0.22808943  0.54312947  0.57310579  1
  Sc  Sc9  1  0.77867402  0.42352470  0.32290746  1
  Sc  Sc10  1  0.78055121  0.76602923  0.81421222  1
  Sc  Sc11  1  0.55625338  0.87433665  0.07220069  1
  Sc  Sc12  1  0.21942832  0.86640049  0.56827950  1
  Sc  Sc13  1  0.78238826  0.76504974  0.31637300  1
  Sc  Sc14  1  0.44093115  0.75360139  0.82700648  1
  Sc  Sc15  1  0.55058636  0.87147403  0.56170091  1
  Al  Al16  1  0.77355326  0.09155484  0.81080201  1
  Al  Al17  1  0.44987396  0.09792682  0.30434549  1
  Al  Al18  1  0.56432588  0.20188211  0.05694479  1
  Al  Al19  1  0.10718493  0.09441415  0.80786889  1
  Al  Al20  1  0.77606898  0.09472121  0.30371425  1
  Al  Al21  1  0.88744836  0.20296773  0.04668216  1
  Al  Al22  1  0.44970517  0.09843012  0.80560775  1
  Al  Al23  1  0.56495094  0.19869676  0.55655621  1
  Al  Al24  1  0.77247291  0.42837865  0.80240910  1
  Al  Al25  1  0.88552937  0.54502006  0.55918415  1
  Al  Al26  1  0.44830287  0.42170001  0.31131145  1
  Al  Al27  1  0.88888887  0.53425707  0.05181950  1
  Al  Al28  1  0.46239209  0.41610755  0.80165756  1
  Al  Al29  1  0.55674611  0.53680954  0.55351051  1
  Al  Al30  1  0.11178151  0.76773497  0.30413606  1
  Al  Al31  1  0.20232932  0.88102693  0.05031786  1
  Al  Al32  1  0.88492475  0.87684782  0.55434921  1
  Al  Al33  1  0.42974302  0.76201603  0.29865978  1
  Al  Al34  1  0.10088511  0.77448869  0.80747598  1
  Al  Al35  1  0.89180972  0.87933275  0.05894555  1
  N  N36  1  0.23869493  0.19691973  0.34507700  1
  N  N37  1  0.09550791  0.08937505  0.09612268  1
  N  N38  1  0.88362823  0.20717996  0.84531305  1
  N  N39  1  0.76602097  0.07787601  0.62131357  1
  N  N40  1  0.56094596  0.19950404  0.36351428  1
  N  N41  1  0.45885685  0.10400716  0.11474130  1
  N  N42  1  0.23186180  0.18830769  0.84452660  1
  N  N43  1  0.10922573  0.09553205  0.61434602  1
  N  N44  1  0.87554903  0.19432061  0.36949479  1
  N  N45  1  0.77778128  0.09688416  0.10800478  1
  N  N46  1  0.55687759  0.20474431  0.86401692  1
  N  N47  1  0.45545031  0.10462274  0.61511393  1
  N  N48  1  0.23220811  0.55067430  0.34869717  1
  N  N49  1  0.10183248  0.43743025  0.08320602  1
  N  N50  1  0.87262708  0.53198111  0.86113971  1
  N  N51  1  0.76720282  0.44960098  0.60437566  1
  N  N52  1  0.53813910  0.54809908  0.35283274  1
  N  N53  1  0.45904783  0.40300348  0.12167753  1
  N  N54  1  0.23982900  0.55036828  0.84033117  1
  N  N55  1  0.09407158  0.44201853  0.60602676  1
  N  N56  1  0.89266912  0.53844027  0.36902963  1
  N  N57  1  0.80442830  0.41083343  0.10909054  1
  N  N58  1  0.57033782  0.51158475  0.86118721  1
  N  N59  1  0.47581056  0.40943363  0.60844687  1
  N  N60  1  0.22768567  0.85732747  0.35578620  1
  N  N61  1  0.09792940  0.78229933  0.11278841  1
  N  N62  1  0.89598578  0.88467724  0.86958696  1
  N  N63  1  0.78756126  0.75945299  0.59183052  1
  N  N64  1  0.53628362  0.87663613  0.33686747  1
  N  N65  1  0.41664577  0.76835254  0.09771182  1
  N  N66  1  0.19952254  0.88446480  0.85547792  1
  N  N67  1  0.08421853  0.77362684  0.61926873  1
  N  N68  1  0.90015259  0.88397966  0.36129391  1
  N  N69  1  0.79865354  0.75145606  0.09668423  1
  N  N70  1  0.54677772  0.88907110  0.85280887  1
  N  N71  1  0.45057405  0.73860349  0.61450519  1
