# generated using pymatgen
data_Sc4Al5N9
_symmetry_space_group_name_H-M   'P 1'
_cell_length_a   10.34320728
_cell_length_b   10.30286135
_cell_length_c   9.54210105
_cell_angle_alpha   90.03857052
_cell_angle_beta   90.13091091
_cell_angle_gamma   60.19678960
_symmetry_Int_Tables_number   1
_chemical_formula_structural   Sc4Al5N9
_chemical_formula_sum   'Sc16 Al20 N36'
_cell_volume   882.35696599
_cell_formula_units_Z   4
loop_
 _symmetry_equiv_pos_site_id
 _symmetry_equiv_pos_as_xyz
  1  'x, y, z'
loop_
 _atom_site_type_symbol
 _atom_site_label
 _atom_site_symmetry_multiplicity
 _atom_site_fract_x
 _atom_site_fract_y
 _atom_site_fract_z
 _atom_site_occupancy
  Sc  Sc0  1  0.11084541  0.08878457  0.34430053  1
  Sc  Sc1  1  0.22831323  0.20349964  0.10147216  1
  Sc  Sc2  1  0.87970816  0.20786916  0.60715818  1
  Sc  Sc3  1  0.22617516  0.20235005  0.61147388  1
  Sc  Sc4  1  0.11440747  0.43223415  0.35825015  1
  Sc  Sc5  1  0.22998943  0.54429384  0.09645244  1
  Sc  Sc6  1  0.55892033  0.52896951  0.09439153  1
  Sc  Sc7  1  0.10796764  0.43199358  0.85301482  1
  Sc  Sc8  1  0.23315876  0.54329158  0.60313786  1
  Sc  Sc9  1  0.76500805  0.43651678  0.35625577  1
  Sc  Sc10  1  0.78120502  0.76340634  0.85549286  1
  Sc  Sc11  1  0.55265701  0.87822827  0.10195065  1
  Sc  Sc12  1  0.22084637  0.86743440  0.58945918  1
  Sc  Sc13  1  0.78136187  0.76535805  0.34942287  1
  Sc  Sc14  1  0.43650178  0.75930400  0.85008472  1
  Sc  Sc15  1  0.55323648  0.86739882  0.59852162  1
  Al  Al16  1  0.77663891  0.09898467  0.87700333  1
  Al  Al17  1  0.44900878  0.09910917  0.37178239  1
  Al  Al18  1  0.56511895  0.20069706  0.12759695  1
  Al  Al19  1  0.09666750  0.10037785  0.87631458  1
  Al  Al20  1  0.77307978  0.09069249  0.37241184  1
  Al  Al21  1  0.88138894  0.20094121  0.12715331  1
  Al  Al22  1  0.45257270  0.09798568  0.87131669  1
  Al  Al23  1  0.56484305  0.19962870  0.62100132  1
  Al  Al24  1  0.78779394  0.41232304  0.87973761  1
  Al  Al25  1  0.88150456  0.53990257  0.62627307  1
  Al  Al26  1  0.45427524  0.42669923  0.37436159  1
  Al  Al27  1  0.89302440  0.53661335  0.11723121  1
  Al  Al28  1  0.45833389  0.40945132  0.87077254  1
  Al  Al29  1  0.56834634  0.52498394  0.63723218  1
  Al  Al30  1  0.11304659  0.76742978  0.31703851  1
  Al  Al31  1  0.20290750  0.87983583  0.06632487  1
  Al  Al32  1  0.88382448  0.87404843  0.60009663  1
  Al  Al33  1  0.42922151  0.76099411  0.31064094  1
  Al  Al34  1  0.10073287  0.77449201  0.82547094  1
  Al  Al35  1  0.88938476  0.88049945  0.09620364  1
  N  N36  1  0.24210351  0.19848516  0.33244340  1
  N  N37  1  0.09403766  0.09223952  0.09065694  1
  N  N38  1  0.88687964  0.20390331  0.83570042  1
  N  N39  1  0.76869344  0.08118723  0.57418181  1
  N  N40  1  0.55901426  0.20354786  0.32660208  1
  N  N41  1  0.46005698  0.10508980  0.07117228  1
  N  N42  1  0.22853347  0.18865873  0.84811754  1
  N  N43  1  0.10628898  0.09812171  0.57107647  1
  N  N44  1  0.87070986  0.20028381  0.33161715  1
  N  N45  1  0.77381447  0.09881812  0.07897031  1
  N  N46  1  0.56156267  0.20029365  0.82092650  1
  N  N47  1  0.45615460  0.10335892  0.57228504  1
  N  N48  1  0.23614866  0.54886881  0.34757659  1
  N  N49  1  0.10049757  0.43900407  0.08467662  1
  N  N50  1  0.87607142  0.52785222  0.82964510  1
  N  N51  1  0.76842173  0.44694935  0.57993330  1
  N  N52  1  0.53451782  0.54932072  0.31733053  1
  N  N53  1  0.45952605  0.39918689  0.06981147  1
  N  N54  1  0.23833234  0.55028175  0.84537315  1
  N  N55  1  0.09593257  0.44028347  0.59818088  1
  N  N56  1  0.89005652  0.53885429  0.31702981  1
  N  N57  1  0.79981461  0.41344595  0.08477607  1
  N  N58  1  0.57495019  0.50779433  0.84612259  1
  N  N59  1  0.47819026  0.40998076  0.57669759  1
  N  N60  1  0.22966798  0.85433830  0.36033974  1
  N  N61  1  0.09977160  0.78072300  0.11151375  1
  N  N62  1  0.89276309  0.88660699  0.85743970  1
  N  N63  1  0.79160078  0.75347448  0.59445736  1
  N  N64  1  0.53551078  0.87718713  0.34064067  1
  N  N65  1  0.41499884  0.77407938  0.09360443  1
  N  N66  1  0.19646965  0.88873030  0.85774614  1
  N  N67  1  0.08774070  0.77211321  0.62286592  1
  N  N68  1  0.90003689  0.88115405  0.33730096  1
  N  N69  1  0.79233827  0.75607594  0.09266078  1
  N  N70  1  0.54655161  0.88825099  0.84367640  1
  N  N71  1  0.45107633  0.73436412  0.62603442  1
