# generated using pymatgen
data_Sc4Al5N9
_symmetry_space_group_name_H-M   'P 1'
_cell_length_a   10.33164512
_cell_length_b   10.29080353
_cell_length_c   9.56152021
_cell_angle_alpha   89.86238674
_cell_angle_beta   89.77901581
_cell_angle_gamma   60.01146358
_symmetry_Int_Tables_number   1
_chemical_formula_structural   Sc4Al5N9
_chemical_formula_sum   'Sc16 Al20 N36'
_cell_volume   880.48752437
_cell_formula_units_Z   4
loop_
 _symmetry_equiv_pos_site_id
 _symmetry_equiv_pos_as_xyz
  1  'x, y, z'
loop_
 _atom_site_type_symbol
 _atom_site_label
 _atom_site_symmetry_multiplicity
 _atom_site_fract_x
 _atom_site_fract_y
 _atom_site_fract_z
 _atom_site_occupancy
  Sc  Sc0  1  0.10464422  0.08872282  0.32855806  1
  Sc  Sc1  1  0.22542826  0.19888366  0.08009917  1
  Sc  Sc2  1  0.87552697  0.20210911  0.59200091  1
  Sc  Sc3  1  0.22756533  0.20598006  0.58211934  1
  Sc  Sc4  1  0.11776448  0.43285231  0.33542124  1
  Sc  Sc5  1  0.23196466  0.54704699  0.07811783  1
  Sc  Sc6  1  0.56678956  0.52380547  0.08731854  1
  Sc  Sc7  1  0.10783067  0.43150209  0.83835464  1
  Sc  Sc8  1  0.23039076  0.54478071  0.58660290  1
  Sc  Sc9  1  0.77880308  0.42287466  0.34006270  1
  Sc  Sc10  1  0.78157157  0.76526437  0.83734242  1
  Sc  Sc11  1  0.55273295  0.87587749  0.08520341  1
  Sc  Sc12  1  0.22006197  0.86555981  0.58524166  1
  Sc  Sc13  1  0.77909922  0.76901580  0.33407085  1
  Sc  Sc14  1  0.44134597  0.75102728  0.84138429  1
  Sc  Sc15  1  0.55068216  0.87056242  0.58121244  1
  Al  Al16  1  0.77291559  0.09044233  0.82199091  1
  Al  Al17  1  0.45003501  0.09729129  0.31576546  1
  Al  Al18  1  0.56419865  0.20179877  0.06648772  1
  Al  Al19  1  0.10659671  0.09586571  0.81766343  1
  Al  Al20  1  0.77622739  0.09479949  0.31146260  1
  Al  Al21  1  0.88747965  0.20385825  0.05633046  1
  Al  Al22  1  0.44984583  0.09877492  0.81726979  1
  Al  Al23  1  0.56608537  0.19745503  0.56555862  1
  Al  Al24  1  0.77186290  0.42675415  0.81283818  1
  Al  Al25  1  0.88364160  0.54503186  0.60041328  1
  Al  Al26  1  0.44971394  0.42025534  0.32199342  1
  Al  Al27  1  0.89206749  0.53565692  0.10530279  1
  Al  Al28  1  0.46361097  0.41507177  0.81180476  1
  Al  Al29  1  0.55509473  0.53707652  0.56059796  1
  Al  Al30  1  0.11186702  0.76919796  0.31440825  1
  Al  Al31  1  0.20139859  0.88259721  0.05868796  1
  Al  Al32  1  0.88521510  0.87661163  0.56363894  1
  Al  Al33  1  0.42805567  0.76309242  0.30908048  1
  Al  Al34  1  0.09985271  0.77421115  0.81892582  1
  Al  Al35  1  0.89209841  0.88090813  0.07072770  1
  N  N36  1  0.23935703  0.19541610  0.34687823  1
  N  N37  1  0.09513254  0.08971344  0.10048770  1
  N  N38  1  0.88329256  0.20691869  0.84768235  1
  N  N39  1  0.76595304  0.07674080  0.62520993  1
  N  N40  1  0.56214126  0.19800563  0.36614335  1
  N  N41  1  0.45855400  0.10388230  0.11650190  1
  N  N42  1  0.23054920  0.19008950  0.84739916  1
  N  N43  1  0.10795100  0.09638720  0.61224533  1
  N  N44  1  0.87503872  0.19340087  0.37207314  1
  N  N45  1  0.77739771  0.09801270  0.10951305  1
  N  N46  1  0.55712977  0.20439586  0.86724067  1
  N  N47  1  0.45652266  0.10436506  0.61798248  1
  N  N48  1  0.23465914  0.55248672  0.34989399  1
  N  N49  1  0.10270880  0.43791418  0.08707506  1
  N  N50  1  0.87566411  0.53130158  0.83075725  1
  N  N51  1  0.76623982  0.44644040  0.59718924  1
  N  N52  1  0.53818939  0.54834259  0.35195681  1
  N  N53  1  0.46009193  0.40172141  0.12455419  1
  N  N54  1  0.24048082  0.54952234  0.84421569  1
  N  N55  1  0.09667000  0.44191460  0.59417064  1
  N  N56  1  0.89071485  0.54118761  0.33460055  1
  N  N57  1  0.80352587  0.41075497  0.10936064  1
  N  N58  1  0.57117802  0.51028360  0.86564908  1
  N  N59  1  0.47663888  0.40853591  0.60974466  1
  N  N60  1  0.22745087  0.85703298  0.36252138  1
  N  N61  1  0.09833768  0.78294263  0.11473340  1
  N  N62  1  0.89631830  0.88518875  0.87374160  1
  N  N63  1  0.78815582  0.75884581  0.59076177  1
  N  N64  1  0.53418536  0.87706388  0.34233031  1
  N  N65  1  0.41546412  0.76878274  0.09866344  1
  N  N66  1  0.19947036  0.88489610  0.85459066  1
  N  N67  1  0.08380769  0.77307115  0.62218110  1
  N  N68  1  0.90019784  0.88473000  0.36205456  1
  N  N69  1  0.79437907  0.75560646  0.09466561  1
  N  N70  1  0.54585598  0.88780796  0.85211908  1
  N  N71  1  0.45107956  0.73637295  0.61924028  1
