# generated using pymatgen
data_Sc4Al5N9
_symmetry_space_group_name_H-M   'P 1'
_cell_length_a   10.30656621
_cell_length_b   10.26312800
_cell_length_c   9.64494641
_cell_angle_alpha   90.09867468
_cell_angle_beta   90.10493967
_cell_angle_gamma   60.13194477
_symmetry_Int_Tables_number   1
_chemical_formula_structural   Sc4Al5N9
_chemical_formula_sum   'Sc16 Al20 N36'
_cell_volume   884.70638912
_cell_formula_units_Z   4
loop_
 _symmetry_equiv_pos_site_id
 _symmetry_equiv_pos_as_xyz
  1  'x, y, z'
loop_
 _atom_site_type_symbol
 _atom_site_label
 _atom_site_symmetry_multiplicity
 _atom_site_fract_x
 _atom_site_fract_y
 _atom_site_fract_z
 _atom_site_occupancy
  Sc  Sc0  1  0.11354759  0.08468535  0.35144514  1
  Sc  Sc1  1  0.22819052  0.20312074  0.10853316  1
  Sc  Sc2  1  0.87707980  0.20943777  0.61652335  1
  Sc  Sc3  1  0.22457794  0.20303800  0.62391667  1
  Sc  Sc4  1  0.11542499  0.42938274  0.36938398  1
  Sc  Sc5  1  0.22919396  0.54460596  0.10780984  1
  Sc  Sc6  1  0.55254240  0.53881211  0.10890807  1
  Sc  Sc7  1  0.10648424  0.43301962  0.86286593  1
  Sc  Sc8  1  0.23398512  0.54132897  0.61543374  1
  Sc  Sc9  1  0.76942078  0.43293924  0.36270332  1
  Sc  Sc10  1  0.77728872  0.76485179  0.87253205  1
  Sc  Sc11  1  0.54702115  0.87380801  0.12609871  1
  Sc  Sc12  1  0.21007715  0.87512191  0.60833416  1
  Sc  Sc13  1  0.78556720  0.76450453  0.36792294  1
  Sc  Sc14  1  0.43832133  0.76014253  0.85195164  1
  Sc  Sc15  1  0.55683400  0.87534392  0.61029162  1
  Al  Al16  1  0.77612550  0.09807504  0.88523717  1
  Al  Al17  1  0.44847698  0.10089479  0.38153548  1
  Al  Al18  1  0.56577037  0.19915702  0.13326766  1
  Al  Al19  1  0.09497987  0.10224228  0.88473043  1
  Al  Al20  1  0.77496228  0.08861134  0.38061436  1
  Al  Al21  1  0.88077828  0.20021956  0.13294877  1
  Al  Al22  1  0.45330468  0.09669220  0.88138754  1
  Al  Al23  1  0.56506100  0.20095285  0.62995595  1
  Al  Al24  1  0.78415410  0.41505517  0.88891802  1
  Al  Al25  1  0.88078730  0.54129909  0.63603047  1
  Al  Al26  1  0.45634675  0.42306801  0.38183237  1
  Al  Al27  1  0.89192449  0.53843739  0.12682641  1
  Al  Al28  1  0.45901134  0.41114513  0.87975752  1
  Al  Al29  1  0.57037404  0.52288478  0.63997109  1
  Al  Al30  1  0.11612613  0.76316262  0.34959636  1
  Al  Al31  1  0.20707857  0.87771162  0.06910108  1
  Al  Al32  1  0.88134352  0.87690734  0.63766528  1
  Al  Al33  1  0.44049730  0.74924340  0.39225458  1
  Al  Al34  1  0.10115511  0.77165279  0.85189362  1
  Al  Al35  1  0.89004143  0.88101387  0.12673951  1
  N  N36  1  0.24325684  0.19645669  0.33511484  1
  N  N37  1  0.09455387  0.09045935  0.09442863  1
  N  N38  1  0.88479575  0.20560473  0.84288523  1
  N  N39  1  0.76878849  0.07887282  0.57749155  1
  N  N40  1  0.56055778  0.20164934  0.33043482  1
  N  N41  1  0.46221237  0.09983140  0.07793384  1
  N  N42  1  0.22787555  0.18914268  0.85614409  1
  N  N43  1  0.10197080  0.10335451  0.57471143  1
  N  N44  1  0.87198157  0.19773036  0.33433380  1
  N  N45  1  0.77539591  0.09512790  0.08238385  1
  N  N46  1  0.56121490  0.20106180  0.82820314  1
  N  N47  1  0.45239553  0.11079744  0.57793389  1
  N  N48  1  0.23726327  0.54618635  0.35100619  1
  N  N49  1  0.09919896  0.43948225  0.08978466  1
  N  N50  1  0.87338230  0.52986735  0.83622955  1
  N  N51  1  0.77031144  0.44674816  0.58377503  1
  N  N52  1  0.53635734  0.54844416  0.32956165  1
  N  N53  1  0.46123675  0.40025831  0.07625373  1
  N  N54  1  0.23916888  0.54827681  0.84998537  1
  N  N55  1  0.09532082  0.43974631  0.60573765  1
  N  N56  1  0.89135942  0.53953104  0.32335557  1
  N  N57  1  0.79625777  0.41610321  0.09176872  1
  N  N58  1  0.57300282  0.51084708  0.84480670  1
  N  N59  1  0.47951915  0.40902975  0.58091380  1
  N  N60  1  0.23272293  0.85140829  0.37274340  1
  N  N61  1  0.09765594  0.78010135  0.08930830  1
  N  N62  1  0.88765382  0.88923444  0.83824029  1
  N  N63  1  0.79378499  0.75333530  0.59997258  1
  N  N64  1  0.53838348  0.87527706  0.35863234  1
  N  N65  1  0.41645028  0.77385534  0.07466873  1
  N  N66  1  0.19557170  0.89115509  0.85245958  1
  N  N67  1  0.08713132  0.76878282  0.61546698  1
  N  N68  1  0.90351528  0.88134509  0.32667500  1
  N  N69  1  0.78886087  0.75883656  0.10069175  1
  N  N70  1  0.54573887  0.89024891  0.83859269  1
  N  N71  1  0.45244787  0.73505932  0.60521245  1
