# generated using pymatgen
data_Sc4Al5N9
_symmetry_space_group_name_H-M   'P 1'
_cell_length_a   10.41181666
_cell_length_b   10.38199150
_cell_length_c   9.33125194
_cell_angle_alpha   90.21920891
_cell_angle_beta   89.98373292
_cell_angle_gamma   60.10731869
_symmetry_Int_Tables_number   1
_chemical_formula_structural   Sc4Al5N9
_chemical_formula_sum   'Sc16 Al20 N36'
_cell_volume   874.46372854
_cell_formula_units_Z   4
loop_
 _symmetry_equiv_pos_site_id
 _symmetry_equiv_pos_as_xyz
  1  'x, y, z'
loop_
 _atom_site_type_symbol
 _atom_site_label
 _atom_site_symmetry_multiplicity
 _atom_site_fract_x
 _atom_site_fract_y
 _atom_site_fract_z
 _atom_site_occupancy
  Sc  Sc0  1  0.10565594  0.08859901  0.34340974  1
  Sc  Sc1  1  0.22414362  0.20057733  0.09752516  1
  Sc  Sc2  1  0.87131551  0.21334233  0.60128938  1
  Sc  Sc3  1  0.22691805  0.20585110  0.60131312  1
  Sc  Sc4  1  0.11401877  0.43389546  0.34964896  1
  Sc  Sc5  1  0.23133125  0.54588316  0.08951713  1
  Sc  Sc6  1  0.55795443  0.52730708  0.09943615  1
  Sc  Sc7  1  0.10956174  0.43109366  0.84963683  1
  Sc  Sc8  1  0.22831700  0.54646732  0.59560893  1
  Sc  Sc9  1  0.77868656  0.42634687  0.34502989  1
  Sc  Sc10  1  0.78207070  0.76555829  0.85020672  1
  Sc  Sc11  1  0.55127006  0.87614217  0.09976446  1
  Sc  Sc12  1  0.21868261  0.86652987  0.59616328  1
  Sc  Sc13  1  0.78042946  0.76583954  0.34523203  1
  Sc  Sc14  1  0.44212965  0.74932330  0.84927815  1
  Sc  Sc15  1  0.55376468  0.86772090  0.59946015  1
  Al  Al16  1  0.77272670  0.09117829  0.82853160  1
  Al  Al17  1  0.44901809  0.09409739  0.36931891  1
  Al  Al18  1  0.56485887  0.19959794  0.11157008  1
  Al  Al19  1  0.10567194  0.09547277  0.82879541  1
  Al  Al20  1  0.78068782  0.09102145  0.32552223  1
  Al  Al21  1  0.89020930  0.19568687  0.07207038  1
  Al  Al22  1  0.45090609  0.09944267  0.86941593  1
  Al  Al23  1  0.56701399  0.19683967  0.58944751  1
  Al  Al24  1  0.77906275  0.42101639  0.87421742  1
  Al  Al25  1  0.88026331  0.54234651  0.62317610  1
  Al  Al26  1  0.44824118  0.42252224  0.33851956  1
  Al  Al27  1  0.89356540  0.53819983  0.11102020  1
  Al  Al28  1  0.46413474  0.41538425  0.81656260  1
  Al  Al29  1  0.55901845  0.53826033  0.56728847  1
  Al  Al30  1  0.11168869  0.76883915  0.32192260  1
  Al  Al31  1  0.20231742  0.88247229  0.06767434  1
  Al  Al32  1  0.88742117  0.87481676  0.57303450  1
  Al  Al33  1  0.42739515  0.76423498  0.31971804  1
  Al  Al34  1  0.09989282  0.77415440  0.82946859  1
  Al  Al35  1  0.89151398  0.88091767  0.07928880  1
  N  N36  1  0.23839991  0.19729889  0.34524798  1
  N  N37  1  0.09688204  0.08858234  0.10533285  1
  N  N38  1  0.88515957  0.20342331  0.85632869  1
  N  N39  1  0.77141437  0.07746467  0.62247882  1
  N  N40  1  0.56452931  0.19533537  0.35266926  1
  N  N41  1  0.45655011  0.10342493  0.08262779  1
  N  N42  1  0.23073650  0.19034051  0.84887540  1
  N  N43  1  0.10458431  0.09839939  0.61242255  1
  N  N44  1  0.87518256  0.19731311  0.36884577  1
  N  N45  1  0.77859790  0.09499090  0.11511020  1
  N  N46  1  0.55705163  0.20545308  0.84556605  1
  N  N47  1  0.45640115  0.10011476  0.58073626  1
  N  N48  1  0.23145117  0.55341577  0.35351905  1
  N  N49  1  0.10329873  0.43774185  0.08878055  1
  N  N50  1  0.87584404  0.53014370  0.83642169  1
  N  N51  1  0.76716722  0.45078074  0.58192280  1
  N  N52  1  0.53824647  0.55044423  0.35106108  1
  N  N53  1  0.45675976  0.40335836  0.13054232  1
  N  N54  1  0.24193953  0.54834396  0.84792587  1
  N  N55  1  0.09413096  0.44228085  0.59898395  1
  N  N56  1  0.89084736  0.54112758  0.31877149  1
  N  N57  1  0.80027856  0.41265154  0.09160314  1
  N  N58  1  0.57093797  0.51040879  0.86883903  1
  N  N59  1  0.47508694  0.41142682  0.60127294  1
  N  N60  1  0.22646024  0.85726054  0.36635826  1
  N  N61  1  0.09860439  0.78236220  0.11555855  1
  N  N62  1  0.89522104  0.88631592  0.87588798  1
  N  N63  1  0.79174162  0.75535617  0.59710879  1
  N  N64  1  0.53556001  0.87588739  0.34467841  1
  N  N65  1  0.41461885  0.77001573  0.10235738  1
  N  N66  1  0.20036331  0.88473947  0.85755726  1
  N  N67  1  0.08533572  0.77202479  0.62652160  1
  N  N68  1  0.90147217  0.88159577  0.36500567  1
  N  N69  1  0.79213835  0.75885650  0.09653257  1
  N  N70  1  0.54665322  0.88647421  0.84882608  1
  N  N71  1  0.44942663  0.73713283  0.62059217  1
