# generated using pymatgen
data_Sc4Al5N9
_symmetry_space_group_name_H-M   'P 1'
_cell_length_a   10.32620693
_cell_length_b   10.28499100
_cell_length_c   9.59185293
_cell_angle_alpha   89.92447069
_cell_angle_beta   89.77597190
_cell_angle_gamma   60.00762284
_symmetry_Int_Tables_number   1
_chemical_formula_structural   Sc4Al5N9
_chemical_formula_sum   'Sc16 Al20 N36'
_cell_volume   882.28277313
_cell_formula_units_Z   4
loop_
 _symmetry_equiv_pos_site_id
 _symmetry_equiv_pos_as_xyz
  1  'x, y, z'
loop_
 _atom_site_type_symbol
 _atom_site_label
 _atom_site_symmetry_multiplicity
 _atom_site_fract_x
 _atom_site_fract_y
 _atom_site_fract_z
 _atom_site_occupancy
  Sc  Sc0  1  0.10460252  0.08861695  0.33635246  1
  Sc  Sc1  1  0.22542669  0.19881417  0.08729801  1
  Sc  Sc2  1  0.87235385  0.20869559  0.59941262  1
  Sc  Sc3  1  0.22739716  0.20575112  0.58951355  1
  Sc  Sc4  1  0.11669298  0.43328903  0.34689221  1
  Sc  Sc5  1  0.23140883  0.54674219  0.08489301  1
  Sc  Sc6  1  0.56275907  0.52569233  0.09677386  1
  Sc  Sc7  1  0.10961263  0.43057489  0.84700808  1
  Sc  Sc8  1  0.23025965  0.54477734  0.59392991  1
  Sc  Sc9  1  0.77805379  0.42522288  0.34820859  1
  Sc  Sc10  1  0.78150285  0.76622388  0.84723333  1
  Sc  Sc11  1  0.55268006  0.87587109  0.09230160  1
  Sc  Sc12  1  0.21961940  0.86587499  0.59170855  1
  Sc  Sc13  1  0.77973158  0.76804597  0.34220099  1
  Sc  Sc14  1  0.44176914  0.75055033  0.84758235  1
  Sc  Sc15  1  0.55170381  0.86948724  0.58822242  1
  Al  Al16  1  0.77330345  0.09022653  0.82709331  1
  Al  Al17  1  0.45002107  0.09727324  0.32246369  1
  Al  Al18  1  0.56424946  0.20129059  0.07286497  1
  Al  Al19  1  0.10701469  0.09502724  0.82334176  1
  Al  Al20  1  0.77613696  0.09474324  0.31893266  1
  Al  Al21  1  0.88953287  0.19883752  0.06571585  1
  Al  Al22  1  0.45014876  0.09838487  0.82361477  1
  Al  Al23  1  0.56618872  0.19746266  0.57204328  1
  Al  Al24  1  0.77694898  0.42239866  0.85667824  1
  Al  Al25  1  0.88058664  0.54328308  0.62234968  1
  Al  Al26  1  0.44901738  0.41985368  0.32852432  1
  Al  Al27  1  0.89411514  0.53667592  0.11765874  1
  Al  Al28  1  0.46422899  0.41496453  0.81779123  1
  Al  Al29  1  0.55673785  0.53694328  0.56666445  1
  Al  Al30  1  0.11167500  0.76918385  0.32088697  1
  Al  Al31  1  0.20142514  0.88246600  0.06534996  1
  Al  Al32  1  0.88540944  0.87650323  0.57057171  1
  Al  Al33  1  0.42737405  0.76385257  0.31560080  1
  Al  Al34  1  0.10027481  0.77413771  0.82517540  1
  Al  Al35  1  0.89194818  0.88103203  0.07668166  1
  N  N36  1  0.23925631  0.19569001  0.35402617  1
  N  N37  1  0.09589608  0.08890819  0.10931753  1
  N  N38  1  0.88512095  0.20374153  0.85643850  1
  N  N39  1  0.76646734  0.07774288  0.63111576  1
  N  N40  1  0.56183552  0.19799018  0.37333875  1
  N  N41  1  0.45853196  0.10374575  0.12376831  1
  N  N42  1  0.23076450  0.18935945  0.85393408  1
  N  N43  1  0.10637512  0.09729221  0.61908641  1
  N  N44  1  0.87430221  0.19517868  0.37649277  1
  N  N45  1  0.77720225  0.09721073  0.11748558  1
  N  N46  1  0.55765262  0.20407168  0.87406460  1
  N  N47  1  0.45683624  0.10400383  0.62507149  1
  N  N48  1  0.23400977  0.55245875  0.35683687  1
  N  N49  1  0.10377741  0.43716111  0.08787881  1
  N  N50  1  0.87579375  0.53076368  0.82907616  1
  N  N51  1  0.76664519  0.44881779  0.58733775  1
  N  N52  1  0.53709904  0.54874092  0.35543040  1
  N  N53  1  0.45915619  0.40087212  0.13173054  1
  N  N54  1  0.24080483  0.54925474  0.85032110  1
  N  N55  1  0.09485227  0.44254266  0.59795667  1
  N  N56  1  0.89140493  0.54078174  0.32054083  1
  N  N57  1  0.80253718  0.41228744  0.09769278  1
  N  N58  1  0.57000645  0.51071590  0.87423253  1
  N  N59  1  0.47725441  0.40872875  0.61638846  1
  N  N60  1  0.22721006  0.85686608  0.37000017  1
  N  N61  1  0.09807367  0.78304598  0.12170149  1
  N  N62  1  0.89675848  0.88581734  0.87999925  1
  N  N63  1  0.78929533  0.75716843  0.59599396  1
  N  N64  1  0.53473610  0.87662145  0.34903664  1
  N  N65  1  0.41453429  0.76992626  0.10575015  1
  N  N66  1  0.19972196  0.88475752  0.86182318  1
  N  N67  1  0.08403831  0.77289007  0.62933706  1
  N  N68  1  0.90020949  0.88446326  0.36936875  1
  N  N69  1  0.79394568  0.75723222  0.09744663  1
  N  N70  1  0.54608402  0.88761071  0.85901494  1
  N  N71  1  0.45071393  0.73631617  0.62614128  1
