# generated using pymatgen
data_Sc4Al5N9
_symmetry_space_group_name_H-M   'P 1'
_cell_length_a   10.18434084
_cell_length_b   10.14701291
_cell_length_c   9.96548745
_cell_angle_alpha   89.92839695
_cell_angle_beta   89.90506556
_cell_angle_gamma   60.03040911
_symmetry_Int_Tables_number   1
_chemical_formula_structural   Sc4Al5N9
_chemical_formula_sum   'Sc16 Al20 N36'
_cell_volume   892.13928748
_cell_formula_units_Z   4
loop_
 _symmetry_equiv_pos_site_id
 _symmetry_equiv_pos_as_xyz
  1  'x, y, z'
loop_
 _atom_site_type_symbol
 _atom_site_label
 _atom_site_symmetry_multiplicity
 _atom_site_fract_x
 _atom_site_fract_y
 _atom_site_fract_z
 _atom_site_occupancy
  Sc  Sc0  1  0.10467010  0.08973133  0.30269249  1
  Sc  Sc1  1  0.22721729  0.19685184  0.05315191  1
  Sc  Sc2  1  0.87605051  0.20492018  0.57221982  1
  Sc  Sc3  1  0.22499552  0.20863460  0.55867771  1
  Sc  Sc4  1  0.11493680  0.43263858  0.29783970  1
  Sc  Sc5  1  0.23125253  0.54763019  0.05220881  1
  Sc  Sc6  1  0.56630585  0.52474387  0.06348591  1
  Sc  Sc7  1  0.10837887  0.43066126  0.81367379  1
  Sc  Sc8  1  0.22801712  0.54314726  0.56444838  1
  Sc  Sc9  1  0.77861082  0.42360385  0.31419881  1
  Sc  Sc10  1  0.78054063  0.76612029  0.80544556  1
  Sc  Sc11  1  0.55636181  0.87435805  0.06361224  1
  Sc  Sc12  1  0.21940488  0.86644673  0.55956778  1
  Sc  Sc13  1  0.78247605  0.76504309  0.30779181  1
  Sc  Sc14  1  0.44093402  0.75376874  0.81832008  1
  Sc  Sc15  1  0.55057590  0.87156919  0.55292831  1
  Al  Al16  1  0.77355958  0.09163128  0.80220088  1
  Al  Al17  1  0.44988026  0.09799471  0.29573679  1
  Al  Al18  1  0.56432749  0.20195045  0.04835223  1
  Al  Al19  1  0.10716108  0.09442939  0.79927790  1
  Al  Al20  1  0.77607837  0.09477402  0.29512050  1
  Al  Al21  1  0.88743926  0.20302027  0.03808156  1
  Al  Al22  1  0.44973159  0.09848324  0.79698996  1
  Al  Al23  1  0.56492632  0.19878290  0.54796700  1
  Al  Al24  1  0.77244141  0.42845515  0.79382361  1
  Al  Al25  1  0.88551050  0.54503200  0.55055745  1
  Al  Al26  1  0.44827500  0.42179119  0.30270849  1
  Al  Al27  1  0.88887178  0.53433511  0.04320364  1
  Al  Al28  1  0.46231885  0.41620965  0.79304364  1
  Al  Al29  1  0.55671146  0.53689576  0.54493962  1
  Al  Al30  1  0.11179682  0.76775831  0.29550550  1
  Al  Al31  1  0.20236305  0.88104615  0.04174679  1
  Al  Al32  1  0.88493772  0.87691633  0.54574093  1
  Al  Al33  1  0.42977202  0.76206590  0.29004473  1
  Al  Al34  1  0.10090859  0.77452506  0.79888714  1
  Al  Al35  1  0.89182553  0.87935605  0.05033287  1
  N  N36  1  0.23873276  0.19691991  0.33664971  1
  N  N37  1  0.09551170  0.08943207  0.08756357  1
  N  N38  1  0.88361057  0.20724775  0.83680791  1
  N  N39  1  0.76602083  0.07795331  0.61278137  1
  N  N40  1  0.56094369  0.19957788  0.35498711  1
  N  N41  1  0.45886179  0.10408036  0.10623299  1
  N  N42  1  0.23187170  0.18831745  0.83594409  1
  N  N43  1  0.10920762  0.09554312  0.60588712  1
  N  N44  1  0.87556066  0.19439085  0.36093304  1
  N  N45  1  0.77778768  0.09692684  0.09948101  1
  N  N46  1  0.55686241  0.20483376  0.85548825  1
  N  N47  1  0.45544869  0.10468153  0.60659385  1
  N  N48  1  0.23216039  0.55069296  0.34018215  1
  N  N49  1  0.10184566  0.43739391  0.07462938  1
  N  N50  1  0.87255224  0.53210437  0.85262909  1
  N  N51  1  0.76716344  0.44968062  0.59590899  1
  N  N52  1  0.53809616  0.54817342  0.34437801  1
  N  N53  1  0.45902794  0.40309799  0.11315105  1
  N  N54  1  0.23977963  0.55040557  0.83181120  1
  N  N55  1  0.09400757  0.44204983  0.59758112  1
  N  N56  1  0.89271609  0.53838341  0.36051373  1
  N  N57  1  0.80436803  0.41092893  0.10050116  1
  N  N58  1  0.57025365  0.51171816  0.85258101  1
  N  N59  1  0.47574008  0.40953785  0.59992899  1
  N  N60  1  0.22768903  0.85738453  0.34718823  1
  N  N61  1  0.09795948  0.78231314  0.10425578  1
  N  N62  1  0.89598458  0.88472002  0.86104846  1
  N  N63  1  0.78755502  0.75950677  0.58319624  1
  N  N64  1  0.53633846  0.87667511  0.32828561  1
  N  N65  1  0.41668349  0.76844089  0.08923227  1
  N  N66  1  0.19953618  0.88448797  0.84701671  1
  N  N67  1  0.08422891  0.77367160  0.61076182  1
  N  N68  1  0.90018858  0.88403554  0.35278406  1
  N  N69  1  0.79875153  0.75146367  0.08826160  1
  N  N70  1  0.54683350  0.88915673  0.84436864  1
  N  N71  1  0.45055490  0.73875024  0.60593037  1
