# generated using pymatgen
data_Sc4Al5N9
_symmetry_space_group_name_H-M   'P 1'
_cell_length_a   10.33124973
_cell_length_b   10.29257952
_cell_length_c   9.58143262
_cell_angle_alpha   89.92591583
_cell_angle_beta   89.95206848
_cell_angle_gamma   60.23022269
_symmetry_Int_Tables_number   1
_chemical_formula_structural   Sc4Al5N9
_chemical_formula_sum   'Sc16 Al20 N36'
_cell_volume   884.38351847
_cell_formula_units_Z   4
loop_
 _symmetry_equiv_pos_site_id
 _symmetry_equiv_pos_as_xyz
  1  'x, y, z'
loop_
 _atom_site_type_symbol
 _atom_site_label
 _atom_site_symmetry_multiplicity
 _atom_site_fract_x
 _atom_site_fract_y
 _atom_site_fract_z
 _atom_site_occupancy
  Sc  Sc0  1  0.11171561  0.08831030  0.34457731  1
  Sc  Sc1  1  0.22817367  0.20397194  0.10172878  1
  Sc  Sc2  1  0.88063980  0.20784887  0.60795797  1
  Sc  Sc3  1  0.22670675  0.20197721  0.61235060  1
  Sc  Sc4  1  0.11409025  0.43209657  0.35922154  1
  Sc  Sc5  1  0.22828883  0.54612237  0.09727921  1
  Sc  Sc6  1  0.55878313  0.52830792  0.09450514  1
  Sc  Sc7  1  0.10760823  0.43230726  0.85333242  1
  Sc  Sc8  1  0.23304391  0.54311373  0.60348147  1
  Sc  Sc9  1  0.76483104  0.43631851  0.35633203  1
  Sc  Sc10  1  0.78148798  0.76481771  0.84774775  1
  Sc  Sc11  1  0.55303003  0.87770612  0.09900875  1
  Sc  Sc12  1  0.22168625  0.86691238  0.58905974  1
  Sc  Sc13  1  0.78046168  0.76513047  0.34309124  1
  Sc  Sc14  1  0.43624537  0.75892183  0.84994127  1
  Sc  Sc15  1  0.55386821  0.86663785  0.59620956  1
  Al  Al16  1  0.77608021  0.10030329  0.87427923  1
  Al  Al17  1  0.44902913  0.09883001  0.37133975  1
  Al  Al18  1  0.56525763  0.20041216  0.12772952  1
  Al  Al19  1  0.09705488  0.09995056  0.87745903  1
  Al  Al20  1  0.77186956  0.09329588  0.37430283  1
  Al  Al21  1  0.88156650  0.20050664  0.12727736  1
  Al  Al22  1  0.45202995  0.09806027  0.87187571  1
  Al  Al23  1  0.56459221  0.19967814  0.62177234  1
  Al  Al24  1  0.78767555  0.41251035  0.87998640  1
  Al  Al25  1  0.88119045  0.54010365  0.62569928  1
  Al  Al26  1  0.45377000  0.42690967  0.37486452  1
  Al  Al27  1  0.89295645  0.53699764  0.11617097  1
  Al  Al28  1  0.45707071  0.40988933  0.87200702  1
  Al  Al29  1  0.56834417  0.52444465  0.63778220  1
  Al  Al30  1  0.11243256  0.76763633  0.31948204  1
  Al  Al31  1  0.20177601  0.87947953  0.06699976  1
  Al  Al32  1  0.88877652  0.87120552  0.56999607  1
  Al  Al33  1  0.42919277  0.76078394  0.30922015  1
  Al  Al34  1  0.09934472  0.77549691  0.82200739  1
  Al  Al35  1  0.89109101  0.87991930  0.07363517  1
  N  N36  1  0.24235085  0.19873380  0.33147499  1
  N  N37  1  0.09427760  0.09213151  0.09059441  1
  N  N38  1  0.88758335  0.20413634  0.83535698  1
  N  N39  1  0.76848331  0.08304070  0.57754726  1
  N  N40  1  0.55934142  0.20326486  0.32628101  1
  N  N41  1  0.46005591  0.10481585  0.07095984  1
  N  N42  1  0.22863771  0.18858167  0.84813583  1
  N  N43  1  0.10741683  0.09758636  0.57029259  1
  N  N44  1  0.87145765  0.19975613  0.33089815  1
  N  N45  1  0.77338209  0.09936960  0.07892462  1
  N  N46  1  0.56018173  0.20091952  0.82099482  1
  N  N47  1  0.45649633  0.10289794  0.57110563  1
  N  N48  1  0.23593204  0.54866637  0.34870892  1
  N  N49  1  0.10035199  0.43945666  0.08369298  1
  N  N50  1  0.87538667  0.52875219  0.82903844  1
  N  N51  1  0.76824418  0.44702642  0.57919976  1
  N  N52  1  0.53457853  0.54893156  0.31663253  1
  N  N53  1  0.45791818  0.39948213  0.07025359  1
  N  N54  1  0.23739567  0.55130550  0.84603794  1
  N  N55  1  0.09583165  0.43990906  0.59797867  1
  N  N56  1  0.88996155  0.53854287  0.31552831  1
  N  N57  1  0.79987443  0.41345051  0.08404689  1
  N  N58  1  0.57485540  0.50708525  0.84623990  1
  N  N59  1  0.47764985  0.41018943  0.57639109  1
  N  N60  1  0.23041363  0.85375883  0.36162119  1
  N  N61  1  0.09611213  0.78357342  0.11868775  1
  N  N62  1  0.89568388  0.88566593  0.87015162  1
  N  N63  1  0.79169317  0.75356975  0.59471624  1
  N  N64  1  0.53544313  0.87680836  0.33922131  1
  N  N65  1  0.41438146  0.77347062  0.09345783  1
  N  N66  1  0.19597921  0.88812661  0.85910571  1
  N  N67  1  0.08721179  0.77238983  0.62447060  1
  N  N68  1  0.90325160  0.87797993  0.36380691  1
  N  N69  1  0.79317424  0.75727950  0.09315213  1
  N  N70  1  0.54673798  0.88814459  0.84391760  1
  N  N71  1  0.45141484  0.73398524  0.62711096  1
