# generated using pymatgen
data_Sc4Al5N9
_symmetry_space_group_name_H-M   'P 1'
_cell_length_a   10.32399280
_cell_length_b   10.28199819
_cell_length_c   9.60230437
_cell_angle_alpha   89.96682515
_cell_angle_beta   89.78955750
_cell_angle_gamma   60.01190689
_symmetry_Int_Tables_number   1
_chemical_formula_structural   Sc4Al5N9
_chemical_formula_sum   'Sc16 Al20 N36'
_cell_volume   882.83597894
_cell_formula_units_Z   4
loop_
 _symmetry_equiv_pos_site_id
 _symmetry_equiv_pos_as_xyz
  1  'x, y, z'
loop_
 _atom_site_type_symbol
 _atom_site_label
 _atom_site_symmetry_multiplicity
 _atom_site_fract_x
 _atom_site_fract_y
 _atom_site_fract_z
 _atom_site_occupancy
  Sc  Sc0  1  0.10450304  0.08870925  0.33708547  1
  Sc  Sc1  1  0.22554582  0.19868112  0.08716444  1
  Sc  Sc2  1  0.87083794  0.21186180  0.60011814  1
  Sc  Sc3  1  0.22738644  0.20572609  0.58954281  1
  Sc  Sc4  1  0.11636619  0.43333278  0.34742885  1
  Sc  Sc5  1  0.23106137  0.54667286  0.08442695  1
  Sc  Sc6  1  0.56032931  0.52686460  0.09844608  1
  Sc  Sc7  1  0.10968752  0.43040258  0.84654370  1
  Sc  Sc8  1  0.23034849  0.54472969  0.59407384  1
  Sc  Sc9  1  0.77770656  0.42592337  0.34831903  1
  Sc  Sc10  1  0.78156481  0.76605614  0.84675282  1
  Sc  Sc11  1  0.55279469  0.87580832  0.09201221  1
  Sc  Sc12  1  0.21932660  0.86615610  0.59185245  1
  Sc  Sc13  1  0.77988950  0.76761257  0.34234119  1
  Sc  Sc14  1  0.44236334  0.74983797  0.84727815  1
  Sc  Sc15  1  0.55188425  0.86928335  0.58811630  1
  Al  Al16  1  0.77364205  0.09026427  0.82668136  1
  Al  Al17  1  0.45004443  0.09722371  0.32238748  1
  Al  Al18  1  0.56422598  0.20107839  0.07261047  1
  Al  Al19  1  0.10683755  0.09499258  0.82302487  1
  Al  Al20  1  0.77606667  0.09458708  0.31939068  1
  Al  Al21  1  0.89079513  0.19578018  0.06697889  1
  Al  Al22  1  0.45025965  0.09829811  0.82344101  1
  Al  Al23  1  0.56633434  0.19751521  0.57202381  1
  Al  Al24  1  0.77940286  0.42153982  0.87390234  1
  Al  Al25  1  0.87957989  0.54267088  0.62315860  1
  Al  Al26  1  0.44850990  0.41966163  0.32847124  1
  Al  Al27  1  0.89481598  0.53742090  0.11680998  1
  Al  Al28  1  0.46508908  0.41501305  0.81769455  1
  Al  Al29  1  0.55721029  0.53716665  0.56567377  1
  Al  Al30  1  0.11159685  0.76915443  0.32087974  1
  Al  Al31  1  0.20148132  0.88238913  0.06518653  1
  Al  Al32  1  0.88548550  0.87668228  0.57061716  1
  Al  Al33  1  0.42693094  0.76444021  0.31559265  1
  Al  Al34  1  0.10037583  0.77409893  0.82498329  1
  Al  Al35  1  0.89190312  0.88076528  0.07632565  1
  N  N36  1  0.23933240  0.19576839  0.35418994  1
  N  N37  1  0.09639194  0.08849556  0.11028508  1
  N  N38  1  0.88560412  0.20299060  0.85764458  1
  N  N39  1  0.76681431  0.07833885  0.63083574  1
  N  N40  1  0.56168328  0.19800211  0.37350396  1
  N  N41  1  0.45859669  0.10357973  0.12385690  1
  N  N42  1  0.23082572  0.18914759  0.85386513  1
  N  N43  1  0.10548084  0.09796403  0.61900858  1
  N  N44  1  0.87402433  0.19559065  0.37574438  1
  N  N45  1  0.77706030  0.09667756  0.11805029  1
  N  N46  1  0.55791368  0.20396237  0.87402341  1
  N  N47  1  0.45696361  0.10397308  0.62513934  1
  N  N48  1  0.23368944  0.55243919  0.35706679  1
  N  N49  1  0.10407429  0.43687944  0.08669346  1
  N  N50  1  0.87528074  0.53001839  0.82872234  1
  N  N51  1  0.76666483  0.45069155  0.57889561  1
  N  N52  1  0.53629284  0.54902606  0.35358541  1
  N  N53  1  0.45851724  0.40053679  0.13186854  1
  N  N54  1  0.24098917  0.54919122  0.85006822  1
  N  N55  1  0.09442744  0.44265783  0.59786022  1
  N  N56  1  0.89161512  0.54052540  0.31744641  1
  N  N57  1  0.80265187  0.41260438  0.09138271  1
  N  N58  1  0.57062930  0.51046612  0.87570711  1
  N  N59  1  0.47784629  0.40890214  0.61633155  1
  N  N60  1  0.22701860  0.85690550  0.37040421  1
  N  N61  1  0.09799927  0.78306744  0.12177831  1
  N  N62  1  0.89680833  0.88580335  0.87982772  1
  N  N63  1  0.78952719  0.75696213  0.59610755  1
  N  N64  1  0.53487281  0.87653602  0.34903797  1
  N  N65  1  0.41409760  0.77050721  0.10589953  1
  N  N66  1  0.19990354  0.88469534  0.86184383  1
  N  N67  1  0.08413223  0.77279585  0.62940112  1
  N  N68  1  0.90014522  0.88425112  0.36959113  1
  N  N69  1  0.79395698  0.75745299  0.09675359  1
  N  N70  1  0.54617737  0.88750242  0.85893442  1
  N  N71  1  0.45062334  0.73623695  0.62600625  1
