# generated using pymatgen
data_Sc4Al5N9
_symmetry_space_group_name_H-M   'P 1'
_cell_length_a   10.32066318
_cell_length_b   10.27845455
_cell_length_c   9.61421085
_cell_angle_alpha   89.99374070
_cell_angle_beta   89.79366584
_cell_angle_gamma   60.01461475
_symmetry_Int_Tables_number   1
_chemical_formula_structural   Sc4Al5N9
_chemical_formula_sum   'Sc16 Al20 N36'
_cell_volume   883.36460577
_cell_formula_units_Z   4
loop_
 _symmetry_equiv_pos_site_id
 _symmetry_equiv_pos_as_xyz
  1  'x, y, z'
loop_
 _atom_site_type_symbol
 _atom_site_label
 _atom_site_symmetry_multiplicity
 _atom_site_fract_x
 _atom_site_fract_y
 _atom_site_fract_z
 _atom_site_occupancy
  Sc  Sc0  1  0.10443281  0.08875403  0.33734553  1
  Sc  Sc1  1  0.22556914  0.19855855  0.08695862  1
  Sc  Sc2  1  0.87005758  0.21337306  0.60003252  1
  Sc  Sc3  1  0.22741529  0.20564540  0.58952415  1
  Sc  Sc4  1  0.11628897  0.43332778  0.34785149  1
  Sc  Sc5  1  0.23084698  0.54661697  0.08395543  1
  Sc  Sc6  1  0.55936526  0.52727956  0.09919281  1
  Sc  Sc7  1  0.10972407  0.43021758  0.84628243  1
  Sc  Sc8  1  0.23051167  0.54465064  0.59422135  1
  Sc  Sc9  1  0.77770102  0.42618153  0.34749834  1
  Sc  Sc10  1  0.78161121  0.76594410  0.84650835  1
  Sc  Sc11  1  0.55288296  0.87571832  0.09174940  1
  Sc  Sc12  1  0.21913502  0.86637119  0.59187964  1
  Sc  Sc13  1  0.77994886  0.76752021  0.34232834  1
  Sc  Sc14  1  0.44268829  0.74942067  0.84706870  1
  Sc  Sc15  1  0.55199025  0.86916807  0.58797965  1
  Al  Al16  1  0.77390757  0.09032457  0.82641061  1
  Al  Al17  1  0.45004202  0.09716381  0.32227650  1
  Al  Al18  1  0.56423242  0.20090720  0.07242899  1
  Al  Al19  1  0.10663822  0.09503334  0.82281211  1
  Al  Al20  1  0.77600957  0.09447490  0.31962490  1
  Al  Al21  1  0.89120148  0.19464305  0.06769833  1
  Al  Al22  1  0.45036050  0.09821174  0.82328678  1
  Al  Al23  1  0.56643381  0.19756815  0.57199798  1
  Al  Al24  1  0.78011672  0.42121317  0.87859289  1
  Al  Al25  1  0.87921336  0.54256097  0.62348942  1
  Al  Al26  1  0.44816150  0.41953663  0.32827180  1
  Al  Al27  1  0.89517208  0.53771657  0.11649649  1
  Al  Al28  1  0.46567042  0.41499791  0.81763371  1
  Al  Al29  1  0.55722170  0.53745820  0.56457356  1
  Al  Al30  1  0.11156411  0.76910142  0.32085425  1
  Al  Al31  1  0.20147189  0.88235471  0.06504100  1
  Al  Al32  1  0.88557194  0.87678092  0.57065753  1
  Al  Al33  1  0.42662049  0.76483612  0.31544167  1
  Al  Al34  1  0.10047978  0.77407024  0.82479935  1
  Al  Al35  1  0.89189214  0.88063385  0.07601022  1
  N  N36  1  0.23938554  0.19575341  0.35446403  1
  N  N37  1  0.09659497  0.08825039  0.11092264  1
  N  N38  1  0.88575879  0.20282566  0.85845995  1
  N  N39  1  0.76704887  0.07868001  0.63076506  1
  N  N40  1  0.56154767  0.19801709  0.37370546  1
  N  N41  1  0.45861075  0.10345860  0.12398820  1
  N  N42  1  0.23089211  0.18894453  0.85385165  1
  N  N43  1  0.10488205  0.09840744  0.61912008  1
  N  N44  1  0.87382991  0.19579884  0.37558394  1
  N  N45  1  0.77697570  0.09633424  0.11849450  1
  N  N46  1  0.55812944  0.20385859  0.87406166  1
  N  N47  1  0.45708659  0.10394825  0.62529266  1
  N  N48  1  0.23354136  0.55243187  0.35739854  1
  N  N49  1  0.10419946  0.43668412  0.08584446  1
  N  N50  1  0.87501188  0.52958498  0.82861573  1
  N  N51  1  0.76649502  0.45178543  0.57582715  1
  N  N52  1  0.53585912  0.54919091  0.35274747  1
  N  N53  1  0.45809515  0.40033071  0.13197317  1
  N  N54  1  0.24116199  0.54912791  0.84989483  1
  N  N55  1  0.09426593  0.44266754  0.59788457  1
  N  N56  1  0.89188557  0.54060567  0.31619054  1
  N  N57  1  0.80270923  0.41253619  0.09097976  1
  N  N58  1  0.57105761  0.51025648  0.87674811  1
  N  N59  1  0.47835051  0.40898529  0.61644990  1
  N  N60  1  0.22688925  0.85693772  0.37075617  1
  N  N61  1  0.09795179  0.78304691  0.12191940  1
  N  N62  1  0.89687452  0.88582111  0.87974639  1
  N  N63  1  0.78964174  0.75693443  0.59630504  1
  N  N64  1  0.53492654  0.87648655  0.34910700  1
  N  N65  1  0.41384019  0.77083134  0.10605778  1
  N  N66  1  0.19999638  0.88469085  0.86191968  1
  N  N67  1  0.08422205  0.77272001  0.62953181  1
  N  N68  1  0.90015062  0.88416028  0.36990553  1
  N  N69  1  0.79400499  0.75752615  0.09634611  1
  N  N70  1  0.54623257  0.88740908  0.85895419  1
  N  N71  1  0.45055887  0.73618283  0.62602360  1
