# generated using pymatgen
data_Sc4Al5N9
_symmetry_space_group_name_H-M   'P 1'
_cell_length_a   10.27359504
_cell_length_b   10.23104631
_cell_length_c   9.76593568
_cell_angle_alpha   90.15388988
_cell_angle_beta   90.35372675
_cell_angle_gamma   60.21727209
_symmetry_Int_Tables_number   1
_chemical_formula_structural   Sc4Al5N9
_chemical_formula_sum   'Sc16 Al20 N36'
_cell_volume   890.89258342
_cell_formula_units_Z   4
loop_
 _symmetry_equiv_pos_site_id
 _symmetry_equiv_pos_as_xyz
  1  'x, y, z'
loop_
 _atom_site_type_symbol
 _atom_site_label
 _atom_site_symmetry_multiplicity
 _atom_site_fract_x
 _atom_site_fract_y
 _atom_site_fract_z
 _atom_site_occupancy
  Sc  Sc0  1  0.11028850  0.08988750  0.34394811  1
  Sc  Sc1  1  0.22807735  0.20378062  0.10251157  1
  Sc  Sc2  1  0.88015259  0.20760274  0.61141813  1
  Sc  Sc3  1  0.22580714  0.20103501  0.61892555  1
  Sc  Sc4  1  0.11506275  0.42988864  0.36429206  1
  Sc  Sc5  1  0.22965595  0.54297075  0.09862846  1
  Sc  Sc6  1  0.55946496  0.52929906  0.09546028  1
  Sc  Sc7  1  0.10759936  0.43223275  0.85553127  1
  Sc  Sc8  1  0.23408390  0.54154579  0.60552108  1
  Sc  Sc9  1  0.76482407  0.43650561  0.35951064  1
  Sc  Sc10  1  0.78132336  0.76299700  0.86381027  1
  Sc  Sc11  1  0.55464636  0.87782669  0.10802906  1
  Sc  Sc12  1  0.22189262  0.86645739  0.58354678  1
  Sc  Sc13  1  0.78242900  0.76527131  0.36237518  1
  Sc  Sc14  1  0.43618419  0.75986072  0.84972228  1
  Sc  Sc15  1  0.55378931  0.86880322  0.60491472  1
  Al  Al16  1  0.77658687  0.09780690  0.87833055  1
  Al  Al17  1  0.44850164  0.09923828  0.37322951  1
  Al  Al18  1  0.56594066  0.19994006  0.12813731  1
  Al  Al19  1  0.09557490  0.10084899  0.88118165  1
  Al  Al20  1  0.77299140  0.09067502  0.37533113  1
  Al  Al21  1  0.88074582  0.20122236  0.12743241  1
  Al  Al22  1  0.45297610  0.09777879  0.87464112  1
  Al  Al23  1  0.56446685  0.20019723  0.62178526  1
  Al  Al24  1  0.78771480  0.41282803  0.88168753  1
  Al  Al25  1  0.88083131  0.54065428  0.62930567  1
  Al  Al26  1  0.45456089  0.42618857  0.37518385  1
  Al  Al27  1  0.89347190  0.53756337  0.12089379  1
  Al  Al28  1  0.45817217  0.40958915  0.87284920  1
  Al  Al29  1  0.56872379  0.52462639  0.63955320  1
  Al  Al30  1  0.11507358  0.76562660  0.31547887  1
  Al  Al31  1  0.20240230  0.87892743  0.06365797  1
  Al  Al32  1  0.88024429  0.87846971  0.62884187  1
  Al  Al33  1  0.42976448  0.76126368  0.30825959  1
  Al  Al34  1  0.10299271  0.77338015  0.82045714  1
  Al  Al35  1  0.88771110  0.88231071  0.12318493  1
  N  N36  1  0.24291109  0.19792307  0.32537620  1
  N  N37  1  0.09335909  0.09232382  0.08907633  1
  N  N38  1  0.88670881  0.20399728  0.83418188  1
  N  N39  1  0.76858888  0.08073077  0.56977790  1
  N  N40  1  0.55920338  0.20316262  0.32300760  1
  N  N41  1  0.46104678  0.10425755  0.06818930  1
  N  N42  1  0.22837044  0.18766312  0.84808024  1
  N  N43  1  0.10561907  0.09917797  0.56513622  1
  N  N44  1  0.86928399  0.20075066  0.32592292  1
  N  N45  1  0.77539559  0.09559715  0.07383614  1
  N  N46  1  0.56060423  0.20079107  0.81786761  1
  N  N47  1  0.45411935  0.10542778  0.56824425  1
  N  N48  1  0.23606236  0.54722005  0.34492328  1
  N  N49  1  0.09906658  0.43935608  0.07914501  1
  N  N50  1  0.87510762  0.52836656  0.82582872  1
  N  N51  1  0.76807845  0.44713779  0.57779034  1
  N  N52  1  0.53458288  0.54851471  0.31357400  1
  N  N53  1  0.46034755  0.39822898  0.06638964  1
  N  N54  1  0.23837035  0.55025033  0.84307555  1
  N  N55  1  0.09579460  0.43880099  0.59721626  1
  N  N56  1  0.89036512  0.53950001  0.31464407  1
  N  N57  1  0.80053689  0.41406196  0.08131582  1
  N  N58  1  0.57493646  0.50758777  0.84481835  1
  N  N59  1  0.47917694  0.41011696  0.57294144  1
  N  N60  1  0.23084215  0.85349275  0.36102277  1
  N  N61  1  0.09990995  0.77986390  0.11200839  1
  N  N62  1  0.88859891  0.88994071  0.82975733  1
  N  N63  1  0.79230254  0.75364792  0.59216652  1
  N  N64  1  0.53700373  0.87666855  0.33924096  1
  N  N65  1  0.41535606  0.77501405  0.09338392  1
  N  N66  1  0.19522345  0.88877708  0.86097923  1
  N  N67  1  0.08956820  0.77096690  0.62025633  1
  N  N68  1  0.89734108  0.88427527  0.32247281  1
  N  N69  1  0.79426039  0.75668696  0.08941285  1
  N  N70  1  0.54716949  0.88891507  0.84021967  1
  N  N71  1  0.45090667  0.73521740  0.62988979  1
