# generated using pymatgen
data_Sc4Al5N9
_symmetry_space_group_name_H-M   'P 1'
_cell_length_a   10.30838788
_cell_length_b   10.26736631
_cell_length_c   9.65831970
_cell_angle_alpha   89.89577061
_cell_angle_beta   89.94586760
_cell_angle_gamma   60.23731952
_symmetry_Int_Tables_number   1
_chemical_formula_structural   Sc4Al5N9
_chemical_formula_sum   'Sc16 Al20 N36'
_cell_volume   887.39076626
_cell_formula_units_Z   4
loop_
 _symmetry_equiv_pos_site_id
 _symmetry_equiv_pos_as_xyz
  1  'x, y, z'
loop_
 _atom_site_type_symbol
 _atom_site_label
 _atom_site_symmetry_multiplicity
 _atom_site_fract_x
 _atom_site_fract_y
 _atom_site_fract_z
 _atom_site_occupancy
  Sc  Sc0  1  0.11126629  0.08879153  0.34505324  1
  Sc  Sc1  1  0.22800101  0.20429169  0.10262333  1
  Sc  Sc2  1  0.88056669  0.20708882  0.61052402  1
  Sc  Sc3  1  0.22638992  0.20156056  0.61531983  1
  Sc  Sc4  1  0.11448190  0.43145883  0.36192874  1
  Sc  Sc5  1  0.22836036  0.54573839  0.09820956  1
  Sc  Sc6  1  0.55922857  0.52840411  0.09513537  1
  Sc  Sc7  1  0.10764966  0.43260805  0.85447567  1
  Sc  Sc8  1  0.23329215  0.54300929  0.60491533  1
  Sc  Sc9  1  0.76453440  0.43588246  0.35838032  1
  Sc  Sc10  1  0.78170312  0.76476853  0.84841407  1
  Sc  Sc11  1  0.55323779  0.87792887  0.09964556  1
  Sc  Sc12  1  0.22199399  0.86673457  0.58768087  1
  Sc  Sc13  1  0.78026403  0.76452697  0.34338327  1
  Sc  Sc14  1  0.43612518  0.75920990  0.85001496  1
  Sc  Sc15  1  0.55414230  0.86685427  0.59721861  1
  Al  Al16  1  0.77582816  0.10067564  0.87753187  1
  Al  Al17  1  0.44850980  0.09913381  0.37230911  1
  Al  Al18  1  0.56480946  0.20081076  0.12878865  1
  Al  Al19  1  0.09676344  0.10025126  0.87980822  1
  Al  Al20  1  0.77138001  0.09363684  0.37470281  1
  Al  Al21  1  0.88133875  0.20086880  0.12822606  1
  Al  Al22  1  0.45216067  0.09832996  0.87306958  1
  Al  Al23  1  0.56470306  0.19960728  0.62266357  1
  Al  Al24  1  0.78786106  0.41270096  0.88087284  1
  Al  Al25  1  0.88128348  0.53981953  0.62659465  1
  Al  Al26  1  0.45365606  0.42710119  0.37589777  1
  Al  Al27  1  0.89331457  0.53642231  0.11776872  1
  Al  Al28  1  0.45716488  0.41009186  0.87299631  1
  Al  Al29  1  0.56857303  0.52424563  0.63929695  1
  Al  Al30  1  0.11282863  0.76732677  0.31883688  1
  Al  Al31  1  0.20167963  0.87935184  0.06637043  1
  Al  Al32  1  0.88898839  0.87079651  0.56808961  1
  Al  Al33  1  0.42902102  0.76121096  0.30805419  1
  Al  Al34  1  0.09908909  0.77615981  0.82139676  1
  Al  Al35  1  0.89148659  0.87918211  0.07389906  1
  N  N36  1  0.24240617  0.19871034  0.32953882  1
  N  N37  1  0.09404341  0.09228111  0.09049458  1
  N  N38  1  0.88753117  0.20394924  0.83567949  1
  N  N39  1  0.76800174  0.08307348  0.57540981  1
  N  N40  1  0.55869885  0.20364288  0.32557822  1
  N  N41  1  0.46008438  0.10519635  0.06990429  1
  N  N42  1  0.22854980  0.18846966  0.84828977  1
  N  N43  1  0.10688091  0.09800009  0.56872495  1
  N  N44  1  0.87095897  0.19979886  0.32922365  1
  N  N45  1  0.77304806  0.09955128  0.07934387  1
  N  N46  1  0.56060336  0.20093672  0.82047498  1
  N  N47  1  0.45574054  0.10361737  0.57030465  1
  N  N48  1  0.23603091  0.54836168  0.34863940  1
  N  N49  1  0.10001376  0.43974760  0.08191231  1
  N  N50  1  0.87543712  0.52865355  0.82745247  1
  N  N51  1  0.76831682  0.44648267  0.57916214  1
  N  N52  1  0.53455218  0.54883032  0.31552163  1
  N  N53  1  0.45812233  0.39953474  0.06925497  1
  N  N54  1  0.23766578  0.55147401  0.84556441  1
  N  N55  1  0.09616383  0.43955579  0.59786944  1
  N  N56  1  0.89050679  0.53729671  0.31504059  1
  N  N57  1  0.80033458  0.41347326  0.08284675  1
  N  N58  1  0.57510505  0.50707987  0.84624933  1
  N  N59  1  0.47795793  0.41029733  0.57584483  1
  N  N60  1  0.23074793  0.85348587  0.36260210  1
  N  N61  1  0.09641960  0.78344967  0.12009018  1
  N  N62  1  0.89600438  0.88564127  0.87231647  1
  N  N63  1  0.79188247  0.75325307  0.59409396  1
  N  N64  1  0.53525549  0.87715999  0.33862810  1
  N  N65  1  0.41434864  0.77383516  0.09362493  1
  N  N66  1  0.19577105  0.88834385  0.86057039  1
  N  N67  1  0.08668560  0.77309040  0.62570991  1
  N  N68  1  0.90357913  0.87731039  0.36406072  1
  N  N69  1  0.79338738  0.75658967  0.09345019  1
  N  N70  1  0.54696482  0.88851214  0.84355617  1
  N  N71  1  0.45137464  0.73426380  0.62886204  1
