# generated using pymatgen
data_Sc4Al5N9
_symmetry_space_group_name_H-M   'P 1'
_cell_length_a   10.19062804
_cell_length_b   10.15386640
_cell_length_c   9.94558748
_cell_angle_alpha   89.93187769
_cell_angle_beta   89.90460038
_cell_angle_gamma   60.03792980
_symmetry_Int_Tables_number   1
_chemical_formula_structural   Sc4Al5N9
_chemical_formula_sum   'Sc16 Al20 N36'
_cell_volume   891.57666258
_cell_formula_units_Z   4
loop_
 _symmetry_equiv_pos_site_id
 _symmetry_equiv_pos_as_xyz
  1  'x, y, z'
loop_
 _atom_site_type_symbol
 _atom_site_label
 _atom_site_symmetry_multiplicity
 _atom_site_fract_x
 _atom_site_fract_y
 _atom_site_fract_z
 _atom_site_occupancy
  Sc  Sc0  1  0.10463722  0.08956914  0.31732310  1
  Sc  Sc1  1  0.22706412  0.19694480  0.06782815  1
  Sc  Sc2  1  0.87602941  0.20475324  0.58661781  1
  Sc  Sc3  1  0.22513133  0.20855677  0.57290596  1
  Sc  Sc4  1  0.11487377  0.43274949  0.31248178  1
  Sc  Sc5  1  0.23130346  0.54760532  0.06669075  1
  Sc  Sc6  1  0.56641715  0.52452975  0.07813333  1
  Sc  Sc7  1  0.10847002  0.43058568  0.82797618  1
  Sc  Sc8  1  0.22820411  0.54314292  0.57882865  1
  Sc  Sc9  1  0.77877545  0.42344433  0.32877445  1
  Sc  Sc10  1  0.78059706  0.76592736  0.82018247  1
  Sc  Sc11  1  0.55609903  0.87438108  0.07784626  1
  Sc  Sc12  1  0.21951583  0.86630719  0.57423227  1
  Sc  Sc13  1  0.78227905  0.76509840  0.32199970  1
  Sc  Sc14  1  0.44095558  0.75340060  0.83289205  1
  Sc  Sc15  1  0.55061671  0.87136749  0.56768869  1
  Al  Al16  1  0.77352978  0.09146923  0.81640597  1
  Al  Al17  1  0.44987999  0.09787875  0.30996966  1
  Al  Al18  1  0.56432932  0.20183412  0.06249280  1
  Al  Al19  1  0.10719730  0.09446756  0.81338026  1
  Al  Al20  1  0.77605797  0.09469144  0.30925280  1
  Al  Al21  1  0.88746223  0.20294932  0.05227760  1
  Al  Al22  1  0.44969788  0.09840949  0.81122827  1
  Al  Al23  1  0.56500835  0.19862070  0.56209928  1
  Al  Al24  1  0.77246666  0.42834665  0.80795893  1
  Al  Al25  1  0.88553814  0.54506836  0.56482390  1
  Al  Al26  1  0.44834171  0.42159268  0.31691681  1
  Al  Al27  1  0.88889651  0.53414548  0.05749077  1
  Al  Al28  1  0.46250929  0.41601537  0.80727510  1
  Al  Al29  1  0.55674951  0.53677306  0.55900963  1
  Al  Al30  1  0.11177195  0.76776277  0.30977447  1
  Al  Al31  1  0.20222047  0.88110235  0.05580740  1
  Al  Al32  1  0.88490077  0.87680072  0.55992590  1
  Al  Al33  1  0.42965446  0.76203995  0.30423900  1
  Al  Al34  1  0.10081663  0.77446032  0.81306796  1
  Al  Al35  1  0.89180033  0.87936158  0.06458582  1
  N  N36  1  0.23867010  0.19692375  0.35029497  1
  N  N37  1  0.09548047  0.08933266  0.10162097  1
  N  N38  1  0.88364407  0.20714205  0.85060753  1
  N  N39  1  0.76602455  0.07779841  0.62669084  1
  N  N40  1  0.56097191  0.19943402  0.36885887  1
  N  N41  1  0.45885297  0.10395799  0.12004976  1
  N  N42  1  0.23183290  0.18833997  0.84994436  1
  N  N43  1  0.10921311  0.09558115  0.61946083  1
  N  N44  1  0.87549071  0.19426248  0.37494608  1
  N  N45  1  0.77775960  0.09688872  0.11333920  1
  N  N46  1  0.55690291  0.20467889  0.86937772  1
  N  N47  1  0.45547731  0.10459040  0.62044805  1
  N  N48  1  0.23227781  0.55069464  0.35399058  1
  N  N49  1  0.10179371  0.43749121  0.08869226  1
  N  N50  1  0.87273691  0.53181095  0.86647165  1
  N  N51  1  0.76723391  0.44953548  0.60957703  1
  N  N52  1  0.53818415  0.54806408  0.35798686  1
  N  N53  1  0.45906457  0.40289673  0.12702436  1
  N  N54  1  0.23988519  0.55033488  0.84571904  1
  N  N55  1  0.09417313  0.44200335  0.61121161  1
  N  N56  1  0.89256439  0.53859313  0.37435076  1
  N  N57  1  0.80449196  0.41072319  0.11460603  1
  N  N58  1  0.57046389  0.51142265  0.86674785  1
  N  N59  1  0.47591637  0.40934767  0.61377010  1
  N  N60  1  0.22770499  0.85724860  0.36136910  1
  N  N61  1  0.09791291  0.78232711  0.11813949  1
  N  N62  1  0.89598760  0.88467289  0.87498889  1
  N  N63  1  0.78759255  0.75941606  0.59736725  1
  N  N64  1  0.53620867  0.87661806  0.34230726  1
  N  N65  1  0.41655792  0.76832943  0.10290457  1
  N  N66  1  0.19947852  0.88449868  0.86062010  1
  N  N67  1  0.08419200  0.77356758  0.62458931  1
  N  N68  1  0.90009706  0.88395202  0.36658626  1
  N  N69  1  0.79850422  0.75150066  0.10185731  1
  N  N70  1  0.54672326  0.88899249  0.85801092  1
  N  N71  1  0.45064444  0.73841231  0.62003991  1
