# generated using pymatgen
data_Sc4Al5N9
_symmetry_space_group_name_H-M   'P 1'
_cell_length_a   10.34587168
_cell_length_b   10.30771317
_cell_length_c   9.55260828
_cell_angle_alpha   90.06317632
_cell_angle_beta   90.00685859
_cell_angle_gamma   60.18359512
_symmetry_Int_Tables_number   1
_chemical_formula_structural   Sc4Al5N9
_chemical_formula_sum   'Sc16 Al20 N36'
_cell_volume   883.85736167
_cell_formula_units_Z   4
loop_
 _symmetry_equiv_pos_site_id
 _symmetry_equiv_pos_as_xyz
  1  'x, y, z'
loop_
 _atom_site_type_symbol
 _atom_site_label
 _atom_site_symmetry_multiplicity
 _atom_site_fract_x
 _atom_site_fract_y
 _atom_site_fract_z
 _atom_site_occupancy
  Sc  Sc0  1  0.11065298  0.08888450  0.34461840  1
  Sc  Sc1  1  0.22734087  0.20380804  0.10218313  1
  Sc  Sc2  1  0.87929856  0.20824979  0.59710974  1
  Sc  Sc3  1  0.22742754  0.20190294  0.61125525  1
  Sc  Sc4  1  0.11411475  0.43216367  0.35952232  1
  Sc  Sc5  1  0.22764459  0.54667729  0.09856357  1
  Sc  Sc6  1  0.55813624  0.52907731  0.09483171  1
  Sc  Sc7  1  0.10779972  0.43191815  0.85341044  1
  Sc  Sc8  1  0.23278168  0.54322176  0.60372108  1
  Sc  Sc9  1  0.76482073  0.43728724  0.35507513  1
  Sc  Sc10  1  0.78181075  0.76470326  0.84848666  1
  Sc  Sc11  1  0.55336476  0.87708939  0.09984009  1
  Sc  Sc12  1  0.22142126  0.86643232  0.59033499  1
  Sc  Sc13  1  0.78063570  0.76592968  0.34483565  1
  Sc  Sc14  1  0.43669880  0.75888121  0.85011527  1
  Sc  Sc15  1  0.55425831  0.86630794  0.59652325  1
  Al  Al16  1  0.77871123  0.09098214  0.82457808  1
  Al  Al17  1  0.44928187  0.09867219  0.37104441  1
  Al  Al18  1  0.56158249  0.20167602  0.12565390  1
  Al  Al19  1  0.09930381  0.09825816  0.87223465  1
  Al  Al20  1  0.77768729  0.09127627  0.32184807  1
  Al  Al21  1  0.88421877  0.20098063  0.10444304  1
  Al  Al22  1  0.45073574  0.09815536  0.87257641  1
  Al  Al23  1  0.56274209  0.20010617  0.62054833  1
  Al  Al24  1  0.78604307  0.41432566  0.87744588  1
  Al  Al25  1  0.88133915  0.54084493  0.62516767  1
  Al  Al26  1  0.45433640  0.42633740  0.37529083  1
  Al  Al27  1  0.89305752  0.53805360  0.11661795  1
  Al  Al28  1  0.45622324  0.41038891  0.87249897  1
  Al  Al29  1  0.56794933  0.52496232  0.63740561  1
  Al  Al30  1  0.11197259  0.76846699  0.32180722  1
  Al  Al31  1  0.20186232  0.87895554  0.06716443  1
  Al  Al32  1  0.88764533  0.87482282  0.56996187  1
  Al  Al33  1  0.42883471  0.76099093  0.31036011  1
  Al  Al34  1  0.09966226  0.77429647  0.82293387  1
  Al  Al35  1  0.89105523  0.88103862  0.07304601  1
  N  N36  1  0.24184872  0.19849700  0.33320614  1
  N  N37  1  0.09633659  0.09079057  0.09067615  1
  N  N38  1  0.88635231  0.20308682  0.84604202  1
  N  N39  1  0.77291124  0.07802167  0.62002574  1
  N  N40  1  0.55781557  0.20444614  0.32842526  1
  N  N41  1  0.45871679  0.10421677  0.07251636  1
  N  N42  1  0.22878443  0.18826266  0.84803500  1
  N  N43  1  0.10804283  0.09691583  0.57574723  1
  N  N44  1  0.87343616  0.20235838  0.34461484  1
  N  N45  1  0.77696148  0.09275973  0.11341400  1
  N  N46  1  0.55436084  0.20326092  0.82369919  1
  N  N47  1  0.45737940  0.10179433  0.57079803  1
  N  N48  1  0.23537984  0.54921020  0.35001478  1
  N  N49  1  0.10049633  0.43921928  0.08462046  1
  N  N50  1  0.87546189  0.52933684  0.82933189  1
  N  N51  1  0.76782377  0.44826768  0.58062232  1
  N  N52  1  0.53400970  0.54923688  0.31739812  1
  N  N53  1  0.45756378  0.40040002  0.07135676  1
  N  N54  1  0.23654059  0.55167870  0.84724910  1
  N  N55  1  0.09613042  0.43979382  0.59842487  1
  N  N56  1  0.89013009  0.53966909  0.31654613  1
  N  N57  1  0.79897092  0.41538530  0.08392562  1
  N  N58  1  0.57362893  0.50794296  0.84632452  1
  N  N59  1  0.47811386  0.40988666  0.57710804  1
  N  N60  1  0.23001014  0.85446980  0.36272255  1
  N  N61  1  0.09593026  0.78380255  0.12070566  1
  N  N62  1  0.89636885  0.88563593  0.87475372  1
  N  N63  1  0.79216278  0.75418285  0.59456994  1
  N  N64  1  0.53603515  0.87618406  0.33961419  1
  N  N65  1  0.41426542  0.77364104  0.09389260  1
  N  N66  1  0.19661152  0.88658909  0.85893887  1
  N  N67  1  0.08668101  0.77185296  0.62504146  1
  N  N68  1  0.90103129  0.88294754  0.36836529  1
  N  N69  1  0.79351943  0.75758419  0.09425079  1
  N  N70  1  0.54726969  0.88795856  0.84451702  1
  N  N71  1  0.45136535  0.73427158  0.62686752  1
