# generated using pymatgen
data_Sc4Al5N9
_symmetry_space_group_name_H-M   'P 1'
_cell_length_a   10.15721485
_cell_length_b   10.12102812
_cell_length_c   10.02300974
_cell_angle_alpha   89.93965033
_cell_angle_beta   90.05117433
_cell_angle_gamma   60.04226929
_symmetry_Int_Tables_number   1
_chemical_formula_structural   Sc4Al5N9
_chemical_formula_sum   'Sc16 Al20 N36'
_cell_volume   892.71340067
_cell_formula_units_Z   4
loop_
 _symmetry_equiv_pos_site_id
 _symmetry_equiv_pos_as_xyz
  1  'x, y, z'
loop_
 _atom_site_type_symbol
 _atom_site_label
 _atom_site_symmetry_multiplicity
 _atom_site_fract_x
 _atom_site_fract_y
 _atom_site_fract_z
 _atom_site_occupancy
  Sc  Sc0  1  0.10998281  0.09285456  0.36141799  1
  Sc  Sc1  1  0.22803330  0.20457748  0.11554144  1
  Sc  Sc2  1  0.87933498  0.20798387  0.63455285  1
  Sc  Sc3  1  0.22550849  0.19944334  0.64698862  1
  Sc  Sc4  1  0.11694138  0.42464955  0.39015228  1
  Sc  Sc5  1  0.22702321  0.54503737  0.13226353  1
  Sc  Sc6  1  0.55496813  0.53579317  0.12154030  1
  Sc  Sc7  1  0.10756503  0.43664628  0.87526211  1
  Sc  Sc8  1  0.23370623  0.54311012  0.62841994  1
  Sc  Sc9  1  0.76892975  0.43236193  0.37800158  1
  Sc  Sc10  1  0.77656900  0.76739733  0.88171198  1
  Sc  Sc11  1  0.55008003  0.87263753  0.14225660  1
  Sc  Sc12  1  0.20685715  0.87796137  0.62696467  1
  Sc  Sc13  1  0.78678996  0.76257095  0.38178757  1
  Sc  Sc14  1  0.43297431  0.76363635  0.87043105  1
  Sc  Sc15  1  0.55524414  0.87329007  0.61755339  1
  Al  Al16  1  0.77829558  0.09596519  0.89236561  1
  Al  Al17  1  0.44723353  0.10148528  0.39021467  1
  Al  Al18  1  0.56596273  0.19867370  0.13997778  1
  Al  Al19  1  0.10036952  0.09171122  0.90515888  1
  Al  Al20  1  0.77439134  0.09027159  0.38793338  1
  Al  Al21  1  0.88127870  0.20041869  0.13878027  1
  Al  Al22  1  0.45426253  0.09485260  0.89181132  1
  Al  Al23  1  0.56428500  0.20031983  0.63817601  1
  Al  Al24  1  0.78376561  0.41692202  0.89602266  1
  Al  Al25  1  0.88125734  0.54102011  0.64744987  1
  Al  Al26  1  0.45530385  0.42139816  0.39193259  1
  Al  Al27  1  0.89279056  0.53811138  0.13648027  1
  Al  Al28  1  0.45586180  0.41512939  0.88786507  1
  Al  Al29  1  0.56676769  0.52544756  0.64691186  1
  Al  Al30  1  0.10883646  0.76412995  0.38738789  1
  Al  Al31  1  0.21382331  0.86995570  0.14207086  1
  Al  Al32  1  0.88640263  0.87439942  0.64147607  1
  Al  Al33  1  0.43740085  0.75019658  0.39612052  1
  Al  Al34  1  0.10505951  0.77678818  0.89251079  1
  Al  Al35  1  0.89073852  0.87992653  0.13820317  1
  N  N36  1  0.24489901  0.19742225  0.33028456  1
  N  N37  1  0.09748933  0.08573163  0.10249735  1
  N  N38  1  0.88856662  0.20391900  0.85063470  1
  N  N39  1  0.76975973  0.07987965  0.57893005  1
  N  N40  1  0.55981179  0.20180201  0.33197418  1
  N  N41  1  0.46601133  0.09599528  0.07954664  1
  N  N42  1  0.22806513  0.18836876  0.86754668  1
  N  N43  1  0.10360602  0.10405065  0.57166114  1
  N  N44  1  0.86949995  0.19999530  0.33097493  1
  N  N45  1  0.77618276  0.09348084  0.08291094  1
  N  N46  1  0.56023206  0.20167128  0.83053616  1
  N  N47  1  0.44911127  0.11227073  0.57880944  1
  N  N48  1  0.23610544  0.54365693  0.35561027  1
  N  N49  1  0.09826760  0.44274057  0.08806873  1
  N  N50  1  0.87277456  0.53237432  0.83740004  1
  N  N51  1  0.77039763  0.44581713  0.59027189  1
  N  N52  1  0.53580194  0.54671506  0.33286090  1
  N  N53  1  0.45788423  0.40147385  0.07680765  1
  N  N54  1  0.23703578  0.55640498  0.84667378  1
  N  N55  1  0.09764281  0.43633800  0.61380183  1
  N  N56  1  0.89379842  0.53623707  0.32530683  1
  N  N57  1  0.79747350  0.41663217  0.09036986  1
  N  N58  1  0.57131731  0.51342457  0.84421982  1
  N  N59  1  0.47823804  0.40882848  0.58327961  1
  N  N60  1  0.23016824  0.85175910  0.33808328  1
  N  N61  1  0.09761676  0.78179983  0.08265938  1
  N  N62  1  0.89610924  0.88561030  0.83267092  1
  N  N63  1  0.79528238  0.75211614  0.60143394  1
  N  N64  1  0.53880018  0.87488544  0.36412455  1
  N  N65  1  0.41787508  0.77360156  0.08193482  1
  N  N66  1  0.19515905  0.89186967  0.83796407  1
  N  N67  1  0.08578287  0.77156972  0.57480101  1
  N  N68  1  0.90063771  0.88239845  0.32707189  1
  N  N69  1  0.79003579  0.75811666  0.10128213  1
  N  N70  1  0.54402318  0.89065401  0.83462943  1
  N  N71  1  0.44534650  0.73604060  0.59557315  1
