# generated using pymatgen
data_Sc4Al5N9
_symmetry_space_group_name_H-M   'P 1'
_cell_length_a   10.31420779
_cell_length_b   10.27159991
_cell_length_c   9.63563124
_cell_angle_alpha   90.02140132
_cell_angle_beta   89.79106842
_cell_angle_gamma   60.01554868
_symmetry_Int_Tables_number   1
_chemical_formula_structural   Sc4Al5N9
_chemical_formula_sum   'Sc16 Al20 N36'
_cell_volume   884.19593575
_cell_formula_units_Z   4
loop_
 _symmetry_equiv_pos_site_id
 _symmetry_equiv_pos_as_xyz
  1  'x, y, z'
loop_
 _atom_site_type_symbol
 _atom_site_label
 _atom_site_symmetry_multiplicity
 _atom_site_fract_x
 _atom_site_fract_y
 _atom_site_fract_z
 _atom_site_occupancy
  Sc  Sc0  1  0.10433451  0.08880668  0.33725183  1
  Sc  Sc1  1  0.22556625  0.19839035  0.08646869  1
  Sc  Sc2  1  0.86930923  0.21473099  0.59959325  1
  Sc  Sc3  1  0.22748592  0.20544519  0.58941091  1
  Sc  Sc4  1  0.11640068  0.43324438  0.34842699  1
  Sc  Sc5  1  0.23062074  0.54653934  0.08315670  1
  Sc  Sc6  1  0.55862214  0.52757701  0.09967783  1
  Sc  Sc7  1  0.10975775  0.42995857  0.84592821  1
  Sc  Sc8  1  0.23080285  0.54451554  0.59438301  1
  Sc  Sc9  1  0.77773262  0.42646834  0.34652971  1
  Sc  Sc10  1  0.78166390  0.76585446  0.84618575  1
  Sc  Sc11  1  0.55301137  0.87557030  0.09133990  1
  Sc  Sc12  1  0.21890973  0.86664369  0.59166223  1
  Sc  Sc13  1  0.78001619  0.76760217  0.34214064  1
  Sc  Sc14  1  0.44291372  0.74908800  0.84672411  1
  Sc  Sc15  1  0.55213595  0.86898817  0.58761073  1
  Al  Al16  1  0.77419862  0.09041189  0.82603039  1
  Al  Al17  1  0.45001788  0.09706007  0.32204875  1
  Al  Al18  1  0.56424120  0.20069098  0.07218888  1
  Al  Al19  1  0.10636665  0.09507782  0.82252501  1
  Al  Al20  1  0.77594803  0.09438109  0.31977796  1
  Al  Al21  1  0.89137207  0.19392448  0.06825401  1
  Al  Al22  1  0.45050364  0.09805863  0.82302998  1
  Al  Al23  1  0.56653943  0.19760713  0.57190487  1
  Al  Al24  1  0.78051765  0.42096928  0.88139944  1
  Al  Al25  1  0.87895902  0.54256633  0.62371606  1
  Al  Al26  1  0.44778660  0.41942364  0.32785235  1
  Al  Al27  1  0.89554012  0.53791447  0.11641531  1
  Al  Al28  1  0.46626198  0.41491321  0.81748935  1
  Al  Al29  1  0.55707670  0.53783128  0.56320027  1
  Al  Al30  1  0.11158259  0.76898258  0.32076836  1
  Al  Al31  1  0.20139760  0.88232787  0.06484240  1
  Al  Al32  1  0.88570437  0.87687430  0.57066679  1
  Al  Al33  1  0.42629487  0.76524100  0.31508394  1
  Al  Al34  1  0.10062458  0.77406186  0.82448067  1
  Al  Al35  1  0.89191425  0.88053474  0.07555005  1
  N  N36  1  0.23945674  0.19562376  0.35498516  1
  N  N37  1  0.09665129  0.08806934  0.11159231  1
  N  N38  1  0.88581879  0.20275646  0.85933470  1
  N  N39  1  0.76728004  0.07899792  0.63080733  1
  N  N40  1  0.56136477  0.19803820  0.37401321  1
  N  N41  1  0.45858671  0.10332617  0.12426294  1
  N  N42  1  0.23099306  0.18864266  0.85390204  1
  N  N43  1  0.10423149  0.09885624  0.61952474  1
  N  N44  1  0.87360409  0.19604004  0.37560046  1
  N  N45  1  0.77688652  0.09602599  0.11906842  1
  N  N46  1  0.55837409  0.20369688  0.87421894  1
  N  N47  1  0.45727676  0.10384904  0.62560252  1
  N  N48  1  0.23347617  0.55242051  0.35800732  1
  N  N49  1  0.10428754  0.43645444  0.08479001  1
  N  N50  1  0.87475088  0.52918612  0.82827442  1
  N  N51  1  0.76623807  0.45290262  0.57338295  1
  N  N52  1  0.53543327  0.54935220  0.35206166  1
  N  N53  1  0.45764022  0.40013200  0.13211126  1
  N  N54  1  0.24134843  0.54904315  0.84970101  1
  N  N55  1  0.09422978  0.44259740  0.59793040  1
  N  N56  1  0.89230430  0.54076545  0.31517378  1
  N  N57  1  0.80269065  0.41251932  0.09134139  1
  N  N58  1  0.57133155  0.51009469  0.87784857  1
  N  N59  1  0.47898179  0.40900404  0.61675566  1
  N  N60  1  0.22676045  0.85699468  0.37113841  1
  N  N61  1  0.09790323  0.78297505  0.12221830  1
  N  N62  1  0.89698780  0.88587365  0.87974496  1
  N  N63  1  0.78976226  0.75699424  0.59657837  1
  N  N64  1  0.53499728  0.87639750  0.34923167  1
  N  N65  1  0.41356514  0.77115343  0.10632050  1
  N  N66  1  0.20003943  0.88471915  0.86219119  1
  N  N67  1  0.08434699  0.77265605  0.62979285  1
  N  N68  1  0.90023675  0.88412633  0.37042863  1
  N  N69  1  0.79413062  0.75754420  0.09598674  1
  N  N70  1  0.54629513  0.88728764  0.85917256  1
  N  N71  1  0.45042849  0.73615231  0.62615212  1
