# generated using pymatgen
data_Sc4Al5N9
_symmetry_space_group_name_H-M   'P 1'
_cell_length_a   10.31338017
_cell_length_b   10.27009559
_cell_length_c   9.63831110
_cell_angle_alpha   90.03772765
_cell_angle_beta   89.78917477
_cell_angle_gamma   60.02241997
_symmetry_Int_Tables_number   1
_chemical_formula_structural   Sc4Al5N9
_chemical_formula_sum   'Sc16 Al20 N36'
_cell_volume   884.30159957
_cell_formula_units_Z   4
loop_
 _symmetry_equiv_pos_site_id
 _symmetry_equiv_pos_as_xyz
  1  'x, y, z'
loop_
 _atom_site_type_symbol
 _atom_site_label
 _atom_site_symmetry_multiplicity
 _atom_site_fract_x
 _atom_site_fract_y
 _atom_site_fract_z
 _atom_site_occupancy
  Sc  Sc0  1  0.10422013  0.08886162  0.33799296  1
  Sc  Sc1  1  0.22553249  0.19830449  0.08699850  1
  Sc  Sc2  1  0.86890837  0.21532782  0.59997379  1
  Sc  Sc3  1  0.22755298  0.20533248  0.59005290  1
  Sc  Sc4  1  0.11645781  0.43321606  0.34932909  1
  Sc  Sc5  1  0.23060251  0.54645591  0.08358703  1
  Sc  Sc6  1  0.55834931  0.52765276  0.10043086  1
  Sc  Sc7  1  0.10983599  0.42983239  0.84643519  1
  Sc  Sc8  1  0.23102635  0.54444615  0.59508659  1
  Sc  Sc9  1  0.77775139  0.42668370  0.34666864  1
  Sc  Sc10  1  0.78171711  0.76578095  0.84670483  1
  Sc  Sc11  1  0.55304010  0.87544324  0.09180391  1
  Sc  Sc12  1  0.21876608  0.86679624  0.59228158  1
  Sc  Sc13  1  0.78003049  0.76769269  0.34268433  1
  Sc  Sc14  1  0.44291044  0.74893823  0.84722903  1
  Sc  Sc15  1  0.55223827  0.86883596  0.58821102  1
  Al  Al16  1  0.77434303  0.09042299  0.82653571  1
  Al  Al17  1  0.44999666  0.09695200  0.32258818  1
  Al  Al18  1  0.56424880  0.20054112  0.07271318  1
  Al  Al19  1  0.10615263  0.09517410  0.82300318  1
  Al  Al20  1  0.77589638  0.09435392  0.32041783  1
  Al  Al21  1  0.89135242  0.19378556  0.06916502  1
  Al  Al22  1  0.45057619  0.09792597  0.82358509  1
  Al  Al23  1  0.56662796  0.19752475  0.57247150  1
  Al  Al24  1  0.78063773  0.42090895  0.88272587  1
  Al  Al25  1  0.87897876  0.54258716  0.62433474  1
  Al  Al26  1  0.44772356  0.41930749  0.32835522  1
  Al  Al27  1  0.89570001  0.53800214  0.11692509  1
  Al  Al28  1  0.46655217  0.41479250  0.81802188  1
  Al  Al29  1  0.55704314  0.53798082  0.56328856  1
  Al  Al30  1  0.11159266  0.76893121  0.32135606  1
  Al  Al31  1  0.20129930  0.88237671  0.06538136  1
  Al  Al32  1  0.88580167  0.87689786  0.57131755  1
  Al  Al33  1  0.42613116  0.76538928  0.31559283  1
  Al  Al34  1  0.10068972  0.77401341  0.82502045  1
  Al  Al35  1  0.89192932  0.88049583  0.07600686  1
  N  N36  1  0.23947467  0.19556875  0.35569070  1
  N  N37  1  0.09659242  0.08804229  0.11243261  1
  N  N38  1  0.88580597  0.20278402  0.86022447  1
  N  N39  1  0.76739888  0.07910610  0.63135247  1
  N  N40  1  0.56131850  0.19795149  0.37463194  1
  N  N41  1  0.45855964  0.10319186  0.12482940  1
  N  N42  1  0.23102459  0.18849871  0.85442254  1
  N  N43  1  0.10384444  0.09912430  0.62005602  1
  N  N44  1  0.87337843  0.19628928  0.37604283  1
  N  N45  1  0.77683548  0.09589811  0.11977392  1
  N  N46  1  0.55849936  0.20357451  0.87478875  1
  N  N47  1  0.45737829  0.10373025  0.62623369  1
  N  N48  1  0.23351133  0.55239161  0.35872350  1
  N  N49  1  0.10434492  0.43634265  0.08502046  1
  N  N50  1  0.87477563  0.52901909  0.82883798  1
  N  N51  1  0.76612138  0.45339722  0.57325998  1
  N  N52  1  0.53531194  0.54941230  0.35236513  1
  N  N53  1  0.45752973  0.39998416  0.13269829  1
  N  N54  1  0.24152312  0.54896196  0.85018810  1
  N  N55  1  0.09432342  0.44254172  0.59853290  1
  N  N56  1  0.89251389  0.54091136  0.31551194  1
  N  N57  1  0.80261638  0.41258845  0.09218709  1
  N  N58  1  0.57146974  0.51001313  0.87871293  1
  N  N59  1  0.47930534  0.40892838  0.61732388  1
  N  N60  1  0.22667436  0.85704423  0.37183485  1
  N  N61  1  0.09788599  0.78291307  0.12281646  1
  N  N62  1  0.89704055  0.88586676  0.88026046  1
  N  N63  1  0.78985468  0.75701939  0.59729959  1
  N  N64  1  0.53502482  0.87631898  0.34983073  1
  N  N65  1  0.41339896  0.77124356  0.10690821  1
  N  N66  1  0.19998365  0.88480425  0.86275950  1
  N  N67  1  0.08443560  0.77256298  0.63041611  1
  N  N68  1  0.90028778  0.88414625  0.37114631  1
  N  N69  1  0.79415098  0.75756344  0.09642753  1
  N  N70  1  0.54633734  0.88713287  0.85969902  1
  N  N71  1  0.45028861  0.73614969  0.62670654  1
