# generated using pymatgen
data_Sc4Al5N9
_symmetry_space_group_name_H-M   'P 1'
_cell_length_a   10.15707873
_cell_length_b   10.12090439
_cell_length_c   10.02338125
_cell_angle_alpha   89.93943752
_cell_angle_beta   90.05119043
_cell_angle_gamma   60.04212075
_symmetry_Int_Tables_number   1
_chemical_formula_structural   Sc4Al5N9
_chemical_formula_sum   'Sc16 Al20 N36'
_cell_volume   892.72227023
_cell_formula_units_Z   4
loop_
 _symmetry_equiv_pos_site_id
 _symmetry_equiv_pos_as_xyz
  1  'x, y, z'
loop_
 _atom_site_type_symbol
 _atom_site_label
 _atom_site_symmetry_multiplicity
 _atom_site_fract_x
 _atom_site_fract_y
 _atom_site_fract_z
 _atom_site_occupancy
  Sc  Sc0  1  0.10998191  0.09282686  0.36573406  1
  Sc  Sc1  1  0.22803190  0.20454832  0.11985034  1
  Sc  Sc2  1  0.87934126  0.20795129  0.63887522  1
  Sc  Sc3  1  0.22551056  0.19941599  0.65130631  1
  Sc  Sc4  1  0.11694206  0.42461466  0.39446885  1
  Sc  Sc5  1  0.22702460  0.54500559  0.13658684  1
  Sc  Sc6  1  0.55497715  0.53575793  0.12585712  1
  Sc  Sc7  1  0.10756685  0.43662060  0.87957730  1
  Sc  Sc8  1  0.23370450  0.54308373  0.63273013  1
  Sc  Sc9  1  0.76893638  0.43232548  0.38232000  1
  Sc  Sc10  1  0.77656743  0.76736953  0.88602505  1
  Sc  Sc11  1  0.55008274  0.87261319  0.14657586  1
  Sc  Sc12  1  0.20686587  0.87792681  0.63128722  1
  Sc  Sc13  1  0.78679775  0.76253826  0.38610592  1
  Sc  Sc14  1  0.43298202  0.76360786  0.87474689  1
  Sc  Sc15  1  0.55524438  0.87326030  0.62186392  1
  Al  Al16  1  0.77829547  0.09593715  0.89668181  1
  Al  Al17  1  0.44723144  0.10145855  0.39451907  1
  Al  Al18  1  0.56596355  0.19864765  0.14428053  1
  Al  Al19  1  0.10037563  0.09168267  0.90947048  1
  Al  Al20  1  0.77439800  0.09024698  0.39223625  1
  Al  Al21  1  0.88128503  0.20039280  0.14308247  1
  Al  Al22  1  0.45426368  0.09482431  0.89612160  1
  Al  Al23  1  0.56428431  0.20029186  0.64248305  1
  Al  Al24  1  0.78376611  0.41690101  0.90032855  1
  Al  Al25  1  0.88126160  0.54099257  0.65175780  1
  Al  Al26  1  0.45530474  0.42137112  0.39624829  1
  Al  Al27  1  0.89279327  0.53808059  0.14080162  1
  Al  Al28  1  0.45586026  0.41510574  0.89217213  1
  Al  Al29  1  0.56676548  0.52542655  0.65121806  1
  Al  Al30  1  0.10883936  0.76410424  0.39170475  1
  Al  Al31  1  0.21382266  0.86993176  0.14638758  1
  Al  Al32  1  0.88640779  0.87436867  0.64578952  1
  Al  Al33  1  0.43740054  0.75017034  0.40042939  1
  Al  Al34  1  0.10506476  0.77675648  0.89682774  1
  Al  Al35  1  0.89074228  0.87989703  0.14251573  1
  N  N36  1  0.24490405  0.19739071  0.33458844  1
  N  N37  1  0.09749470  0.08569991  0.10679906  1
  N  N38  1  0.88856770  0.20389087  0.85494915  1
  N  N39  1  0.76976179  0.07985413  0.58323250  1
  N  N40  1  0.55981264  0.20177573  0.33627754  1
  N  N41  1  0.46601756  0.09596335  0.08385476  1
  N  N42  1  0.22806678  0.18834264  0.87185606  1
  N  N43  1  0.10360493  0.10402408  0.57597677  1
  N  N44  1  0.86950092  0.19996823  0.33527301  1
  N  N45  1  0.77618443  0.09345137  0.08721885  1
  N  N46  1  0.56023386  0.20164432  0.83483798  1
  N  N47  1  0.44911232  0.11224673  0.58310848  1
  N  N48  1  0.23610670  0.54362758  0.35992413  1
  N  N49  1  0.09826775  0.44271711  0.09238045  1
  N  N50  1  0.87277563  0.53235027  0.84170027  1
  N  N51  1  0.77040139  0.44578375  0.59458657  1
  N  N52  1  0.53580356  0.54668536  0.33716986  1
  N  N53  1  0.45788377  0.40144953  0.08111094  1
  N  N54  1  0.23703593  0.55637908  0.85097635  1
  N  N55  1  0.09764567  0.43630649  0.61810502  1
  N  N56  1  0.89379850  0.53620918  0.32962105  1
  N  N57  1  0.79747423  0.41660900  0.09466775  1
  N  N58  1  0.57131741  0.51339920  0.84852036  1
  N  N59  1  0.47824006  0.40879929  0.58758655  1
  N  N60  1  0.23017074  0.85172983  0.34238836  1
  N  N61  1  0.09762200  0.78176732  0.08697247  1
  N  N62  1  0.89611104  0.88558340  0.83697995  1
  N  N63  1  0.79528472  0.75209075  0.60574000  1
  N  N64  1  0.53880450  0.87485818  0.36843304  1
  N  N65  1  0.41788246  0.77357323  0.08625191  1
  N  N66  1  0.19516389  0.89183842  0.84228099  1
  N  N67  1  0.08578270  0.77154602  0.57911068  1
  N  N68  1  0.90063921  0.88237000  0.33137953  1
  N  N69  1  0.79003798  0.75808806  0.10559285  1
  N  N70  1  0.54402503  0.89062851  0.83893422  1
  N  N71  1  0.44534842  0.73601422  0.59987055  1
