# generated using pymatgen
data_Sc4Al5N9
_symmetry_space_group_name_H-M   'P 1'
_cell_length_a   10.33099960
_cell_length_b   10.29046859
_cell_length_c   9.56875612
_cell_angle_alpha   89.85232474
_cell_angle_beta   89.76964360
_cell_angle_gamma   60.01094785
_symmetry_Int_Tables_number   1
_chemical_formula_structural   Sc4Al5N9
_chemical_formula_sum   'Sc16 Al20 N36'
_cell_volume   881.06492068
_cell_formula_units_Z   4
loop_
 _symmetry_equiv_pos_site_id
 _symmetry_equiv_pos_as_xyz
  1  'x, y, z'
loop_
 _atom_site_type_symbol
 _atom_site_label
 _atom_site_symmetry_multiplicity
 _atom_site_fract_x
 _atom_site_fract_y
 _atom_site_fract_z
 _atom_site_occupancy
  Sc  Sc0  1  0.10469292  0.08864120  0.32839529  1
  Sc  Sc1  1  0.22535373  0.19901067  0.08032766  1
  Sc  Sc2  1  0.87555638  0.20199616  0.59178286  1
  Sc  Sc3  1  0.22753395  0.20593720  0.58237434  1
  Sc  Sc4  1  0.11785866  0.43290529  0.33714058  1
  Sc  Sc5  1  0.23194162  0.54700961  0.07832921  1
  Sc  Sc6  1  0.56697033  0.52373465  0.08729934  1
  Sc  Sc7  1  0.10804981  0.43140230  0.83952354  1
  Sc  Sc8  1  0.23033961  0.54482531  0.58685106  1
  Sc  Sc9  1  0.77878313  0.42307826  0.34065722  1
  Sc  Sc10  1  0.78147080  0.76554626  0.83890532  1
  Sc  Sc11  1  0.55266695  0.87591598  0.08547963  1
  Sc  Sc12  1  0.22010932  0.86552332  0.58512882  1
  Sc  Sc13  1  0.77904723  0.76913047  0.33494045  1
  Sc  Sc14  1  0.44129960  0.75107107  0.84138615  1
  Sc  Sc15  1  0.55081108  0.87044647  0.58143088  1
  Al  Al16  1  0.77289411  0.09047889  0.82183237  1
  Al  Al17  1  0.45001893  0.09731698  0.31573634  1
  Al  Al18  1  0.56422077  0.20178615  0.06644683  1
  Al  Al19  1  0.10662765  0.09579783  0.81759585  1
  Al  Al20  1  0.77625710  0.09482546  0.31135066  1
  Al  Al21  1  0.88745942  0.20392781  0.05633879  1
  Al  Al22  1  0.44984967  0.09878307  0.81724571  1
  Al  Al23  1  0.56605286  0.19745551  0.56549874  1
  Al  Al24  1  0.77177568  0.42629026  0.81333341  1
  Al  Al25  1  0.88323071  0.54488895  0.60765146  1
  Al  Al26  1  0.44974376  0.42023693  0.32182297  1
  Al  Al27  1  0.89257935  0.53573289  0.11170335  1
  Al  Al28  1  0.46359130  0.41506749  0.81174182  1
  Al  Al29  1  0.55496165  0.53706862  0.56043921  1
  Al  Al30  1  0.11186793  0.76922603  0.31429990  1
  Al  Al31  1  0.20139267  0.88259338  0.05863649  1
  Al  Al32  1  0.88522636  0.87648668  0.56366818  1
  Al  Al33  1  0.42802067  0.76308097  0.30895353  1
  Al  Al34  1  0.09988363  0.77424902  0.81885928  1
  Al  Al35  1  0.89205357  0.88099764  0.07066762  1
  N  N36  1  0.23932343  0.19542847  0.34690019  1
  N  N37  1  0.09515030  0.08967534  0.10051128  1
  N  N38  1  0.88335577  0.20684413  0.84758311  1
  N  N39  1  0.76592870  0.07668320  0.62520402  1
  N  N40  1  0.56213577  0.19801427  0.36620968  1
  N  N41  1  0.45852464  0.10394367  0.11660991  1
  N  N42  1  0.23051694  0.19011369  0.84736993  1
  N  N43  1  0.10797930  0.09630968  0.61235214  1
  N  N44  1  0.87507871  0.19345962  0.37189868  1
  N  N45  1  0.77741220  0.09801022  0.10954510  1
  N  N46  1  0.55714677  0.20438809  0.86729394  1
  N  N47  1  0.45653227  0.10433866  0.61808847  1
  N  N48  1  0.23471674  0.55252072  0.34985353  1
  N  N49  1  0.10276956  0.43789538  0.08573275  1
  N  N50  1  0.87575353  0.53145706  0.82484477  1
  N  N51  1  0.76610460  0.44613651  0.59586407  1
  N  N52  1  0.53815840  0.54836399  0.35184463  1
  N  N53  1  0.46014395  0.40168558  0.12455078  1
  N  N54  1  0.24045516  0.54947531  0.84412803  1
  N  N55  1  0.09637276  0.44208013  0.59279985  1
  N  N56  1  0.89096126  0.54127857  0.32721128  1
  N  N57  1  0.80345225  0.41076052  0.10841546  1
  N  N58  1  0.57110455  0.51035443  0.86557008  1
  N  N59  1  0.47657096  0.40851674  0.60982738  1
  N  N60  1  0.22747139  0.85699337  0.36258084  1
  N  N61  1  0.09829529  0.78298146  0.11476847  1
  N  N62  1  0.89639157  0.88534338  0.87368525  1
  N  N63  1  0.78829926  0.75846970  0.58984488  1
  N  N64  1  0.53418876  0.87702911  0.34234742  1
  N  N65  1  0.41542635  0.76879628  0.09867191  1
  N  N66  1  0.19947710  0.88489126  0.85467515  1
  N  N67  1  0.08380284  0.77311834  0.62228284  1
  N  N68  1  0.90025270  0.88474725  0.36210287  1
  N  N69  1  0.79416602  0.75598502  0.09373152  1
  N  N70  1  0.54584320  0.88782653  0.85216394  1
  N  N71  1  0.45109302  0.73631094  0.61934820  1
