# generated using pymatgen
data_Sc4Al5N9
_symmetry_space_group_name_H-M   'P 1'
_cell_length_a   10.30559968
_cell_length_b   10.26225546
_cell_length_c   9.64578471
_cell_angle_alpha   90.10754903
_cell_angle_beta   90.09328040
_cell_angle_gamma   60.12489992
_symmetry_Int_Tables_number   1
_chemical_formula_structural   Sc4Al5N9
_chemical_formula_sum   'Sc16 Al20 N36'
_cell_volume   884.56265294
_cell_formula_units_Z   4
loop_
 _symmetry_equiv_pos_site_id
 _symmetry_equiv_pos_as_xyz
  1  'x, y, z'
loop_
 _atom_site_type_symbol
 _atom_site_label
 _atom_site_symmetry_multiplicity
 _atom_site_fract_x
 _atom_site_fract_y
 _atom_site_fract_z
 _atom_site_occupancy
  Sc  Sc0  1  0.11361903  0.08450311  0.35147801  1
  Sc  Sc1  1  0.22819343  0.20321731  0.10857982  1
  Sc  Sc2  1  0.87704265  0.20941675  0.61647545  1
  Sc  Sc3  1  0.22456827  0.20304000  0.62398183  1
  Sc  Sc4  1  0.11541876  0.42931254  0.36960539  1
  Sc  Sc5  1  0.22884138  0.54532278  0.10930408  1
  Sc  Sc6  1  0.55254137  0.53875574  0.10891495  1
  Sc  Sc7  1  0.10651195  0.43312230  0.86303518  1
  Sc  Sc8  1  0.23408375  0.54117848  0.61610048  1
  Sc  Sc9  1  0.76942653  0.43293032  0.36270046  1
  Sc  Sc10  1  0.77739767  0.76490662  0.87231104  1
  Sc  Sc11  1  0.54710132  0.87380829  0.12605529  1
  Sc  Sc12  1  0.21008327  0.87540235  0.60939290  1
  Sc  Sc13  1  0.78553299  0.76453198  0.36783676  1
  Sc  Sc14  1  0.43835901  0.76011877  0.85196961  1
  Sc  Sc15  1  0.55684603  0.87531880  0.61025915  1
  Al  Al16  1  0.77630388  0.09788797  0.88498714  1
  Al  Al17  1  0.44848538  0.10088745  0.38152191  1
  Al  Al18  1  0.56573768  0.19917325  0.13316898  1
  Al  Al19  1  0.09508553  0.10212065  0.88469727  1
  Al  Al20  1  0.77499215  0.08858539  0.38046428  1
  Al  Al21  1  0.88075421  0.20018049  0.13290230  1
  Al  Al22  1  0.45329203  0.09669762  0.88138122  1
  Al  Al23  1  0.56510537  0.20089675  0.62991077  1
  Al  Al24  1  0.78416871  0.41503669  0.88889964  1
  Al  Al25  1  0.88076717  0.54128871  0.63603371  1
  Al  Al26  1  0.45633841  0.42304869  0.38188793  1
  Al  Al27  1  0.89194140  0.53848582  0.12680699  1
  Al  Al28  1  0.45888459  0.41125299  0.87973664  1
  Al  Al29  1  0.57035801  0.52288768  0.63994306  1
  Al  Al30  1  0.11491014  0.76298155  0.36110580  1
  Al  Al31  1  0.20721433  0.87776149  0.07039329  1
  Al  Al32  1  0.88185064  0.87663100  0.63718858  1
  Al  Al33  1  0.44038976  0.74929728  0.39220258  1
  Al  Al34  1  0.10093693  0.77203874  0.85955460  1
  Al  Al35  1  0.89072645  0.88068492  0.12703757  1
  N  N36  1  0.24326743  0.19644157  0.33507759  1
  N  N37  1  0.09457414  0.09040303  0.09438554  1
  N  N38  1  0.88485221  0.20555772  0.84285217  1
  N  N39  1  0.76877182  0.07883827  0.57726589  1
  N  N40  1  0.56057580  0.20162720  0.33032442  1
  N  N41  1  0.46220110  0.09982302  0.07789224  1
  N  N42  1  0.22786851  0.18919204  0.85619231  1
  N  N43  1  0.10196635  0.10338350  0.57466239  1
  N  N44  1  0.87194910  0.19773142  0.33422217  1
  N  N45  1  0.77547779  0.09492190  0.08215122  1
  N  N46  1  0.56124846  0.20103136  0.82817522  1
  N  N47  1  0.45237854  0.11080746  0.57790793  1
  N  N48  1  0.23734154  0.54602069  0.35085428  1
  N  N49  1  0.09931668  0.43964384  0.08984630  1
  N  N50  1  0.87337169  0.52990536  0.83624649  1
  N  N51  1  0.77032671  0.44671122  0.58377066  1
  N  N52  1  0.53638990  0.54838562  0.32952125  1
  N  N53  1  0.46083037  0.40046052  0.07617141  1
  N  N54  1  0.23887979  0.54876078  0.84915379  1
  N  N55  1  0.09532975  0.43971105  0.60583838  1
  N  N56  1  0.89134269  0.53955616  0.32331439  1
  N  N57  1  0.79628847  0.41608257  0.09172741  1
  N  N58  1  0.57300175  0.51082552  0.84479560  1
  N  N59  1  0.47951263  0.40900753  0.58090263  1
  N  N60  1  0.23285396  0.85141233  0.37184731  1
  N  N61  1  0.09675601  0.78031316  0.08242965  1
  N  N62  1  0.88840094  0.88887053  0.83663641  1
  N  N63  1  0.79374519  0.75327683  0.59991737  1
  N  N64  1  0.53844834  0.87526376  0.35856320  1
  N  N65  1  0.41643554  0.77382852  0.07461616  1
  N  N66  1  0.19571747  0.89118558  0.85129909  1
  N  N67  1  0.08673618  0.76887129  0.60608051  1
  N  N68  1  0.90400308  0.88110215  0.32604242  1
  N  N69  1  0.78894256  0.75888921  0.10053203  1
  N  N70  1  0.54580386  0.89022149  0.83859080  1
  N  N71  1  0.45243498  0.73504340  0.60512852  1
