# generated using pymatgen
data_Sc4Al5N9
_symmetry_space_group_name_H-M   'P 1'
_cell_length_a   10.27460435
_cell_length_b   10.22911343
_cell_length_c   9.75415564
_cell_angle_alpha   90.09579453
_cell_angle_beta   90.28479904
_cell_angle_gamma   60.23681119
_symmetry_Int_Tables_number   1
_chemical_formula_structural   Sc4Al5N9
_chemical_formula_sum   'Sc16 Al20 N36'
_cell_volume   889.91652423
_cell_formula_units_Z   4
loop_
 _symmetry_equiv_pos_site_id
 _symmetry_equiv_pos_as_xyz
  1  'x, y, z'
loop_
 _atom_site_type_symbol
 _atom_site_label
 _atom_site_symmetry_multiplicity
 _atom_site_fract_x
 _atom_site_fract_y
 _atom_site_fract_z
 _atom_site_occupancy
  Sc  Sc0  1  0.11130954  0.08836056  0.34372951  1
  Sc  Sc1  1  0.22818267  0.20336442  0.10145577  1
  Sc  Sc2  1  0.87895122  0.20851538  0.61166378  1
  Sc  Sc3  1  0.22539945  0.20184526  0.61917347  1
  Sc  Sc4  1  0.11586738  0.42928557  0.36355286  1
  Sc  Sc5  1  0.23002957  0.54295575  0.09777808  1
  Sc  Sc6  1  0.55628335  0.53450879  0.09830982  1
  Sc  Sc7  1  0.10708727  0.43279231  0.85528119  1
  Sc  Sc8  1  0.23431308  0.54157678  0.60499520  1
  Sc  Sc9  1  0.76768243  0.43416733  0.35829316  1
  Sc  Sc10  1  0.77939075  0.76371333  0.86527818  1
  Sc  Sc11  1  0.55094695  0.87533510  0.11299254  1
  Sc  Sc12  1  0.21655128  0.87049735  0.58945625  1
  Sc  Sc13  1  0.78435968  0.76437141  0.36250069  1
  Sc  Sc14  1  0.43661259  0.75994346  0.84688358  1
  Sc  Sc15  1  0.55496477  0.87141224  0.60463764  1
  Al  Al16  1  0.77620873  0.09790330  0.87848358  1
  Al  Al17  1  0.44809374  0.10052661  0.37380180  1
  Al  Al18  1  0.56602136  0.19942256  0.12716206  1
  Al  Al19  1  0.09492025  0.10154347  0.88020005  1
  Al  Al20  1  0.77365346  0.08995257  0.37492560  1
  Al  Al21  1  0.88073670  0.20091155  0.12629718  1
  Al  Al22  1  0.45335440  0.09695745  0.87472251  1
  Al  Al23  1  0.56446210  0.20065914  0.62236015  1
  Al  Al24  1  0.78594955  0.41411085  0.88168501  1
  Al  Al25  1  0.88094491  0.54091366  0.62908726  1
  Al  Al26  1  0.45505509  0.42451690  0.37490638  1
  Al  Al27  1  0.89309437  0.53770057  0.12053235  1
  Al  Al28  1  0.45878425  0.41043260  0.87278997  1
  Al  Al29  1  0.56931675  0.52418315  0.63627588  1
  Al  Al30  1  0.11639988  0.76538613  0.31511578  1
  Al  Al31  1  0.20479491  0.87761264  0.06073453  1
  Al  Al32  1  0.87970256  0.87821179  0.62935663  1
  Al  Al33  1  0.43594453  0.75635936  0.34488431  1
  Al  Al34  1  0.10192244  0.77258807  0.82112671  1
  Al  Al35  1  0.88769361  0.88224064  0.12272152  1
  N  N36  1  0.24335525  0.19716069  0.32462212  1
  N  N37  1  0.09386972  0.09130491  0.08745113  1
  N  N38  1  0.88570725  0.20488855  0.83461237  1
  N  N39  1  0.76846313  0.08039703  0.56978085  1
  N  N40  1  0.55974909  0.20253100  0.32236540  1
  N  N41  1  0.46192698  0.10177285  0.06858210  1
  N  N42  1  0.22818459  0.18816866  0.84818312  1
  N  N43  1  0.10369755  0.10185989  0.56493597  1
  N  N44  1  0.87040260  0.19932787  0.32502089  1
  N  N45  1  0.77542046  0.09528356  0.07382308  1
  N  N46  1  0.56055368  0.20110153  0.81863004  1
  N  N47  1  0.45306288  0.10792005  0.56822018  1
  N  N48  1  0.23685511  0.54673479  0.34407186  1
  N  N49  1  0.09895917  0.43947888  0.07903763  1
  N  N50  1  0.87443883  0.52902278  0.82599274  1
  N  N51  1  0.76915805  0.44682915  0.57654597  1
  N  N52  1  0.53586825  0.54808320  0.31723216  1
  N  N53  1  0.46135235  0.39891533  0.06682646  1
  N  N54  1  0.23856315  0.55012671  0.84327330  1
  N  N55  1  0.09589219  0.43917514  0.59713319  1
  N  N56  1  0.89145189  0.53892526  0.31449778  1
  N  N57  1  0.79867523  0.41517917  0.08177669  1
  N  N58  1  0.57422122  0.50899924  0.84062745  1
  N  N59  1  0.47941401  0.40949800  0.57241367  1
  N  N60  1  0.23081223  0.85298897  0.36473576  1
  N  N61  1  0.10050112  0.78025548  0.11071533  1
  N  N62  1  0.88771435  0.88973619  0.83066807  1
  N  N63  1  0.79303372  0.75333636  0.59142002  1
  N  N64  1  0.53754182  0.87588696  0.34458050  1
  N  N65  1  0.41627333  0.77401393  0.07876498  1
  N  N66  1  0.19421772  0.88972409  0.85475803  1
  N  N67  1  0.08835025  0.77004839  0.62068474  1
  N  N68  1  0.89857706  0.88365230  0.32204751  1
  N  N69  1  0.79187006  0.75739980  0.09085083  1
  N  N70  1  0.54657416  0.88956770  0.83475945  1
  N  N71  1  0.45115407  0.73543963  0.61595279  1
