# generated using pymatgen
data_Sc4Al5N9
_symmetry_space_group_name_H-M   'P 1'
_cell_length_a   10.34918250
_cell_length_b   10.31110473
_cell_length_c   9.52248455
_cell_angle_alpha   89.96464148
_cell_angle_beta   89.96940211
_cell_angle_gamma   60.21817408
_symmetry_Int_Tables_number   1
_chemical_formula_structural   Sc4Al5N9
_chemical_formula_sum   'Sc16 Al20 N36'
_cell_volume   881.94731843
_cell_formula_units_Z   4
loop_
 _symmetry_equiv_pos_site_id
 _symmetry_equiv_pos_as_xyz
  1  'x, y, z'
loop_
 _atom_site_type_symbol
 _atom_site_label
 _atom_site_symmetry_multiplicity
 _atom_site_fract_x
 _atom_site_fract_y
 _atom_site_fract_z
 _atom_site_occupancy
  Sc  Sc0  1  0.11284414  0.08783628  0.34436730  1
  Sc  Sc1  1  0.22806679  0.20391296  0.10121018  1
  Sc  Sc2  1  0.88101056  0.20850362  0.60391686  1
  Sc  Sc3  1  0.22698639  0.20205595  0.61128163  1
  Sc  Sc4  1  0.11391408  0.43233272  0.35819133  1
  Sc  Sc5  1  0.22809662  0.54642402  0.09731153  1
  Sc  Sc6  1  0.55858348  0.52820923  0.09418867  1
  Sc  Sc7  1  0.10749899  0.43214670  0.85293796  1
  Sc  Sc8  1  0.23278021  0.54320168  0.60321133  1
  Sc  Sc9  1  0.76468912  0.43751405  0.35521061  1
  Sc  Sc10  1  0.78145236  0.76441700  0.84802915  1
  Sc  Sc11  1  0.55301266  0.87758946  0.09904750  1
  Sc  Sc12  1  0.22153361  0.86681024  0.59018561  1
  Sc  Sc13  1  0.78063960  0.76549236  0.34351470  1
  Sc  Sc14  1  0.43621923  0.75894140  0.85030218  1
  Sc  Sc15  1  0.55383696  0.86647661  0.59617864  1
  Al  Al16  1  0.77674178  0.09814743  0.86064638  1
  Al  Al17  1  0.44913421  0.09852043  0.37086886  1
  Al  Al18  1  0.56538018  0.20008032  0.12680767  1
  Al  Al19  1  0.09699576  0.09964056  0.87601779  1
  Al  Al20  1  0.77317372  0.09256446  0.36609278  1
  Al  Al21  1  0.88198750  0.20025544  0.12592434  1
  Al  Al22  1  0.45160676  0.09793784  0.87148182  1
  Al  Al23  1  0.56374478  0.20011006  0.62026289  1
  Al  Al24  1  0.78754026  0.41205650  0.87921409  1
  Al  Al25  1  0.88110815  0.54040039  0.62532737  1
  Al  Al26  1  0.45353968  0.42723528  0.37452102  1
  Al  Al27  1  0.89280322  0.53743494  0.11524178  1
  Al  Al28  1  0.45686489  0.40986938  0.87175274  1
  Al  Al29  1  0.56809162  0.52477633  0.63716611  1
  Al  Al30  1  0.11207827  0.76788449  0.32049569  1
  Al  Al31  1  0.20172180  0.87943856  0.06789743  1
  Al  Al32  1  0.88854429  0.87195813  0.57164411  1
  Al  Al33  1  0.42926156  0.76053905  0.31006991  1
  Al  Al34  1  0.09982046  0.77471420  0.82289038  1
  Al  Al35  1  0.89041245  0.88148819  0.07313816  1
  N  N36  1  0.24240259  0.19886384  0.33260721  1
  N  N37  1  0.09453293  0.09194511  0.09096482  1
  N  N38  1  0.88768112  0.20410444  0.83498543  1
  N  N39  1  0.76986096  0.08233662  0.58663225  1
  N  N40  1  0.55917435  0.20344857  0.32787952  1
  N  N41  1  0.45971817  0.10460966  0.07213892  1
  N  N42  1  0.22849865  0.18856003  0.84849226  1
  N  N43  1  0.10850635  0.09692151  0.57152759  1
  N  N44  1  0.87270947  0.20061478  0.33376329  1
  N  N45  1  0.77428904  0.09766424  0.08461059  1
  N  N46  1  0.55830316  0.20154156  0.82137689  1
  N  N47  1  0.45670952  0.10228770  0.57169688  1
  N  N48  1  0.23557903  0.54898614  0.34912225  1
  N  N49  1  0.10051743  0.43935435  0.08487533  1
  N  N50  1  0.87532471  0.52867528  0.83041172  1
  N  N51  1  0.76788099  0.44792495  0.57951141  1
  N  N52  1  0.53441761  0.54913098  0.31753521  1
  N  N53  1  0.45774952  0.39954857  0.07144293  1
  N  N54  1  0.23716717  0.55123581  0.84674971  1
  N  N55  1  0.09567192  0.43996596  0.59847157  1
  N  N56  1  0.88983635  0.53945533  0.31615554  1
  N  N57  1  0.79965487  0.41336624  0.08494349  1
  N  N58  1  0.57455314  0.50718837  0.84652065  1
  N  N59  1  0.47726210  0.41050919  0.57701534  1
  N  N60  1  0.23026601  0.85379192  0.36115788  1
  N  N61  1  0.09561531  0.78372084  0.11836496  1
  N  N62  1  0.89581409  0.88514924  0.86936662  1
  N  N63  1  0.79173750  0.75368041  0.59517542  1
  N  N64  1  0.53569751  0.87645298  0.33975047  1
  N  N65  1  0.41440877  0.77334112  0.09363135  1
  N  N66  1  0.19604259  0.88784222  0.85865180  1
  N  N67  1  0.08755291  0.77180542  0.62407349  1
  N  N68  1  0.90277914  0.87908224  0.36527474  1
  N  N69  1  0.79312589  0.75773735  0.09331591  1
  N  N70  1  0.54676348  0.88793536  0.84435989  1
  N  N71  1  0.45138324  0.73400504  0.62634676  1
