# generated using pymatgen
data_Sc4Al5N9
_symmetry_space_group_name_H-M   'P 1'
_cell_length_a   10.27276308
_cell_length_b   10.23168370
_cell_length_c   9.72306848
_cell_angle_alpha   90.13561494
_cell_angle_beta   90.03493997
_cell_angle_gamma   60.09100569
_symmetry_Int_Tables_number   1
_chemical_formula_structural   Sc4Al5N9
_chemical_formula_sum   'Sc16 Al20 N36'
_cell_volume   885.85894760
_cell_formula_units_Z   4
loop_
 _symmetry_equiv_pos_site_id
 _symmetry_equiv_pos_as_xyz
  1  'x, y, z'
loop_
 _atom_site_type_symbol
 _atom_site_label
 _atom_site_symmetry_multiplicity
 _atom_site_fract_x
 _atom_site_fract_y
 _atom_site_fract_z
 _atom_site_occupancy
  Sc  Sc0  1  0.11227132  0.08715717  0.35275390  1
  Sc  Sc1  1  0.22816717  0.20407323  0.10897272  1
  Sc  Sc2  1  0.87737890  0.20919243  0.61837122  1
  Sc  Sc3  1  0.22470269  0.20229113  0.62756343  1
  Sc  Sc4  1  0.11550397  0.42845985  0.37321319  1
  Sc  Sc5  1  0.22798354  0.54676545  0.11822127  1
  Sc  Sc6  1  0.55331258  0.53761502  0.10939983  1
  Sc  Sc7  1  0.10717253  0.43445633  0.86495559  1
  Sc  Sc8  1  0.23418552  0.54143011  0.61808587  1
  Sc  Sc9  1  0.76911518  0.43303644  0.36390002  1
  Sc  Sc10  1  0.77831636  0.76559175  0.87129602  1
  Sc  Sc11  1  0.54842628  0.87348404  0.12683093  1
  Sc  Sc12  1  0.20844814  0.87646662  0.61404082  1
  Sc  Sc13  1  0.78522687  0.76444018  0.36884107  1
  Sc  Sc14  1  0.43528685  0.76172090  0.85453164  1
  Sc  Sc15  1  0.55642203  0.87471392  0.61047594  1
  Al  Al16  1  0.77793773  0.09646530  0.88374838  1
  Al  Al17  1  0.44837906  0.10086768  0.38181296  1
  Al  Al18  1  0.56563278  0.19922614  0.13271080  1
  Al  Al19  1  0.09763414  0.09706814  0.88855253  1
  Al  Al20  1  0.77459434  0.08879542  0.38028844  1
  Al  Al21  1  0.88059470  0.20008609  0.13271990  1
  Al  Al22  1  0.45335546  0.09635896  0.88206498  1
  Al  Al23  1  0.56523483  0.20043570  0.63037308  1
  Al  Al24  1  0.78460155  0.41495966  0.88893238  1
  Al  Al25  1  0.88089292  0.54098106  0.63720140  1
  Al  Al26  1  0.45616465  0.42248341  0.38290683  1
  Al  Al27  1  0.89229678  0.53873168  0.12724428  1
  Al  Al28  1  0.45728447  0.41277039  0.87997280  1
  Al  Al29  1  0.56950489  0.52348141  0.64026053  1
  Al  Al30  1  0.11012138  0.76376192  0.38217093  1
  Al  Al31  1  0.21007086  0.87505958  0.10360894  1
  Al  Al32  1  0.88490581  0.87488643  0.63423751  1
  Al  Al33  1  0.43904814  0.74971287  0.39061504  1
  Al  Al34  1  0.10227637  0.77534618  0.87847141  1
  Al  Al35  1  0.89105696  0.88051407  0.12945790  1
  N  N36  1  0.24365296  0.19664254  0.33290643  1
  N  N37  1  0.09524587  0.08929476  0.09501632  1
  N  N38  1  0.88638986  0.20473243  0.84262541  1
  N  N39  1  0.76921075  0.07872550  0.57575851  1
  N  N40  1  0.56046091  0.20163355  0.32883143  1
  N  N41  1  0.46277004  0.09922122  0.07673922  1
  N  N42  1  0.22789270  0.18911162  0.85715774  1
  N  N43  1  0.10262698  0.10289993  0.57167495  1
  N  N44  1  0.87103336  0.19823892  0.33204521  1
  N  N45  1  0.77587999  0.09405376  0.07973157  1
  N  N46  1  0.56115268  0.20107937  0.82725678  1
  N  N47  1  0.45200799  0.11078827  0.57663103  1
  N  N48  1  0.23765544  0.54463319  0.35110495  1
  N  N49  1  0.09976295  0.44097744  0.08882709  1
  N  N50  1  0.87362778  0.53023698  0.83530577  1
  N  N51  1  0.77014914  0.44670512  0.58344475  1
  N  N52  1  0.53622502  0.54776137  0.32827632  1
  N  N53  1  0.45864271  0.40128929  0.07472157  1
  N  N54  1  0.23716854  0.55306084  0.84518056  1
  N  N55  1  0.09590722  0.43907829  0.60642665  1
  N  N56  1  0.89162144  0.53916227  0.32198643  1
  N  N57  1  0.79688763  0.41592385  0.09016091  1
  N  N58  1  0.57268198  0.51134975  0.84374786  1
  N  N59  1  0.47926406  0.40880012  0.58031568  1
  N  N60  1  0.23157842  0.85142433  0.35321874  1
  N  N61  1  0.09555230  0.78198704  0.07530740  1
  N  N62  1  0.89357382  0.88666756  0.83017081  1
  N  N63  1  0.79411253  0.75277587  0.59896173  1
  N  N64  1  0.53842858  0.87511984  0.35766944  1
  N  N65  1  0.41696140  0.77345646  0.07455670  1
  N  N66  1  0.19561787  0.89084570  0.84010447  1
  N  N67  1  0.08562499  0.76940829  0.57782719  1
  N  N68  1  0.90278936  0.88149779  0.32397025  1
  N  N69  1  0.78988846  0.75887214  0.09833920  1
  N  N70  1  0.54589799  0.88984610  0.83681158  1
  N  N71  1  0.44970003  0.73563071  0.60114466  1
