# generated using pymatgen
data_Sc4Al5N9
_symmetry_space_group_name_H-M   'P 1'
_cell_length_a   10.30776575
_cell_length_b   10.26903566
_cell_length_c   9.67965617
_cell_angle_alpha   90.03073624
_cell_angle_beta   89.98509590
_cell_angle_gamma   60.19897618
_symmetry_Int_Tables_number   1
_chemical_formula_structural   Sc4Al5N9
_chemical_formula_sum   'Sc16 Al20 N36'
_cell_volume   889.10264583
_cell_formula_units_Z   4
loop_
 _symmetry_equiv_pos_site_id
 _symmetry_equiv_pos_as_xyz
  1  'x, y, z'
loop_
 _atom_site_type_symbol
 _atom_site_label
 _atom_site_symmetry_multiplicity
 _atom_site_fract_x
 _atom_site_fract_y
 _atom_site_fract_z
 _atom_site_occupancy
  Sc  Sc0  1  0.11509890  0.08762983  0.34487455  1
  Sc  Sc1  1  0.22732201  0.20475368  0.10177175  1
  Sc  Sc2  1  0.88183346  0.20818854  0.59807404  1
  Sc  Sc3  1  0.22747746  0.20084165  0.61728010  1
  Sc  Sc4  1  0.11437658  0.43094861  0.36323174  1
  Sc  Sc5  1  0.22700524  0.54653127  0.09928818  1
  Sc  Sc6  1  0.55913466  0.52800308  0.09421411  1
  Sc  Sc7  1  0.10706008  0.43253612  0.85475947  1
  Sc  Sc8  1  0.23269190  0.54299841  0.60577931  1
  Sc  Sc9  1  0.76310994  0.43986084  0.35776821  1
  Sc  Sc10  1  0.78165037  0.76452291  0.84950019  1
  Sc  Sc11  1  0.55376708  0.87726399  0.10014966  1
  Sc  Sc12  1  0.22251873  0.86560460  0.58735681  1
  Sc  Sc13  1  0.78056063  0.76586843  0.34498751  1
  Sc  Sc14  1  0.43599325  0.75922133  0.85022413  1
  Sc  Sc15  1  0.55457690  0.86614426  0.59802095  1
  Al  Al16  1  0.77952036  0.09197286  0.81922764  1
  Al  Al17  1  0.44871331  0.09879273  0.37189204  1
  Al  Al18  1  0.56179136  0.20156707  0.12761023  1
  Al  Al19  1  0.09534378  0.09997386  0.87868169  1
  Al  Al20  1  0.77689947  0.08994660  0.32341277  1
  Al  Al21  1  0.88380222  0.20223783  0.12664757  1
  Al  Al22  1  0.45130432  0.09829850  0.87392888  1
  Al  Al23  1  0.56155600  0.20096092  0.62001724  1
  Al  Al24  1  0.78797712  0.41069880  0.87928385  1
  Al  Al25  1  0.88081729  0.54068339  0.62708021  1
  Al  Al26  1  0.45322405  0.42725628  0.37609021  1
  Al  Al27  1  0.89321216  0.53766873  0.11729312  1
  Al  Al28  1  0.45619979  0.40993461  0.87384498  1
  Al  Al29  1  0.56843196  0.52413739  0.63999642  1
  Al  Al30  1  0.11187744  0.76810949  0.32011702  1
  Al  Al31  1  0.20106564  0.87898130  0.06622242  1
  Al  Al32  1  0.88802312  0.87417014  0.56892136  1
  Al  Al33  1  0.42899272  0.76069956  0.30669760  1
  Al  Al34  1  0.09949187  0.77550170  0.82174772  1
  Al  Al35  1  0.89027232  0.88283429  0.07062830  1
  N  N36  1  0.24330534  0.19899831  0.32746749  1
  N  N37  1  0.09431091  0.09197528  0.09042856  1
  N  N38  1  0.88774922  0.20349544  0.83252538  1
  N  N39  1  0.77257623  0.07864818  0.61679962  1
  N  N40  1  0.55681239  0.20514816  0.32789426  1
  N  N41  1  0.45956589  0.10441433  0.07002239  1
  N  N42  1  0.22792006  0.18793167  0.84872344  1
  N  N43  1  0.11035326  0.09641997  0.56782261  1
  N  N44  1  0.87454131  0.20308811  0.33669208  1
  N  N45  1  0.77706931  0.09228163  0.11721013  1
  N  N46  1  0.55402951  0.20361967  0.82040645  1
  N  N47  1  0.45614407  0.10231358  0.56852967  1
  N  N48  1  0.23457705  0.54896456  0.34925939  1
  N  N49  1  0.09962386  0.43995051  0.08080039  1
  N  N50  1  0.87444958  0.52882663  0.82734700  1
  N  N51  1  0.76707285  0.44899557  0.57790448  1
  N  N52  1  0.53371078  0.54859821  0.31401604  1
  N  N53  1  0.45737283  0.39971579  0.06955548  1
  N  N54  1  0.23649388  0.55206232  0.84637063  1
  N  N55  1  0.09611407  0.43883320  0.59824735  1
  N  N56  1  0.89065456  0.53923748  0.31393342  1
  N  N57  1  0.80061536  0.41317686  0.08212999  1
  N  N58  1  0.57450675  0.50669303  0.84627889  1
  N  N59  1  0.47780152  0.41078863  0.57507902  1
  N  N60  1  0.23146437  0.85246579  0.36299505  1
  N  N61  1  0.09488534  0.78437365  0.12194735  1
  N  N62  1  0.89553539  0.88752935  0.87471858  1
  N  N63  1  0.79238115  0.75362823  0.59374672  1
  N  N64  1  0.53600104  0.87613565  0.33772904  1
  N  N65  1  0.41415264  0.77368718  0.09340402  1
  N  N66  1  0.19558847  0.88775568  0.86151263  1
  N  N67  1  0.08660363  0.77263877  0.62685892  1
  N  N68  1  0.90190047  0.88221932  0.37062134  1
  N  N69  1  0.79382248  0.75737583  0.09275298  1
  N  N70  1  0.54718575  0.88835677  0.84326239  1
  N  N71  1  0.45134931  0.73412619  0.62985816  1
