# generated using pymatgen
data_Sc4Al5N9
_symmetry_space_group_name_H-M   'P 1'
_cell_length_a   10.34360063
_cell_length_b   10.30491362
_cell_length_c   9.56133775
_cell_angle_alpha   90.05723051
_cell_angle_beta   90.00100864
_cell_angle_gamma   60.18188366
_symmetry_Int_Tables_number   1
_chemical_formula_structural   Sc4Al5N9
_chemical_formula_sum   'Sc16 Al20 N36'
_cell_volume   884.21557406
_cell_formula_units_Z   4
loop_
 _symmetry_equiv_pos_site_id
 _symmetry_equiv_pos_as_xyz
  1  'x, y, z'
loop_
 _atom_site_type_symbol
 _atom_site_label
 _atom_site_symmetry_multiplicity
 _atom_site_fract_x
 _atom_site_fract_y
 _atom_site_fract_z
 _atom_site_occupancy
  Sc  Sc0  1  0.11203074  0.08831451  0.34490603  1
  Sc  Sc1  1  0.22733826  0.20390327  0.10202180  1
  Sc  Sc2  1  0.87975994  0.20835418  0.59826381  1
  Sc  Sc3  1  0.22730395  0.20179307  0.61186529  1
  Sc  Sc4  1  0.11414915  0.43207531  0.35967695  1
  Sc  Sc5  1  0.22758464  0.54670411  0.09849249  1
  Sc  Sc6  1  0.55828221  0.52892577  0.09465463  1
  Sc  Sc7  1  0.10765759  0.43195539  0.85350141  1
  Sc  Sc8  1  0.23277593  0.54318069  0.60386531  1
  Sc  Sc9  1  0.76447760  0.43804456  0.35543909  1
  Sc  Sc10  1  0.78179498  0.76461782  0.84853117  1
  Sc  Sc11  1  0.55339313  0.87712554  0.09978676  1
  Sc  Sc12  1  0.22145208  0.86647139  0.59036728  1
  Sc  Sc13  1  0.78064218  0.76597029  0.34478996  1
  Sc  Sc14  1  0.43660552  0.75893963  0.85018283  1
  Sc  Sc15  1  0.55427622  0.86627691  0.59665544  1
  Al  Al16  1  0.77902464  0.09139823  0.82418916  1
  Al  Al17  1  0.44925353  0.09869102  0.37119175  1
  Al  Al18  1  0.56166907  0.20158126  0.12568235  1
  Al  Al19  1  0.09790924  0.09888921  0.87386003  1
  Al  Al20  1  0.77720078  0.09072489  0.32241887  1
  Al  Al21  1  0.88406071  0.20144142  0.11427537  1
  Al  Al22  1  0.45075849  0.09816268  0.87259900  1
  Al  Al23  1  0.56263182  0.20020533  0.62048056  1
  Al  Al24  1  0.78672774  0.41304274  0.87812458  1
  Al  Al25  1  0.88126655  0.54074763  0.62542237  1
  Al  Al26  1  0.45417257  0.42649611  0.37533682  1
  Al  Al27  1  0.89303084  0.53804068  0.11652896  1
  Al  Al28  1  0.45631952  0.41030045  0.87260373  1
  Al  Al29  1  0.56807054  0.52483637  0.63774175  1
  Al  Al30  1  0.11201867  0.76838512  0.32167872  1
  Al  Al31  1  0.20171032  0.87903347  0.06709850  1
  Al  Al32  1  0.88769508  0.87469331  0.57002824  1
  Al  Al33  1  0.42891851  0.76089393  0.31007254  1
  Al  Al34  1  0.09965756  0.77442383  0.82287002  1
  Al  Al35  1  0.89091173  0.88136678  0.07262046  1
  N  N36  1  0.24215171  0.19856880  0.33265620  1
  N  N37  1  0.09579478  0.09111811  0.09062694  1
  N  N38  1  0.88667170  0.20334444  0.84130277  1
  N  N39  1  0.77281543  0.07825860  0.61894159  1
  N  N40  1  0.55767820  0.20453548  0.32846072  1
  N  N41  1  0.45873507  0.10424749  0.07227739  1
  N  N42  1  0.22850316  0.18822200  0.84813332  1
  N  N43  1  0.10816540  0.09694276  0.57381303  1
  N  N44  1  0.87380392  0.20246631  0.33967901  1
  N  N45  1  0.77677452  0.09257167  0.11361462  1
  N  N46  1  0.55448928  0.20321398  0.82339532  1
  N  N47  1  0.45718053  0.10187655  0.57073574  1
  N  N48  1  0.23532215  0.54917758  0.34997548  1
  N  N49  1  0.10043332  0.43929626  0.08442333  1
  N  N50  1  0.87527804  0.52912709  0.82931760  1
  N  N51  1  0.76775393  0.44828929  0.57990817  1
  N  N52  1  0.53400787  0.54918142  0.31710097  1
  N  N53  1  0.45753247  0.40034687  0.07128171  1
  N  N54  1  0.23654379  0.55169486  0.84721445  1
  N  N55  1  0.09609295  0.43969426  0.59842245  1
  N  N56  1  0.89013310  0.53975506  0.31629361  1
  N  N57  1  0.79927273  0.41489351  0.08398163  1
  N  N58  1  0.57388172  0.50773016  0.84642428  1
  N  N59  1  0.47808138  0.41000279  0.57695387  1
  N  N60  1  0.23030387  0.85404767  0.36281555  1
  N  N61  1  0.09577503  0.78390476  0.12076600  1
  N  N62  1  0.89623174  0.88586570  0.87444767  1
  N  N63  1  0.79217482  0.75408126  0.59460060  1
  N  N64  1  0.53604674  0.87617410  0.33953575  1
  N  N65  1  0.41421986  0.77367951  0.09386391  1
  N  N66  1  0.19638309  0.88692357  0.85909656  1
  N  N67  1  0.08673890  0.77189356  0.62516137  1
  N  N68  1  0.90121178  0.88276552  0.36868622  1
  N  N69  1  0.79354328  0.75759968  0.09408867  1
  N  N70  1  0.54725688  0.88796040  0.84444680  1
  N  N71  1  0.45138386  0.73422634  0.62711732  1
