# generated using pymatgen
data_Sc4Al5N9
_symmetry_space_group_name_H-M   'P 1'
_cell_length_a   10.32603629
_cell_length_b   10.28539756
_cell_length_c   9.59097437
_cell_angle_alpha   89.90557981
_cell_angle_beta   89.76877147
_cell_angle_gamma   60.00595012
_symmetry_Int_Tables_number   1
_chemical_formula_structural   Sc4Al5N9
_chemical_formula_sum   'Sc16 Al20 N36'
_cell_volume   882.20710724
_cell_formula_units_Z   4
loop_
 _symmetry_equiv_pos_site_id
 _symmetry_equiv_pos_as_xyz
  1  'x, y, z'
loop_
 _atom_site_type_symbol
 _atom_site_label
 _atom_site_symmetry_multiplicity
 _atom_site_fract_x
 _atom_site_fract_y
 _atom_site_fract_z
 _atom_site_occupancy
  Sc  Sc0  1  0.10463385  0.08858488  0.33596235  1
  Sc  Sc1  1  0.22536141  0.19885603  0.08729658  1
  Sc  Sc2  1  0.87315789  0.20696701  0.59889643  1
  Sc  Sc3  1  0.22741800  0.20573881  0.58949024  1
  Sc  Sc4  1  0.11686417  0.43326083  0.34668139  1
  Sc  Sc5  1  0.23154445  0.54677365  0.08500774  1
  Sc  Sc6  1  0.56402916  0.52505323  0.09591920  1
  Sc  Sc7  1  0.10950760  0.43062888  0.84722979  1
  Sc  Sc8  1  0.23025214  0.54477491  0.59390362  1
  Sc  Sc9  1  0.77831274  0.42480049  0.34757519  1
  Sc  Sc10  1  0.78148479  0.76623764  0.84747776  1
  Sc  Sc11  1  0.55263134  0.87589041  0.09238042  1
  Sc  Sc12  1  0.21975767  0.86575720  0.59163590  1
  Sc  Sc13  1  0.77963670  0.76829340  0.34210978  1
  Sc  Sc14  1  0.44156451  0.75078624  0.84771169  1
  Sc  Sc15  1  0.55160704  0.86960970  0.58824762  1
  Al  Al16  1  0.77320559  0.09027087  0.82728500  1
  Al  Al17  1  0.45000679  0.09728555  0.32245903  1
  Al  Al18  1  0.56426730  0.20137462  0.07293862  1
  Al  Al19  1  0.10698371  0.09511394  0.82348706  1
  Al  Al20  1  0.77616070  0.09480035  0.31871403  1
  Al  Al21  1  0.88884973  0.20041703  0.06506405  1
  Al  Al22  1  0.45010296  0.09842246  0.82366592  1
  Al  Al23  1  0.56612892  0.19744932  0.57204382  1
  Al  Al24  1  0.77539896  0.42309930  0.84534601  1
  Al  Al25  1  0.88119405  0.54372340  0.62195401  1
  Al  Al26  1  0.44921079  0.41992709  0.32847325  1
  Al  Al27  1  0.89378853  0.53631356  0.11811297  1
  Al  Al28  1  0.46395691  0.41495399  0.81788680  1
  Al  Al29  1  0.55631541  0.53694376  0.56683938  1
  Al  Al30  1  0.11171144  0.76918822  0.32087151  1
  Al  Al31  1  0.20138985  0.88250434  0.06537342  1
  Al  Al32  1  0.88539280  0.87640779  0.57053995  1
  Al  Al33  1  0.42754539  0.76362916  0.31555662  1
  Al  Al34  1  0.10024467  0.77415354  0.82522674  1
  Al  Al35  1  0.89196980  0.88115330  0.07677832  1
  N  N36  1  0.23922740  0.19563928  0.35402515  1
  N  N37  1  0.09566351  0.08907712  0.10893122  1
  N  N38  1  0.88476537  0.20436681  0.85593796  1
  N  N39  1  0.76633543  0.07746362  0.63128310  1
  N  N40  1  0.56188131  0.19799612  0.37332341  1
  N  N41  1  0.45850112  0.10381012  0.12377302  1
  N  N42  1  0.23074308  0.18942796  0.85397178  1
  N  N43  1  0.10674478  0.09700964  0.61916370  1
  N  N44  1  0.87441059  0.19495941  0.37702691  1
  N  N45  1  0.77725991  0.09741623  0.11729947  1
  N  N46  1  0.55755707  0.20410697  0.87410497  1
  N  N47  1  0.45679468  0.10402684  0.62508860  1
  N  N48  1  0.23415812  0.55246604  0.35681582  1
  N  N49  1  0.10361754  0.43727684  0.08835604  1
  N  N50  1  0.87596745  0.53103367  0.82932717  1
  N  N51  1  0.76649941  0.44798897  0.59246544  1
  N  N52  1  0.53747428  0.54861031  0.35639275  1
  N  N53  1  0.45940844  0.40102546  0.13169602  1
  N  N54  1  0.24074518  0.54928175  0.85042337  1
  N  N55  1  0.09505541  0.44246612  0.59801182  1
  N  N56  1  0.89136146  0.54100784  0.32220854  1
  N  N57  1  0.80259464  0.41191762  0.10264647  1
  N  N58  1  0.57001679  0.51070141  0.87374215  1
  N  N59  1  0.47707353  0.40864676  0.61649805  1
  N  N60  1  0.22728657  0.85685547  0.36989011  1
  N  N61  1  0.09810259  0.78303257  0.12171467  1
  N  N62  1  0.89674147  0.88582653  0.88008300  1
  N  N63  1  0.78916690  0.75728411  0.59597546  1
  N  N64  1  0.53465948  0.87666567  0.34907020  1
  N  N65  1  0.41472696  0.76965599  0.10573229  1
  N  N66  1  0.19965703  0.88478715  0.86182738  1
  N  N67  1  0.08400355  0.77292549  0.62934637  1
  N  N68  1  0.90024657  0.88456039  0.36934931  1
  N  N69  1  0.79395078  0.75711405  0.09776024  1
  N  N70  1  0.54603609  0.88765167  0.85907460  1
  N  N71  1  0.45079324  0.73631976  0.62623281  1
