# generated using pymatgen
data_Sc4Al5N9
_symmetry_space_group_name_H-M   'P 1'
_cell_length_a   10.37576215
_cell_length_b   10.33187062
_cell_length_c   9.46773035
_cell_angle_alpha   90.21557333
_cell_angle_beta   89.99639267
_cell_angle_gamma   60.02515178
_symmetry_Int_Tables_number   1
_chemical_formula_structural   Sc4Al5N9
_chemical_formula_sum   'Sc16 Al20 N36'
_cell_volume   879.18713959
_cell_formula_units_Z   4
loop_
 _symmetry_equiv_pos_site_id
 _symmetry_equiv_pos_as_xyz
  1  'x, y, z'
loop_
 _atom_site_type_symbol
 _atom_site_label
 _atom_site_symmetry_multiplicity
 _atom_site_fract_x
 _atom_site_fract_y
 _atom_site_fract_z
 _atom_site_occupancy
  Sc  Sc0  1  0.10401639  0.08876050  0.34327970  1
  Sc  Sc1  1  0.22367441  0.20050013  0.09854895  1
  Sc  Sc2  1  0.86894111  0.21485017  0.60082913  1
  Sc  Sc3  1  0.22638832  0.20605368  0.60137227  1
  Sc  Sc4  1  0.11505901  0.43406939  0.35208541  1
  Sc  Sc5  1  0.23117690  0.54633510  0.08820291  1
  Sc  Sc6  1  0.55866910  0.52743203  0.10049924  1
  Sc  Sc7  1  0.10975106  0.43115668  0.85018895  1
  Sc  Sc8  1  0.23120055  0.54484639  0.59617956  1
  Sc  Sc9  1  0.77839324  0.42671525  0.34605795  1
  Sc  Sc10  1  0.78240678  0.76497107  0.85077981  1
  Sc  Sc11  1  0.55155207  0.87600272  0.10059305  1
  Sc  Sc12  1  0.21877024  0.86620683  0.59523716  1
  Sc  Sc13  1  0.77987579  0.76710721  0.34666944  1
  Sc  Sc14  1  0.44200848  0.74845985  0.84967465  1
  Sc  Sc15  1  0.55392046  0.86682321  0.60049682  1
  Al  Al16  1  0.77483357  0.09004552  0.82729574  1
  Al  Al17  1  0.44876822  0.09460996  0.36958542  1
  Al  Al18  1  0.56534342  0.20202764  0.07298569  1
  Al  Al19  1  0.10516346  0.09554414  0.82544889  1
  Al  Al20  1  0.77608968  0.09441219  0.31947731  1
  Al  Al21  1  0.89129829  0.19486869  0.07090503  1
  Al  Al22  1  0.44863578  0.09735207  0.86726532  1
  Al  Al23  1  0.56871560  0.19788368  0.57241559  1
  Al  Al24  1  0.78050875  0.42111737  0.87916928  1
  Al  Al25  1  0.88013641  0.54248237  0.62408195  1
  Al  Al26  1  0.44915912  0.41875956  0.32991847  1
  Al  Al27  1  0.89471135  0.53872382  0.11541432  1
  Al  Al28  1  0.46673293  0.41499969  0.81732900  1
  Al  Al29  1  0.55815187  0.53745228  0.56521660  1
  Al  Al30  1  0.11127276  0.76913017  0.32240112  1
  Al  Al31  1  0.20115945  0.88289287  0.06690414  1
  Al  Al32  1  0.88631087  0.87649378  0.57243039  1
  Al  Al33  1  0.42620252  0.76446373  0.31831589  1
  Al  Al34  1  0.10044934  0.77356427  0.82717957  1
  Al  Al35  1  0.89187102  0.88058204  0.07812407  1
  N  N36  1  0.23815461  0.19700841  0.34739923  1
  N  N37  1  0.09644677  0.08817522  0.11034842  1
  N  N38  1  0.88592423  0.20326179  0.85808233  1
  N  N39  1  0.76840914  0.07864918  0.62830836  1
  N  N40  1  0.56363734  0.19840843  0.36687117  1
  N  N41  1  0.45553180  0.10310334  0.08352175  1
  N  N42  1  0.22981877  0.18996705  0.84932067  1
  N  N43  1  0.10306758  0.09888208  0.61484874  1
  N  N44  1  0.87286996  0.19724935  0.37217541  1
  N  N45  1  0.77716158  0.09605362  0.11542986  1
  N  N46  1  0.56012743  0.20518665  0.86692912  1
  N  N47  1  0.45672691  0.10076309  0.58634833  1
  N  N48  1  0.23376042  0.55201783  0.35525786  1
  N  N49  1  0.10343946  0.43816911  0.08751995  1
  N  N50  1  0.87605833  0.52930095  0.83275038  1
  N  N51  1  0.76667080  0.45241826  0.57776456  1
  N  N52  1  0.53672382  0.54917368  0.35148356  1
  N  N53  1  0.45833073  0.40055670  0.12978227  1
  N  N54  1  0.24247350  0.54861252  0.84946774  1
  N  N55  1  0.09477876  0.44288582  0.59896940  1
  N  N56  1  0.89171648  0.54149663  0.31831322  1
  N  N57  1  0.80208590  0.41278573  0.09259571  1
  N  N58  1  0.57238679  0.50998207  0.87468157  1
  N  N59  1  0.47864406  0.40905941  0.61212981  1
  N  N60  1  0.22648468  0.85690660  0.36998025  1
  N  N61  1  0.09812427  0.78286455  0.11979449  1
  N  N62  1  0.89668515  0.88539720  0.87817433  1
  N  N63  1  0.79154755  0.75599670  0.59725461  1
  N  N64  1  0.53503476  0.87612392  0.34594440  1
  N  N65  1  0.41354516  0.77047152  0.10443877  1
  N  N66  1  0.19949470  0.88520051  0.85994100  1
  N  N67  1  0.08494778  0.77182785  0.62797078  1
  N  N68  1  0.89981939  0.88418766  0.36769987  1
  N  N69  1  0.79270877  0.75867817  0.09682712  1
  N  N70  1  0.54705745  0.88493556  0.84978020  1
  N  N71  1  0.44935446  0.73542588  0.62442540  1
