# generated using pymatgen
data_Sc4Al5N9
_symmetry_space_group_name_H-M   'P 1'
_cell_length_a   10.33460725
_cell_length_b   10.29181390
_cell_length_c   9.56967334
_cell_angle_alpha   90.05369677
_cell_angle_beta   89.81778696
_cell_angle_gamma   60.03839527
_symmetry_Int_Tables_number   1
_chemical_formula_structural   Sc4Al5N9
_chemical_formula_sum   'Sc16 Al20 N36'
_cell_volume   881.81503977
_cell_formula_units_Z   4
loop_
 _symmetry_equiv_pos_site_id
 _symmetry_equiv_pos_as_xyz
  1  'x, y, z'
loop_
 _atom_site_type_symbol
 _atom_site_label
 _atom_site_symmetry_multiplicity
 _atom_site_fract_x
 _atom_site_fract_y
 _atom_site_fract_z
 _atom_site_occupancy
  Sc  Sc0  1  0.10419326  0.08886566  0.33990304  1
  Sc  Sc1  1  0.22536838  0.19850639  0.08878652  1
  Sc  Sc2  1  0.86897243  0.21487629  0.60071591  1
  Sc  Sc3  1  0.22746965  0.20568581  0.59105644  1
  Sc  Sc4  1  0.11591205  0.43357768  0.34909949  1
  Sc  Sc5  1  0.23103280  0.54630085  0.08568915  1
  Sc  Sc6  1  0.55851460  0.52744032  0.10071296  1
  Sc  Sc7  1  0.11002290  0.43008581  0.84729538  1
  Sc  Sc8  1  0.23094961  0.54460702  0.59542050  1
  Sc  Sc9  1  0.77794986  0.42662937  0.34674601  1
  Sc  Sc10  1  0.78180053  0.76567770  0.84757755  1
  Sc  Sc11  1  0.55268100  0.87551249  0.09273388  1
  Sc  Sc12  1  0.21877611  0.86667551  0.59378079  1
  Sc  Sc13  1  0.77983323  0.76755882  0.34351052  1
  Sc  Sc14  1  0.44275750  0.74885580  0.84809448  1
  Sc  Sc15  1  0.55214806  0.86900168  0.58996243  1
  Al  Al16  1  0.77432982  0.09025685  0.82754939  1
  Al  Al17  1  0.44995482  0.09696319  0.32341618  1
  Al  Al18  1  0.56422102  0.20057607  0.07330046  1
  Al  Al19  1  0.10603855  0.09548065  0.82372990  1
  Al  Al20  1  0.77580794  0.09431815  0.32064018  1
  Al  Al21  1  0.89124919  0.19419963  0.07010577  1
  Al  Al22  1  0.45045046  0.09802792  0.82450546  1
  Al  Al23  1  0.56674618  0.19724699  0.57294465  1
  Al  Al24  1  0.78054756  0.42092279  0.88126344  1
  Al  Al25  1  0.87937205  0.54257369  0.62422675  1
  Al  Al26  1  0.44833656  0.41908563  0.32975755  1
  Al  Al27  1  0.89530782  0.53811325  0.11613619  1
  Al  Al28  1  0.46639912  0.41468940  0.81836611  1
  Al  Al29  1  0.55756313  0.53770346  0.56468713  1
  Al  Al30  1  0.11144780  0.76913815  0.32190984  1
  Al  Al31  1  0.20133924  0.88254996  0.06595585  1
  Al  Al32  1  0.88579972  0.87681238  0.57190411  1
  Al  Al33  1  0.42626530  0.76513532  0.31678938  1
  Al  Al34  1  0.10060530  0.77375122  0.82608588  1
  Al  Al35  1  0.89187079  0.88049070  0.07702623  1
  N  N36  1  0.23925355  0.19603340  0.35448242  1
  N  N37  1  0.09664812  0.08812794  0.11182381  1
  N  N38  1  0.88583431  0.20290938  0.85953551  1
  N  N39  1  0.76744866  0.07896775  0.63080650  1
  N  N40  1  0.56165645  0.19754598  0.37382141  1
  N  N41  1  0.45851658  0.10306280  0.12370559  1
  N  N42  1  0.23080276  0.18887937  0.85390465  1
  N  N43  1  0.10383684  0.09921035  0.61819897  1
  N  N44  1  0.87312153  0.19657394  0.37484531  1
  N  N45  1  0.77682540  0.09592041  0.11863429  1
  N  N46  1  0.55845051  0.20367323  0.87401830  1
  N  N47  1  0.45712885  0.10388514  0.62532626  1
  N  N48  1  0.23353485  0.55233479  0.35733706  1
  N  N49  1  0.10434991  0.43654436  0.08655429  1
  N  N50  1  0.87535698  0.52922769  0.83069743  1
  N  N51  1  0.76641666  0.45272712  0.57561012  1
  N  N52  1  0.53588231  0.54930493  0.35251783  1
  N  N53  1  0.45810681  0.39986528  0.13236676  1
  N  N54  1  0.24184568  0.54879962  0.85025568  1
  N  N55  1  0.09441486  0.44271655  0.59875930  1
  N  N56  1  0.89202443  0.54118164  0.31672763  1
  N  N57  1  0.80236556  0.41257332  0.09253641  1
  N  N58  1  0.57174192  0.50993177  0.87723523  1
  N  N59  1  0.47894086  0.40888361  0.61591612  1
  N  N60  1  0.22659452  0.85704404  0.37137926  1
  N  N61  1  0.09800348  0.78289345  0.12174685  1
  N  N62  1  0.89690689  0.88562572  0.87972228  1
  N  N63  1  0.78990880  0.75688495  0.59736060  1
  N  N64  1  0.53484236  0.87646558  0.34958464  1
  N  N65  1  0.41351928  0.77088723  0.10613540  1
  N  N66  1  0.19990577  0.88493830  0.86155619  1
  N  N67  1  0.08451732  0.77228040  0.62964821  1
  N  N68  1  0.90006391  0.88412990  0.37003513  1
  N  N69  1  0.79369531  0.75779090  0.09659250  1
  N  N70  1  0.54631175  0.88693150  0.85837017  1
  N  N71  1  0.45025926  0.73623470  0.62589705  1
