# generated using pymatgen
data_Sc4Al5N9
_symmetry_space_group_name_H-M   'P 1'
_cell_length_a   10.24780311
_cell_length_b   10.20889186
_cell_length_c   9.77810160
_cell_angle_alpha   90.09302018
_cell_angle_beta   90.04276987
_cell_angle_gamma   60.08111583
_symmetry_Int_Tables_number   1
_chemical_formula_structural   Sc4Al5N9
_chemical_formula_sum   'Sc16 Al20 N36'
_cell_volume   886.64216838
_cell_formula_units_Z   4
loop_
 _symmetry_equiv_pos_site_id
 _symmetry_equiv_pos_as_xyz
  1  'x, y, z'
loop_
 _atom_site_type_symbol
 _atom_site_label
 _atom_site_symmetry_multiplicity
 _atom_site_fract_x
 _atom_site_fract_y
 _atom_site_fract_z
 _atom_site_occupancy
  Sc  Sc0  1  0.11006220  0.09161571  0.35327850  1
  Sc  Sc1  1  0.22818476  0.20387911  0.10877293  1
  Sc  Sc2  1  0.87800281  0.20892388  0.62063560  1
  Sc  Sc3  1  0.22483604  0.20156379  0.63046822  1
  Sc  Sc4  1  0.11581764  0.42823196  0.37515841  1
  Sc  Sc5  1  0.22801921  0.54616530  0.11906422  1
  Sc  Sc6  1  0.55387592  0.53706776  0.10970693  1
  Sc  Sc7  1  0.10746554  0.43475047  0.86572311  1
  Sc  Sc8  1  0.23392282  0.54249824  0.61889249  1
  Sc  Sc9  1  0.76855774  0.43335667  0.36509905  1
  Sc  Sc10  1  0.77842763  0.76574488  0.87142200  1
  Sc  Sc11  1  0.54900079  0.87311235  0.12751718  1
  Sc  Sc12  1  0.20742045  0.87727585  0.61574441  1
  Sc  Sc13  1  0.78500547  0.76437243  0.36993584  1
  Sc  Sc14  1  0.43264869  0.76314814  0.85771909  1
  Sc  Sc15  1  0.55579404  0.87408799  0.61069442  1
  Al  Al16  1  0.77839709  0.09608927  0.88398616  1
  Al  Al17  1  0.44816657  0.10095528  0.38204633  1
  Al  Al18  1  0.56581962  0.19903871  0.13275443  1
  Al  Al19  1  0.09949779  0.09295269  0.89313457  1
  Al  Al20  1  0.77425430  0.08925643  0.38063969  1
  Al  Al21  1  0.88103810  0.19977495  0.13242811  1
  Al  Al22  1  0.45351453  0.09591579  0.88270265  1
  Al  Al23  1  0.56509346  0.20027750  0.63067298  1
  Al  Al24  1  0.78485315  0.41506295  0.88898121  1
  Al  Al25  1  0.88104628  0.54092436  0.63789604  1
  Al  Al26  1  0.45602513  0.42214841  0.38326946  1
  Al  Al27  1  0.89247732  0.53863733  0.12762993  1
  Al  Al28  1  0.45698603  0.41326914  0.88006981  1
  Al  Al29  1  0.56849171  0.52434524  0.64010429  1
  Al  Al30  1  0.10904184  0.76377296  0.38005344  1
  Al  Al31  1  0.21297316  0.87112956  0.12984330  1
  Al  Al32  1  0.88601571  0.87455537  0.63422681  1
  Al  Al33  1  0.43851724  0.75005149  0.38872422  1
  Al  Al34  1  0.10405501  0.77720407  0.88259630  1
  Al  Al35  1  0.89097290  0.88046259  0.12956259  1
  N  N36  1  0.24385880  0.19738245  0.33105634  1
  N  N37  1  0.09664936  0.08688612  0.09703410  1
  N  N38  1  0.88767384  0.20399650  0.84332732  1
  N  N39  1  0.76952646  0.07895655  0.57526464  1
  N  N40  1  0.56026109  0.20169362  0.32815951  1
  N  N41  1  0.46347670  0.09862359  0.07599484  1
  N  N42  1  0.22794763  0.18847805  0.85822262  1
  N  N43  1  0.10300831  0.10298628  0.56853876  1
  N  N44  1  0.87002370  0.19911346  0.33058119  1
  N  N45  1  0.77592457  0.09390768  0.07885639  1
  N  N46  1  0.56108101  0.20103586  0.82651519  1
  N  N47  1  0.45164561  0.11060269  0.57576870  1
  N  N48  1  0.23761183  0.54457078  0.35027938  1
  N  N49  1  0.09956394  0.44115958  0.08739504  1
  N  N50  1  0.87378105  0.53040497  0.83428289  1
  N  N51  1  0.76994194  0.44671037  0.58342366  1
  N  N52  1  0.53575080  0.54761278  0.32726375  1
  N  N53  1  0.45876193  0.40104217  0.07359638  1
  N  N54  1  0.23698128  0.55441873  0.84458040  1
  N  N55  1  0.09649085  0.43858616  0.60657977  1
  N  N56  1  0.89189722  0.53881040  0.32130546  1
  N  N57  1  0.79728987  0.41588020  0.08894447  1
  N  N58  1  0.57224381  0.51227639  0.84254816  1
  N  N59  1  0.47890153  0.40879049  0.57960389  1
  N  N60  1  0.23046061  0.85198121  0.33768171  1
  N  N61  1  0.09689974  0.78263059  0.07735627  1
  N  N62  1  0.89532447  0.88593914  0.82944786  1
  N  N63  1  0.79426344  0.75285152  0.59840156  1
  N  N64  1  0.53799882  0.87525116  0.35697331  1
  N  N65  1  0.41634752  0.77371437  0.07526108  1
  N  N66  1  0.19502647  0.89132795  0.83289806  1
  N  N67  1  0.08585544  0.77032865  0.57290119  1
  N  N68  1  0.90140477  0.88216674  0.32292561  1
  N  N69  1  0.79025046  0.75856238  0.09714949  1
  N  N70  1  0.54539318  0.88948254  0.83537471  1
  N  N71  1  0.44735476  0.73603812  0.59611141  1
