# generated using pymatgen
data_Sc4Al5N9
_symmetry_space_group_name_H-M   'P 1'
_cell_length_a   10.39995042
_cell_length_b   10.37076731
_cell_length_c   9.37240631
_cell_angle_alpha   90.21788742
_cell_angle_beta   89.96284730
_cell_angle_gamma   60.13981026
_symmetry_Int_Tables_number   1
_chemical_formula_structural   Sc4Al5N9
_chemical_formula_sum   'Sc16 Al20 N36'
_cell_volume   876.65560464
_cell_formula_units_Z   4
loop_
 _symmetry_equiv_pos_site_id
 _symmetry_equiv_pos_as_xyz
  1  'x, y, z'
loop_
 _atom_site_type_symbol
 _atom_site_label
 _atom_site_symmetry_multiplicity
 _atom_site_fract_x
 _atom_site_fract_y
 _atom_site_fract_z
 _atom_site_occupancy
  Sc  Sc0  1  0.10597913  0.08847799  0.34287555  1
  Sc  Sc1  1  0.22453670  0.20058164  0.09731290  1
  Sc  Sc2  1  0.87089675  0.21368417  0.60051676  1
  Sc  Sc3  1  0.22684358  0.20584520  0.60139493  1
  Sc  Sc4  1  0.11420523  0.43355937  0.34984755  1
  Sc  Sc5  1  0.23099367  0.54605326  0.08920688  1
  Sc  Sc6  1  0.55779965  0.52735395  0.09936347  1
  Sc  Sc7  1  0.10941910  0.43102976  0.84953424  1
  Sc  Sc8  1  0.22826450  0.54639166  0.59492934  1
  Sc  Sc9  1  0.77856735  0.42633190  0.34481402  1
  Sc  Sc10  1  0.78213176  0.76527950  0.85013256  1
  Sc  Sc11  1  0.55129661  0.87691261  0.09956775  1
  Sc  Sc12  1  0.21891079  0.86643225  0.59556536  1
  Sc  Sc13  1  0.78030881  0.76588618  0.34515997  1
  Sc  Sc14  1  0.44220008  0.74955596  0.84913784  1
  Sc  Sc15  1  0.55411152  0.86723367  0.59958539  1
  Al  Al16  1  0.77460607  0.09045648  0.82906073  1
  Al  Al17  1  0.44979213  0.09425757  0.37231013  1
  Al  Al18  1  0.56408560  0.19845720  0.12709571  1
  Al  Al19  1  0.10565139  0.09555412  0.82753865  1
  Al  Al20  1  0.78143535  0.09018047  0.32673778  1
  Al  Al21  1  0.89036345  0.19541391  0.07192248  1
  Al  Al22  1  0.45072581  0.09978781  0.87015662  1
  Al  Al23  1  0.56553890  0.19648910  0.60981975  1
  Al  Al24  1  0.77921044  0.42088288  0.87544971  1
  Al  Al25  1  0.88006026  0.54218050  0.62332105  1
  Al  Al26  1  0.44787382  0.42271586  0.33904415  1
  Al  Al27  1  0.89368145  0.53821797  0.11183797  1
  Al  Al28  1  0.46227708  0.41804425  0.81708061  1
  Al  Al29  1  0.55867419  0.53851862  0.56596888  1
  Al  Al30  1  0.11194003  0.76880522  0.32142185  1
  Al  Al31  1  0.20205130  0.88282335  0.06688789  1
  Al  Al32  1  0.88780468  0.87438780  0.57254439  1
  Al  Al33  1  0.42724750  0.76469618  0.31843919  1
  Al  Al34  1  0.10012420  0.77406375  0.82855571  1
  Al  Al35  1  0.89159758  0.88096678  0.07874836  1
  N  N36  1  0.23921338  0.19695251  0.34473216  1
  N  N37  1  0.09696950  0.08865593  0.10619376  1
  N  N38  1  0.88535256  0.20341397  0.85657779  1
  N  N39  1  0.77282560  0.07654383  0.62253049  1
  N  N40  1  0.56421340  0.19392211  0.34372475  1
  N  N41  1  0.45726422  0.10447520  0.07833667  1
  N  N42  1  0.23051169  0.19032801  0.84829505  1
  N  N43  1  0.10441964  0.09843442  0.61264012  1
  N  N44  1  0.87534475  0.19717206  0.36923292  1
  N  N45  1  0.77858905  0.09493255  0.11463373  1
  N  N46  1  0.55536898  0.20556023  0.83135066  1
  N  N47  1  0.45673907  0.09989161  0.57914443  1
  N  N48  1  0.23127869  0.55341714  0.35353265  1
  N  N49  1  0.10315223  0.43760296  0.08805628  1
  N  N50  1  0.87569630  0.52984729  0.83522076  1
  N  N51  1  0.76683734  0.45115978  0.58027065  1
  N  N52  1  0.53795307  0.55078200  0.35044955  1
  N  N53  1  0.45623679  0.40366954  0.12937364  1
  N  N54  1  0.24148096  0.54898623  0.84793107  1
  N  N55  1  0.09406538  0.44208936  0.59865518  1
  N  N56  1  0.89103256  0.54108546  0.31809328  1
  N  N57  1  0.80043054  0.41261558  0.09147628  1
  N  N58  1  0.57101472  0.51050538  0.86966145  1
  N  N59  1  0.47457004  0.41205838  0.60014439  1
  N  N60  1  0.22677022  0.85710590  0.36698326  1
  N  N61  1  0.09859798  0.78261501  0.11625604  1
  N  N62  1  0.89572981  0.88582542  0.87634998  1
  N  N63  1  0.79189694  0.75511372  0.59689653  1
  N  N64  1  0.53548980  0.87621823  0.34404205  1
  N  N65  1  0.41448389  0.77056856  0.10215797  1
  N  N66  1  0.20019062  0.88502180  0.85775124  1
  N  N67  1  0.08552011  0.77188873  0.62686567  1
  N  N68  1  0.90199353  0.88106392  0.36561174  1
  N  N69  1  0.79214851  0.75873704  0.09628907  1
  N  N70  1  0.54678599  0.88663270  0.84816843  1
  N  N71  1  0.44955720  0.73686481  0.62143462  1
