# generated using pymatgen
data_Sc4Al5N9
_symmetry_space_group_name_H-M   'P 1'
_cell_length_a   10.35665301
_cell_length_b   10.31334489
_cell_length_c   9.50246950
_cell_angle_alpha   90.08970004
_cell_angle_beta   89.86210617
_cell_angle_gamma   60.04306026
_symmetry_Int_Tables_number   1
_chemical_formula_structural   Sc4Al5N9
_chemical_formula_sum   'Sc16 Al20 N36'
_cell_volume   879.36846753
_cell_formula_units_Z   4
loop_
 _symmetry_equiv_pos_site_id
 _symmetry_equiv_pos_as_xyz
  1  'x, y, z'
loop_
 _atom_site_type_symbol
 _atom_site_label
 _atom_site_symmetry_multiplicity
 _atom_site_fract_x
 _atom_site_fract_y
 _atom_site_fract_z
 _atom_site_occupancy
  Sc  Sc0  1  0.10409653  0.08893031  0.34144523  1
  Sc  Sc1  1  0.22510001  0.19884994  0.09046369  1
  Sc  Sc2  1  0.86895541  0.21461489  0.60111999  1
  Sc  Sc3  1  0.22732805  0.20579857  0.59235732  1
  Sc  Sc4  1  0.11543758  0.43390053  0.34932458  1
  Sc  Sc5  1  0.23141391  0.54612740  0.08731172  1
  Sc  Sc6  1  0.55858774  0.52730452  0.10081572  1
  Sc  Sc7  1  0.11012708  0.43034385  0.84797931  1
  Sc  Sc8  1  0.23101186  0.54470624  0.59577965  1
  Sc  Sc9  1  0.77815287  0.42669960  0.34650482  1
  Sc  Sc10  1  0.78197406  0.76551881  0.84838942  1
  Sc  Sc11  1  0.55232146  0.87557753  0.09362988  1
  Sc  Sc12  1  0.21869924  0.86663020  0.59486210  1
  Sc  Sc13  1  0.77971312  0.76746358  0.34424925  1
  Sc  Sc14  1  0.44250529  0.74876929  0.84873556  1
  Sc  Sc15  1  0.55224617  0.86891217  0.59177286  1
  Al  Al16  1  0.77441603  0.09012868  0.82834721  1
  Al  Al17  1  0.44983654  0.09686819  0.32450565  1
  Al  Al18  1  0.56410723  0.20064128  0.07364844  1
  Al  Al19  1  0.10576764  0.09569323  0.82469860  1
  Al  Al20  1  0.77570112  0.09429801  0.32064651  1
  Al  Al21  1  0.89102706  0.19470224  0.07097689  1
  Al  Al22  1  0.45033887  0.09802250  0.82553281  1
  Al  Al23  1  0.56691192  0.19689222  0.57324129  1
  Al  Al24  1  0.78044391  0.42101075  0.87973170  1
  Al  Al25  1  0.87978313  0.54258185  0.62390701  1
  Al  Al26  1  0.44888076  0.41887558  0.33093364  1
  Al  Al27  1  0.89499786  0.53829124  0.11523918  1
  Al  Al28  1  0.46636891  0.41456967  0.81843116  1
  Al  Al29  1  0.55803887  0.53746321  0.56571116  1
  Al  Al30  1  0.11134445  0.76920595  0.32234829  1
  Al  Al31  1  0.20142798  0.88264162  0.06662919  1
  Al  Al32  1  0.88591120  0.87675315  0.57239396  1
  Al  Al33  1  0.42642381  0.76488976  0.31789407  1
  Al  Al34  1  0.10056938  0.77355020  0.82700672  1
  Al  Al35  1  0.89183477  0.88051107  0.07790848  1
  N  N36  1  0.23894977  0.19641595  0.35336561  1
  N  N37  1  0.09664457  0.08829618  0.11087946  1
  N  N38  1  0.88575528  0.20309713  0.85885814  1
  N  N39  1  0.76762072  0.07891895  0.62996903  1
  N  N40  1  0.56197683  0.19711773  0.37273372  1
  N  N41  1  0.45830205  0.10300471  0.12227338  1
  N  N42  1  0.23055099  0.18921271  0.85321059  1
  N  N43  1  0.10362568  0.09925582  0.61650437  1
  N  N44  1  0.87284427  0.19693596  0.37327015  1
  N  N45  1  0.77675575  0.09599380  0.11723706  1
  N  N46  1  0.55845417  0.20375047  0.87288927  1
  N  N47  1  0.45695919  0.10383006  0.62410224  1
  N  N48  1  0.23360265  0.55224044  0.35614184  1
  N  N49  1  0.10427484  0.43686752  0.08759888  1
  N  N50  1  0.87585548  0.52939382  0.83228809  1
  N  N51  1  0.76666546  0.45228913  0.57751685  1
  N  N52  1  0.53642977  0.54918496  0.35238519  1
  N  N53  1  0.45855102  0.39984393  0.13173638  1
  N  N54  1  0.24222701  0.54858091  0.84999194  1
  N  N55  1  0.09458262  0.44279136  0.59891451  1
  N  N56  1  0.89171016  0.54143159  0.31780829  1
  N  N57  1  0.80206904  0.41272856  0.09270804  1
  N  N58  1  0.57197233  0.50990372  0.87559603  1
  N  N59  1  0.47874259  0.40879713  0.61419763  1
  N  N60  1  0.22645117  0.85712453  0.37052021  1
  N  N61  1  0.09814789  0.78277512  0.12052271  1
  N  N62  1  0.89681017  0.88538047  0.87896623  1
  N  N63  1  0.79015557  0.75675656  0.59739048  1
  N  N64  1  0.53476145  0.87651316  0.34928970  1
  N  N65  1  0.41366071  0.77059484  0.10537922  1
  N  N66  1  0.19983176  0.88499974  0.86050671  1
  N  N67  1  0.08471412  0.77201829  0.62868767  1
  N  N68  1  0.89989660  0.88412767  0.36874725  1
  N  N69  1  0.79326933  0.75810416  0.09671241  1
  N  N70  1  0.54637096  0.88655085  0.85688133  1
  N  N71  1  0.45007381  0.73631334  0.62483538  1
