# generated using pymatgen
data_Sc4Al5N9
_symmetry_space_group_name_H-M   'P 1'
_cell_length_a   10.18679500
_cell_length_b   10.14982881
_cell_length_c   9.95717467
_cell_angle_alpha   89.92981006
_cell_angle_beta   89.90489485
_cell_angle_gamma   60.03538180
_symmetry_Int_Tables_number   1
_chemical_formula_structural   Sc4Al5N9
_chemical_formula_sum   'Sc16 Al20 N36'
_cell_volume   891.90197637
_cell_formula_units_Z   4
loop_
 _symmetry_equiv_pos_site_id
 _symmetry_equiv_pos_as_xyz
  1  'x, y, z'
loop_
 _atom_site_type_symbol
 _atom_site_label
 _atom_site_symmetry_multiplicity
 _atom_site_fract_x
 _atom_site_fract_y
 _atom_site_fract_z
 _atom_site_occupancy
  Sc  Sc0  1  0.10465422  0.08961638  0.31515478  1
  Sc  Sc1  1  0.22712594  0.19690084  0.06567281  1
  Sc  Sc2  1  0.87605219  0.20479450  0.58458002  1
  Sc  Sc3  1  0.22506232  0.20858051  0.57091491  1
  Sc  Sc4  1  0.11489974  0.43269866  0.31031737  1
  Sc  Sc5  1  0.23129488  0.54760481  0.06460046  1
  Sc  Sc6  1  0.56638390  0.52458644  0.07597334  1
  Sc  Sc7  1  0.10844937  0.43059201  0.82597726  1
  Sc  Sc8  1  0.22813446  0.54312214  0.57680642  1
  Sc  Sc9  1  0.77870951  0.42348921  0.32665033  1
  Sc  Sc10  1  0.78056028  0.76598646  0.81799970  1
  Sc  Sc11  1  0.55619462  0.87434053  0.07586995  1
  Sc  Sc12  1  0.21945835  0.86636011  0.57205381  1
  Sc  Sc13  1  0.78234613  0.76505935  0.32003133  1
  Sc  Sc14  1  0.44093763  0.75351922  0.83076099  1
  Sc  Sc15  1  0.55059860  0.87142347  0.56549271  1
  Al  Al16  1  0.77354943  0.09151534  0.81446849  1
  Al  Al17  1  0.44987431  0.09789811  0.30801890  1
  Al  Al18  1  0.56432762  0.20185218  0.06058941  1
  Al  Al19  1  0.10719257  0.09442373  0.81149900  1
  Al  Al20  1  0.77606458  0.09469826  0.30736413  1
  Al  Al21  1  0.88745885  0.20294620  0.05035171  1
  Al  Al22  1  0.44969657  0.09841169  0.80927690  1
  Al  Al23  1  0.56497160  0.19865634  0.56020341  1
  Al  Al24  1  0.77247876  0.42834904  0.80605884  1
  Al  Al25  1  0.88553453  0.54502934  0.56286202  1
  Al  Al26  1  0.44831675  0.42165259  0.31498071  1
  Al  Al27  1  0.88889414  0.53420953  0.05550785  1
  Al  Al28  1  0.46243587  0.41606036  0.80532762  1
  Al  Al29  1  0.55675279  0.53677987  0.55714442  1
  Al  Al30  1  0.11177777  0.76773267  0.30781874  1
  Al  Al31  1  0.20228840  0.88104414  0.05394288  1
  Al  Al32  1  0.88491356  0.87681870  0.55801406  1
  Al  Al33  1  0.42971389  0.76200852  0.30232029  1
  Al  Al34  1  0.10086393  0.77447064  0.81113220  1
  Al  Al35  1  0.89180539  0.87933188  0.06262041  1
  N  N36  1  0.23868256  0.19691752  0.34863398  1
  N  N37  1  0.09550257  0.08934912  0.09977900  1
  N  N38  1  0.88363995  0.20715270  0.84889691  1
  N  N39  1  0.76602538  0.07783773  0.62492446  1
  N  N40  1  0.56095401  0.19946726  0.36711369  1
  N  N41  1  0.45885413  0.10397863  0.11833475  1
  N  N42  1  0.23185143  0.18830931  0.84816046  1
  N  N43  1  0.10922694  0.09554053  0.61787626  1
  N  N44  1  0.87553120  0.19428914  0.37313040  1
  N  N45  1  0.77777325  0.09687357  0.11160334  1
  N  N46  1  0.55688525  0.20470830  0.86762107  1
  N  N47  1  0.45545373  0.10459802  0.61871209  1
  N  N48  1  0.23223429  0.55067026  0.35228979  1
  N  N49  1  0.10182155  0.43744997  0.08685653  1
  N  N50  1  0.87266971  0.53190761  0.86474070  1
  N  N51  1  0.76722066  0.44956711  0.60793343  1
  N  N52  1  0.53815837  0.54807328  0.35637742  1
  N  N53  1  0.45905449  0.40295565  0.12528099  1
  N  N54  1  0.23985307  0.55035004  0.84394222  1
  N  N55  1  0.09410551  0.44200485  0.60958143  1
  N  N56  1  0.89263156  0.53848891  0.37263094  1
  N  N57  1  0.80445707  0.41078326  0.11274900  1
  N  N58  1  0.57038875  0.51150851  0.86485689  1
  N  N59  1  0.47585284  0.40938889  0.61204325  1
  N  N60  1  0.22769551  0.85728879  0.35946923  1
  N  N61  1  0.09792101  0.78229888  0.11639872  1
  N  N62  1  0.89598937  0.88466090  0.87320520  1
  N  N63  1  0.78757113  0.75942628  0.59550829  1
  N  N64  1  0.53625333  0.87661974  0.34050211  1
  N  N65  1  0.41661447  0.76832614  0.10126801  1
  N  N66  1  0.19950556  0.88446909  0.85901318  1
  N  N67  1  0.08421143  0.77360000  0.62285993  1
  N  N68  1  0.90013013  0.88395680  0.36488299  1
  N  N69  1  0.79859811  0.75146141  0.10022282  1
  N  N70  1  0.54675453  0.88903115  0.85636780  1
  N  N71  1  0.45059944  0.73852123  0.61817179  1
