# generated using pymatgen
data_Sc4Al5N9
_symmetry_space_group_name_H-M   'P 1'
_cell_length_a   10.34093722
_cell_length_b   10.30167087
_cell_length_c   9.54902607
_cell_angle_alpha   90.00307226
_cell_angle_beta   90.08520708
_cell_angle_gamma   60.20570932
_symmetry_Int_Tables_number   1
_chemical_formula_structural   Sc4Al5N9
_chemical_formula_sum   'Sc16 Al20 N36'
_cell_volume   882.78139849
_cell_formula_units_Z   4
loop_
 _symmetry_equiv_pos_site_id
 _symmetry_equiv_pos_as_xyz
  1  'x, y, z'
loop_
 _atom_site_type_symbol
 _atom_site_label
 _atom_site_symmetry_multiplicity
 _atom_site_fract_x
 _atom_site_fract_y
 _atom_site_fract_z
 _atom_site_occupancy
  Sc  Sc0  1  0.11099494  0.08867152  0.34448563  1
  Sc  Sc1  1  0.22826881  0.20356073  0.10155389  1
  Sc  Sc2  1  0.87972120  0.20776155  0.60757455  1
  Sc  Sc3  1  0.22617666  0.20231733  0.61164052  1
  Sc  Sc4  1  0.11446907  0.43219100  0.35845782  1
  Sc  Sc5  1  0.22971721  0.54469126  0.09664617  1
  Sc  Sc6  1  0.55892641  0.52892036  0.09447923  1
  Sc  Sc7  1  0.10795577  0.43206696  0.85309743  1
  Sc  Sc8  1  0.23309046  0.54339985  0.60341713  1
  Sc  Sc9  1  0.76498366  0.43634262  0.35642935  1
  Sc  Sc10  1  0.78146827  0.76388218  0.85285496  1
  Sc  Sc11  1  0.55263043  0.87823534  0.10127850  1
  Sc  Sc12  1  0.22085950  0.86739738  0.58962523  1
  Sc  Sc13  1  0.78074278  0.76480498  0.34704025  1
  Sc  Sc14  1  0.43641282  0.75926659  0.85008674  1
  Sc  Sc15  1  0.55342665  0.86733605  0.59812045  1
  Al  Al16  1  0.77648304  0.09933440  0.87675151  1
  Al  Al17  1  0.44890975  0.09912252  0.37186682  1
  Al  Al18  1  0.56497409  0.20077945  0.12777338  1
  Al  Al19  1  0.09675293  0.10024849  0.87658181  1
  Al  Al20  1  0.77234930  0.09201049  0.37251505  1
  Al  Al21  1  0.88142755  0.20093150  0.12725704  1
  Al  Al22  1  0.45247784  0.09802952  0.87140793  1
  Al  Al23  1  0.56487136  0.19961654  0.62135811  1
  Al  Al24  1  0.78776184  0.41241242  0.87980037  1
  Al  Al25  1  0.88145211  0.53996085  0.62609637  1
  Al  Al26  1  0.45410490  0.42683708  0.37461723  1
  Al  Al27  1  0.89308950  0.53653657  0.11706650  1
  Al  Al28  1  0.45815478  0.40958847  0.87100854  1
  Al  Al29  1  0.56831868  0.52497427  0.63735470  1
  Al  Al30  1  0.11293650  0.76742812  0.31763471  1
  Al  Al31  1  0.20258367  0.87976529  0.06661149  1
  Al  Al32  1  0.88636102  0.87235640  0.58076050  1
  Al  Al33  1  0.42915161  0.76101188  0.31056375  1
  Al  Al34  1  0.09957737  0.77520075  0.82446465  1
  Al  Al35  1  0.89032496  0.87979925  0.08347018  1
  N  N36  1  0.24210287  0.19852643  0.33236263  1
  N  N37  1  0.09406960  0.09221092  0.09068466  1
  N  N38  1  0.88693840  0.20388316  0.83594683  1
  N  N39  1  0.76830783  0.08209952  0.57528047  1
  N  N40  1  0.55881474  0.20364664  0.32666058  1
  N  N41  1  0.45999965  0.10511386  0.07115459  1
  N  N42  1  0.22852712  0.18865184  0.84815248  1
  N  N43  1  0.10638810  0.09802647  0.57107125  1
  N  N44  1  0.87092629  0.20015248  0.33146031  1
  N  N45  1  0.77349077  0.09916077  0.08020014  1
  N  N46  1  0.56142076  0.20037211  0.82119791  1
  N  N47  1  0.45611794  0.10339194  0.57224803  1
  N  N48  1  0.23623124  0.54878912  0.34797256  1
  N  N49  1  0.10056277  0.43909285  0.08460163  1
  N  N50  1  0.87597293  0.52809153  0.82962143  1
  N  N51  1  0.76841527  0.44689096  0.57994712  1
  N  N52  1  0.53455601  0.54928647  0.31730295  1
  N  N53  1  0.45924813  0.39934512  0.06993892  1
  N  N54  1  0.23816915  0.55052907  0.84567067  1
  N  N55  1  0.09597755  0.44025911  0.59819795  1
  N  N56  1  0.89019216  0.53838430  0.31686493  1
  N  N57  1  0.79984248  0.41347364  0.08466560  1
  N  N58  1  0.57495428  0.50775031  0.84618571  1
  N  N59  1  0.47801016  0.41011140  0.57682771  1
  N  N60  1  0.22981285  0.85424094  0.36085331  1
  N  N61  1  0.09861139  0.78163856  0.11461038  1
  N  N62  1  0.89433924  0.88577760  0.86778576  1
  N  N63  1  0.79156237  0.75346543  0.59464740  1
  N  N64  1  0.53530708  0.87725372  0.34041570  1
  N  N65  1  0.41480675  0.77401780  0.09363635  1
  N  N66  1  0.19630651  0.88852732  0.85812702  1
  N  N67  1  0.08698000  0.77254214  0.62428064  1
  N  N68  1  0.90172793  0.87914516  0.35214371  1
  N  N69  1  0.79248298  0.75627507  0.09348157  1
  N  N70  1  0.54669981  0.88822205  0.84379761  1
  N  N71  1  0.45107216  0.73439511  0.62624233  1
