# generated using pymatgen
data_Sc4Al5N9
_symmetry_space_group_name_H-M   'P 1'
_cell_length_a   10.33847772
_cell_length_b   10.29940205
_cell_length_c   9.55795587
_cell_angle_alpha   89.98385803
_cell_angle_beta   90.05859879
_cell_angle_gamma   60.21017653
_symmetry_Int_Tables_number   1
_chemical_formula_structural   Sc4Al5N9
_chemical_formula_sum   'Sc16 Al20 N36'
_cell_volume   883.24206720
_cell_formula_units_Z   4
loop_
 _symmetry_equiv_pos_site_id
 _symmetry_equiv_pos_as_xyz
  1  'x, y, z'
loop_
 _atom_site_type_symbol
 _atom_site_label
 _atom_site_symmetry_multiplicity
 _atom_site_fract_x
 _atom_site_fract_y
 _atom_site_fract_z
 _atom_site_occupancy
  Sc  Sc0  1  0.11107844  0.08862575  0.34462310  1
  Sc  Sc1  1  0.22823179  0.20361345  0.10164670  1
  Sc  Sc2  1  0.87974991  0.20765544  0.60789934  1
  Sc  Sc3  1  0.22617831  0.20227996  0.61184317  1
  Sc  Sc4  1  0.11449155  0.43215029  0.35867159  1
  Sc  Sc5  1  0.22950813  0.54496228  0.09676641  1
  Sc  Sc6  1  0.55893291  0.52888358  0.09456146  1
  Sc  Sc7  1  0.10793503  0.43211239  0.85318431  1
  Sc  Sc8  1  0.23304857  0.54343472  0.60358636  1
  Sc  Sc9  1  0.76496356  0.43621005  0.35659250  1
  Sc  Sc10  1  0.78158203  0.76413766  0.85144420  1
  Sc  Sc11  1  0.55267174  0.87821262  0.10083221  1
  Sc  Sc12  1  0.22090651  0.86734237  0.58963509  1
  Sc  Sc13  1  0.78047010  0.76456385  0.34593077  1
  Sc  Sc14  1  0.43635700  0.75924512  0.85007096  1
  Sc  Sc15  1  0.55358198  0.86726801  0.59784407  1
  Al  Al16  1  0.77637482  0.09954001  0.87667112  1
  Al  Al17  1  0.44885401  0.09913262  0.37194009  1
  Al  Al18  1  0.56490961  0.20079796  0.12787143  1
  Al  Al19  1  0.09679744  0.10018591  0.87683452  1
  Al  Al20  1  0.77199329  0.09258331  0.37275657  1
  Al  Al21  1  0.88145735  0.20087978  0.12731765  1
  Al  Al22  1  0.45240504  0.09806674  0.87151382  1
  Al  Al23  1  0.56492630  0.19957403  0.62156845  1
  Al  Al24  1  0.78774329  0.41247587  0.87987954  1
  Al  Al25  1  0.88140625  0.54002293  0.62599924  1
  Al  Al26  1  0.45401358  0.42691136  0.37481816  1
  Al  Al27  1  0.89312877  0.53652507  0.11697807  1
  Al  Al28  1  0.45802952  0.40967970  0.87121090  1
  Al  Al29  1  0.56831727  0.52494413  0.63748627  1
  Al  Al30  1  0.11293980  0.76735725  0.31807662  1
  Al  Al31  1  0.20236745  0.87970859  0.06674501  1
  Al  Al32  1  0.88747583  0.87175869  0.57448523  1
  Al  Al33  1  0.42911073  0.76103215  0.31042355  1
  Al  Al34  1  0.09919139  0.77547261  0.82383179  1
  Al  Al35  1  0.89074981  0.87955488  0.07959507  1
  N  N36  1  0.24211605  0.19855268  0.33223531  1
  N  N37  1  0.09409292  0.09219479  0.09069064  1
  N  N38  1  0.88698515  0.20388304  0.83606154  1
  N  N39  1  0.76822354  0.08236327  0.57562446  1
  N  N40  1  0.55872182  0.20368907  0.32660833  1
  N  N41  1  0.45996104  0.10512667  0.07108079  1
  N  N42  1  0.22852799  0.18863386  0.84816776  1
  N  N43  1  0.10643768  0.09798875  0.57098659  1
  N  N44  1  0.87103333  0.20001731  0.33126967  1
  N  N45  1  0.77341222  0.09916300  0.08052484  1
  N  N46  1  0.56132302  0.20043019  0.82128352  1
  N  N47  1  0.45609293  0.10341405  0.57215145  1
  N  N48  1  0.23627054  0.54872392  0.34818327  1
  N  N49  1  0.10057972  0.43915639  0.08447241  1
  N  N50  1  0.87588783  0.52825802  0.82952119  1
  N  N51  1  0.76841645  0.44683549  0.57990950  1
  N  N52  1  0.53457782  0.54925055  0.31722855  1
  N  N53  1  0.45907553  0.39942359  0.06996374  1
  N  N54  1  0.23804100  0.55069959  0.84583037  1
  N  N55  1  0.09598818  0.44021701  0.59818409  1
  N  N56  1  0.89022703  0.53816310  0.31666999  1
  N  N57  1  0.79987202  0.41348286  0.08453741  1
  N  N58  1  0.57495285  0.50771401  0.84622001  1
  N  N59  1  0.47793714  0.41016788  0.57685821  1
  N  N60  1  0.22990002  0.85417022  0.36117576  1
  N  N61  1  0.09797632  0.78212674  0.11606320  1
  N  N62  1  0.89490209  0.88559086  0.87028606  1
  N  N63  1  0.79160827  0.75348814  0.59457131  1
  N  N64  1  0.53524142  0.87725495  0.34022145  1
  N  N65  1  0.41468033  0.77398762  0.09365633  1
  N  N66  1  0.19618075  0.88842511  0.85841274  1
  N  N67  1  0.08673822  0.77265855  0.62469334  1
  N  N68  1  0.90245082  0.87830912  0.35743569  1
  N  N69  1  0.79264778  0.75645041  0.09375327  1
  N  N70  1  0.54680154  0.88820510  0.84386144  1
  N  N71  1  0.45109223  0.73441385  0.62645776  1
