# generated using pymatgen
data_Sc4Al5N9
_symmetry_space_group_name_H-M   'P 1'
_cell_length_a   10.18516192
_cell_length_b   10.14805008
_cell_length_c   9.96231959
_cell_angle_alpha   89.92902711
_cell_angle_beta   89.90510835
_cell_angle_gamma   60.03342584
_symmetry_Int_Tables_number   1
_chemical_formula_structural   Sc4Al5N9
_chemical_formula_sum   'Sc16 Al20 N36'
_cell_volume   892.04585043
_cell_formula_units_Z   4
loop_
 _symmetry_equiv_pos_site_id
 _symmetry_equiv_pos_as_xyz
  1  'x, y, z'
loop_
 _atom_site_type_symbol
 _atom_site_label
 _atom_site_symmetry_multiplicity
 _atom_site_fract_x
 _atom_site_fract_y
 _atom_site_fract_z
 _atom_site_occupancy
  Sc  Sc0  1  0.10465969  0.08969546  0.30613869  1
  Sc  Sc1  1  0.22716794  0.19690698  0.05664956  1
  Sc  Sc2  1  0.87605583  0.20487255  0.57563491  1
  Sc  Sc3  1  0.22501907  0.20863269  0.56201781  1
  Sc  Sc4  1  0.11491670  0.43269912  0.30130357  1
  Sc  Sc5  1  0.23128227  0.54764212  0.05562961  1
  Sc  Sc6  1  0.56635027  0.52467736  0.06695386  1
  Sc  Sc7  1  0.10842282  0.43064423  0.81705932  1
  Sc  Sc8  1  0.22808126  0.54315582  0.56786893  1
  Sc  Sc9  1  0.77866040  0.42356510  0.31765382  1
  Sc  Sc10  1  0.78054004  0.76607237  0.80895817  1
  Sc  Sc11  1  0.55626319  0.87436482  0.06697256  1
  Sc  Sc12  1  0.21942309  0.86643241  0.56302864  1
  Sc  Sc13  1  0.78239974  0.76507454  0.31114199  1
  Sc  Sc14  1  0.44092796  0.75365368  0.82175858  1
  Sc  Sc15  1  0.55058201  0.87151254  0.55644247  1
  Al  Al16  1  0.77355341  0.09159347  0.80558067  1
  Al  Al17  1  0.44987067  0.09796274  0.29912193  1
  Al  Al18  1  0.56432420  0.20191539  0.05171961  1
  Al  Al19  1  0.10718022  0.09444154  0.80264406  1
  Al  Al20  1  0.77606634  0.09475266  0.29849722  1
  Al  Al21  1  0.88744850  0.20299699  0.04146468  1
  Al  Al22  1  0.44970300  0.09846283  0.80037714  1
  Al  Al23  1  0.56494336  0.19873429  0.55133508  1
  Al  Al24  1  0.77247080  0.42840990  0.79719009  1
  Al  Al25  1  0.88552499  0.54504876  0.55395586  1
  Al  Al26  1  0.44829663  0.42174053  0.30609310  1
  Al  Al27  1  0.88888596  0.53429537  0.04659363  1
  Al  Al28  1  0.46238028  0.41614464  0.79642922  1
  Al  Al29  1  0.55674116  0.53684369  0.54829565  1
  Al  Al30  1  0.11178177  0.76776251  0.29891240  1
  Al  Al31  1  0.20233015  0.88105624  0.04509768  1
  Al  Al32  1  0.88492208  0.87688265  0.54913193  1
  Al  Al33  1  0.42974607  0.76204359  0.29343658  1
  Al  Al34  1  0.10088864  0.77452155  0.80224752  1
  Al  Al35  1  0.89181006  0.87936116  0.05371747  1
  N  N36  1  0.23869497  0.19694930  0.33989418  1
  N  N37  1  0.09551036  0.08940783  0.09091928  1
  N  N38  1  0.88362644  0.20721317  0.84012095  1
  N  N39  1  0.76602085  0.07791368  0.61611468  1
  N  N40  1  0.56094260  0.19953900  0.35831431  1
  N  N41  1  0.45885463  0.10404206  0.10954926  1
  N  N42  1  0.23185967  0.18833457  0.83932392  1
  N  N43  1  0.10921986  0.09556205  0.60916341  1
  N  N44  1  0.87554816  0.19435883  0.36428669  1
  N  N45  1  0.77777857  0.09691417  0.10280844  1
  N  N46  1  0.55687057  0.20478261  0.85881694  1
  N  N47  1  0.45543997  0.10465538  0.60991479  1
  N  N48  1  0.23219870  0.55070184  0.34350970  1
  N  N49  1  0.10183519  0.43745594  0.07799955  1
  N  N50  1  0.87261628  0.53202390  0.85594653  1
  N  N51  1  0.76720108  0.44963684  0.59919333  1
  N  N52  1  0.53813315  0.54813338  0.34765572  1
  N  N53  1  0.45904327  0.40304408  0.11648056  1
  N  N54  1  0.23982149  0.55040150  0.83513030  1
  N  N55  1  0.09405707  0.44204865  0.60084820  1
  N  N56  1  0.89267268  0.53845979  0.36383802  1
  N  N57  1  0.80441895  0.41087409  0.10387825  1
  N  N58  1  0.57032624  0.51162574  0.85596790  1
  N  N59  1  0.47580045  0.40947201  0.60325129  1
  N  N60  1  0.22768544  0.85736235  0.35057354  1
  N  N61  1  0.09793133  0.78232409  0.10759440  1
  N  N62  1  0.89598576  0.88470538  0.86438470  1
  N  N63  1  0.78755815  0.75948289  0.58662232  1
  N  N64  1  0.53628856  0.87666680  0.33165994  1
  N  N65  1  0.41665027  0.76838438  0.09252850  1
  N  N66  1  0.19952185  0.88449462  0.85029199  1
  N  N67  1  0.08421930  0.77366222  0.61407077  1
  N  N68  1  0.90015298  0.88401190  0.35610386  1
  N  N69  1  0.79866464  0.75148285  0.09150106  1
  N  N70  1  0.54678227  0.88910748  0.84763091  1
  N  N71  1  0.45056775  0.73865167  0.60929566  1
