# generated using pymatgen
data_Sc4Al5N9
_symmetry_space_group_name_H-M   'P 1'
_cell_length_a   10.36685587
_cell_length_b   10.32439800
_cell_length_c   9.49493918
_cell_angle_alpha   90.23107610
_cell_angle_beta   90.00937028
_cell_angle_gamma   60.03410064
_symmetry_Int_Tables_number   1
_chemical_formula_structural   Sc4Al5N9
_chemical_formula_sum   'Sc16 Al20 N36'
_cell_volume   880.39835922
_cell_formula_units_Z   4
loop_
 _symmetry_equiv_pos_site_id
 _symmetry_equiv_pos_as_xyz
  1  'x, y, z'
loop_
 _atom_site_type_symbol
 _atom_site_label
 _atom_site_symmetry_multiplicity
 _atom_site_fract_x
 _atom_site_fract_y
 _atom_site_fract_z
 _atom_site_occupancy
  Sc  Sc0  1  0.10416773  0.08865160  0.34268605  1
  Sc  Sc1  1  0.22337562  0.20086594  0.09887558  1
  Sc  Sc2  1  0.86900570  0.21496517  0.60024502  1
  Sc  Sc3  1  0.22674846  0.20593869  0.60174242  1
  Sc  Sc4  1  0.11505423  0.43404220  0.35256840  1
  Sc  Sc5  1  0.23083893  0.54661613  0.08746164  1
  Sc  Sc6  1  0.55872426  0.52740921  0.09992077  1
  Sc  Sc7  1  0.10970202  0.43115949  0.85003826  1
  Sc  Sc8  1  0.23128552  0.54486682  0.59589451  1
  Sc  Sc9  1  0.77836099  0.42662306  0.34572280  1
  Sc  Sc10  1  0.78230749  0.76492244  0.85071324  1
  Sc  Sc11  1  0.55157848  0.87582342  0.10087650  1
  Sc  Sc12  1  0.21890740  0.86611999  0.59447859  1
  Sc  Sc13  1  0.77977786  0.76711198  0.34666658  1
  Sc  Sc14  1  0.44199419  0.74840339  0.84922992  1
  Sc  Sc15  1  0.55398634  0.86682538  0.60065453  1
  Al  Al16  1  0.77466335  0.09011153  0.82635730  1
  Al  Al17  1  0.44871682  0.09450979  0.37013180  1
  Al  Al18  1  0.56556192  0.20212416  0.07257808  1
  Al  Al19  1  0.10532555  0.09545343  0.82466646  1
  Al  Al20  1  0.77628533  0.09443041  0.31885818  1
  Al  Al21  1  0.89153108  0.19465970  0.07002592  1
  Al  Al22  1  0.44859329  0.09732391  0.86944007  1
  Al  Al23  1  0.56876524  0.19805747  0.57109549  1
  Al  Al24  1  0.78063787  0.42104223  0.87933993  1
  Al  Al25  1  0.88001228  0.54246103  0.62398277  1
  Al  Al26  1  0.44889266  0.41888025  0.32870299  1
  Al  Al27  1  0.89476803  0.53879459  0.11561211  1
  Al  Al28  1  0.46687491  0.41488563  0.81685189  1
  Al  Al29  1  0.55801114  0.53744333  0.56433035  1
  Al  Al30  1  0.11120954  0.76914456  0.32185504  1
  Al  Al31  1  0.20100573  0.88297532  0.06623120  1
  Al  Al32  1  0.88625860  0.87655684  0.57186562  1
  Al  Al33  1  0.42611670  0.76437896  0.31748166  1
  Al  Al34  1  0.10036335  0.77370923  0.82637756  1
  Al  Al35  1  0.89181247  0.88067898  0.07735543  1
  N  N36  1  0.23811477  0.19708170  0.34632448  1
  N  N37  1  0.09647328  0.08811522  0.11046615  1
  N  N38  1  0.88606070  0.20316619  0.85778601  1
  N  N39  1  0.76823003  0.07874095  0.62804373  1
  N  N40  1  0.56370736  0.19880844  0.36609355  1
  N  N41  1  0.45550517  0.10305087  0.08241681  1
  N  N42  1  0.23006334  0.18990426  0.84886888  1
  N  N43  1  0.10329551  0.09880882  0.61490415  1
  N  N44  1  0.87308817  0.19711228  0.37241353  1
  N  N45  1  0.77732723  0.09605514  0.11544729  1
  N  N46  1  0.56022479  0.20515893  0.86700157  1
  N  N47  1  0.45689346  0.10048787  0.58342010  1
  N  N48  1  0.23370451  0.55206183  0.35518529  1
  N  N49  1  0.10322329  0.43837351  0.08654091  1
  N  N50  1  0.87590594  0.52921347  0.83166295  1
  N  N51  1  0.76661858  0.45254223  0.57655153  1
  N  N52  1  0.53654452  0.54913444  0.35101049  1
  N  N53  1  0.45801709  0.40071523  0.12930196  1
  N  N54  1  0.24231184  0.54880878  0.84913995  1
  N  N55  1  0.09483638  0.44278416  0.59850065  1
  N  N56  1  0.89177985  0.54148243  0.31754371  1
  N  N57  1  0.80229728  0.41267981  0.09209018  1
  N  N58  1  0.57243716  0.50989602  0.87482867  1
  N  N59  1  0.47875993  0.40893359  0.61231835  1
  N  N60  1  0.22660718  0.85674617  0.37000756  1
  N  N61  1  0.09792476  0.78309050  0.11990539  1
  N  N62  1  0.89661646  0.88555226  0.87799809  1
  N  N63  1  0.79156668  0.75594648  0.59677655  1
  N  N64  1  0.53503338  0.87591953  0.34501755  1
  N  N65  1  0.41341630  0.77039945  0.10412928  1
  N  N66  1  0.19941519  0.88528399  0.85992913  1
  N  N67  1  0.08485717  0.77196504  0.62792361  1
  N  N68  1  0.89979968  0.88424115  0.36779836  1
  N  N69  1  0.79270614  0.75864958  0.09632127  1
  N  N70  1  0.54692387  0.88515855  0.84916655  1
  N  N71  1  0.44944590  0.73516203  0.62458702  1
