# generated using pymatgen
data_Sc4Al5N9
_symmetry_space_group_name_H-M   'P 1'
_cell_length_a   10.35220133
_cell_length_b   10.31301759
_cell_length_c   9.51756752
_cell_angle_alpha   89.98125938
_cell_angle_beta   89.97406506
_cell_angle_gamma   60.20914100
_symmetry_Int_Tables_number   1
_chemical_formula_structural   Sc4Al5N9
_chemical_formula_sum   'Sc16 Al20 N36'
_cell_volume   881.83314314
_cell_formula_units_Z   4
loop_
 _symmetry_equiv_pos_site_id
 _symmetry_equiv_pos_as_xyz
  1  'x, y, z'
loop_
 _atom_site_type_symbol
 _atom_site_label
 _atom_site_symmetry_multiplicity
 _atom_site_fract_x
 _atom_site_fract_y
 _atom_site_fract_z
 _atom_site_occupancy
  Sc  Sc0  1  0.11329036  0.08774364  0.34444057  1
  Sc  Sc1  1  0.22799277  0.20393296  0.10117872  1
  Sc  Sc2  1  0.88110030  0.20858338  0.60193481  1
  Sc  Sc3  1  0.22703168  0.20202192  0.61137561  1
  Sc  Sc4  1  0.11392078  0.43231904  0.35823235  1
  Sc  Sc5  1  0.22798435  0.54652124  0.09738867  1
  Sc  Sc6  1  0.55856772  0.52822730  0.09418132  1
  Sc  Sc7  1  0.10747837  0.43212444  0.85295851  1
  Sc  Sc8  1  0.23267135  0.54326823  0.60332290  1
  Sc  Sc9  1  0.76453155  0.43802512  0.35521659  1
  Sc  Sc10  1  0.78148135  0.76436285  0.84817821  1
  Sc  Sc11  1  0.55307753  0.87752216  0.09909009  1
  Sc  Sc12  1  0.22149398  0.86673482  0.59033662  1
  Sc  Sc13  1  0.78061629  0.76551638  0.34372758  1
  Sc  Sc14  1  0.43620332  0.75897271  0.85035344  1
  Sc  Sc15  1  0.55390136  0.86639361  0.59628299  1
  Al  Al16  1  0.77750071  0.09615825  0.84526828  1
  Al  Al17  1  0.44903734  0.09849712  0.37096468  1
  Al  Al18  1  0.56477779  0.20022986  0.12648961  1
  Al  Al19  1  0.09688003  0.09962031  0.87589535  1
  Al  Al20  1  0.77423759  0.09185472  0.35219082  1
  Al  Al21  1  0.88243255  0.20042658  0.12518064  1
  Al  Al22  1  0.45144499  0.09797744  0.87157967  1
  Al  Al23  1  0.56320116  0.20034085  0.61962546  1
  Al  Al24  1  0.78750801  0.41189072  0.87909024  1
  Al  Al25  1  0.88107624  0.54048213  0.62535696  1
  Al  Al26  1  0.45345212  0.42733001  0.37466909  1
  Al  Al27  1  0.89280324  0.53755625  0.11518542  1
  Al  Al28  1  0.45682512  0.40990557  0.87189137  1
  Al  Al29  1  0.56807588  0.52483130  0.63723204  1
  Al  Al30  1  0.11204514  0.76793250  0.32074210  1
  Al  Al31  1  0.20165782  0.87938139  0.06799909  1
  Al  Al32  1  0.88831873  0.87263110  0.57154415  1
  Al  Al33  1  0.42922968  0.76051642  0.31010765  1
  Al  Al34  1  0.09984557  0.77465627  0.82309934  1
  Al  Al35  1  0.89009601  0.88227383  0.07276408  1
  N  N36  1  0.24244264  0.19889477  0.33264442  1
  N  N37  1  0.09466702  0.09187851  0.09108567  1
  N  N38  1  0.88765413  0.20404443  0.83543820  1
  N  N39  1  0.77103695  0.08125820  0.59797231  1
  N  N40  1  0.55840374  0.20395063  0.32887417  1
  N  N41  1  0.45953312  0.10453588  0.07232768  1
  N  N42  1  0.22842645  0.18852621  0.84857913  1
  N  N43  1  0.10885995  0.09673342  0.57171722  1
  N  N44  1  0.87349369  0.20135176  0.33543221  1
  N  N45  1  0.77513960  0.09578792  0.09580396  1
  N  N46  1  0.55714703  0.20208604  0.82184910  1
  N  N47  1  0.45670881  0.10211908  0.57171886  1
  N  N48  1  0.23542982  0.54909305  0.34926748  1
  N  N49  1  0.10052199  0.43935010  0.08494681  1
  N  N50  1  0.87527610  0.52868781  0.83056471  1
  N  N51  1  0.76773542  0.44821252  0.57958497  1
  N  N52  1  0.53432413  0.54914450  0.31758186  1
  N  N53  1  0.45772216  0.39964223  0.07166798  1
  N  N54  1  0.23705602  0.55131383  0.84693893  1
  N  N55  1  0.09566805  0.43994333  0.59854187  1
  N  N56  1  0.88987860  0.53962000  0.31620364  1
  N  N57  1  0.79962997  0.41338860  0.08505276  1
  N  N58  1  0.57447681  0.50724934  0.84659408  1
  N  N59  1  0.47723257  0.41062144  0.57714347  1
  N  N60  1  0.23027268  0.85373660  0.36123253  1
  N  N61  1  0.09545120  0.78377147  0.11865408  1
  N  N62  1  0.89575539  0.88547418  0.87038780  1
  N  N63  1  0.79180304  0.75370148  0.59520618  1
  N  N64  1  0.53577510  0.87636593  0.33979335  1
  N  N65  1  0.41438332  0.77336564  0.09367568  1
  N  N66  1  0.19602376  0.88778581  0.85872934  1
  N  N67  1  0.08744546  0.77175815  0.62428854  1
  N  N68  1  0.90238585  0.87983837  0.36666710  1
  N  N69  1  0.79316279  0.75775786  0.09342222  1
  N  N70  1  0.54684482  0.88790183  0.84442454  1
  N  N71  1  0.45134675  0.73404632  0.62635869  1
