# generated using pymatgen
data_Sc4Al5N9
_symmetry_space_group_name_H-M   'P 1'
_cell_length_a   10.27497959
_cell_length_b   10.23048764
_cell_length_c   9.75436923
_cell_angle_alpha   90.11331087
_cell_angle_beta   90.30278534
_cell_angle_gamma   60.23484381
_symmetry_Int_Tables_number   1
_chemical_formula_structural   Sc4Al5N9
_chemical_formula_sum   'Sc16 Al20 N36'
_cell_volume   890.06929007
_cell_formula_units_Z   4
loop_
 _symmetry_equiv_pos_site_id
 _symmetry_equiv_pos_as_xyz
  1  'x, y, z'
loop_
 _atom_site_type_symbol
 _atom_site_label
 _atom_site_symmetry_multiplicity
 _atom_site_fract_x
 _atom_site_fract_y
 _atom_site_fract_z
 _atom_site_occupancy
  Sc  Sc0  1  0.11094508  0.08883768  0.34388514  1
  Sc  Sc1  1  0.22811818  0.20347264  0.10167266  1
  Sc  Sc2  1  0.87920680  0.20830325  0.61158656  1
  Sc  Sc3  1  0.22547835  0.20167645  0.61908762  1
  Sc  Sc4  1  0.11572868  0.42941972  0.36367397  1
  Sc  Sc5  1  0.22994354  0.54296201  0.09793780  1
  Sc  Sc6  1  0.55741671  0.53266791  0.09737966  1
  Sc  Sc7  1  0.10719355  0.43268839  0.85530233  1
  Sc  Sc8  1  0.23429084  0.54163102  0.60512553  1
  Sc  Sc9  1  0.76698496  0.43477326  0.35860122  1
  Sc  Sc10  1  0.77987282  0.76353121  0.86476977  1
  Sc  Sc11  1  0.55224549  0.87627605  0.11141519  1
  Sc  Sc12  1  0.21840750  0.86920585  0.58791314  1
  Sc  Sc13  1  0.78390053  0.76455567  0.36248005  1
  Sc  Sc14  1  0.43664732  0.75978890  0.84764553  1
  Sc  Sc15  1  0.55437224  0.87041470  0.60444950  1
  Al  Al16  1  0.77628480  0.09787391  0.87842346  1
  Al  Al17  1  0.44818083  0.10024691  0.37366128  1
  Al  Al18  1  0.56600999  0.19955726  0.12740446  1
  Al  Al19  1  0.09509076  0.10136000  0.88039331  1
  Al  Al20  1  0.77351390  0.09008799  0.37502265  1
  Al  Al21  1  0.88077519  0.20095016  0.12655149  1
  Al  Al22  1  0.45323550  0.09721724  0.87462147  1
  Al  Al23  1  0.56446923  0.20050575  0.62220065  1
  Al  Al24  1  0.78643980  0.41375068  0.88167652  1
  Al  Al25  1  0.88089975  0.54086886  0.62911521  1
  Al  Al26  1  0.45498309  0.42491826  0.37500513  1
  Al  Al27  1  0.89323219  0.53764621  0.12059084  1
  Al  Al28  1  0.45865050  0.41017149  0.87278634  1
  Al  Al29  1  0.56900556  0.52457822  0.63713464  1
  Al  Al30  1  0.11599470  0.76541248  0.31525474  1
  Al  Al31  1  0.20398597  0.87808078  0.06159213  1
  Al  Al32  1  0.87984534  0.87826989  0.62922469  1
  Al  Al33  1  0.43355320  0.75843922  0.32948919  1
  Al  Al34  1  0.10222607  0.77278535  0.82102212  1
  Al  Al35  1  0.88773119  0.88223037  0.12277546  1
  N  N36  1  0.24323244  0.19732213  0.32482290  1
  N  N37  1  0.09368905  0.09160807  0.08786905  1
  N  N38  1  0.88595683  0.20464224  0.83453715  1
  N  N39  1  0.76849294  0.08046218  0.56981273  1
  N  N40  1  0.55963913  0.20265866  0.32255521  1
  N  N41  1  0.46162903  0.10256195  0.06846792  1
  N  N42  1  0.22820444  0.18808372  0.84817592  1
  N  N43  1  0.10417902  0.10114722  0.56510575  1
  N  N44  1  0.87012315  0.19966130  0.32527147  1
  N  N45  1  0.77540502  0.09534822  0.07385144  1
  N  N46  1  0.56057979  0.20101601  0.81846231  1
  N  N47  1  0.45333748  0.10719876  0.56828226  1
  N  N48  1  0.23670859  0.54684452  0.34426106  1
  N  N49  1  0.09901393  0.43943476  0.07909401  1
  N  N50  1  0.87459740  0.52886049  0.82600002  1
  N  N51  1  0.76882717  0.44695704  0.57690437  1
  N  N52  1  0.53568099  0.54798282  0.31625177  1
  N  N53  1  0.46107257  0.39868398  0.06676460  1
  N  N54  1  0.23854141  0.55014386  0.84330496  1
  N  N55  1  0.09587593  0.43913179  0.59717029  1
  N  N56  1  0.89124176  0.53905677  0.31455577  1
  N  N57  1  0.79925864  0.41482525  0.08172255  1
  N  N58  1  0.57448258  0.50852535  0.84213708  1
  N  N59  1  0.47938754  0.40965310  0.57261274  1
  N  N60  1  0.23073369  0.85313402  0.36384294  1
  N  N61  1  0.10031657  0.78014169  0.11101355  1
  N  N62  1  0.88795691  0.88977482  0.83051460  1
  N  N63  1  0.79275314  0.75344671  0.59164988  1
  N  N64  1  0.53740417  0.87612147  0.34304210  1
  N  N65  1  0.41585710  0.77436952  0.08538281  1
  N  N66  1  0.19468115  0.88936683  0.85672576  1
  N  N67  1  0.08868537  0.77033275  0.62061543  1
  N  N68  1  0.89828034  0.88377162  0.32216850  1
  N  N69  1  0.79257490  0.75717379  0.09048589  1
  N  N70  1  0.54668011  0.88941534  0.83650394  1
  N  N71  1  0.45090765  0.73549761  0.62193491  1
