# generated using pymatgen
data_Sc4Al5N9
_symmetry_space_group_name_H-M   'P 1'
_cell_length_a   10.18525694
_cell_length_b   10.14816213
_cell_length_c   9.96198169
_cell_angle_alpha   89.92903880
_cell_angle_beta   89.90508053
_cell_angle_gamma   60.03366577
_symmetry_Int_Tables_number   1
_chemical_formula_structural   Sc4Al5N9
_chemical_formula_sum   'Sc16 Al20 N36'
_cell_volume   892.03591898
_cell_formula_units_Z   4
loop_
 _symmetry_equiv_pos_site_id
 _symmetry_equiv_pos_as_xyz
  1  'x, y, z'
loop_
 _atom_site_type_symbol
 _atom_site_label
 _atom_site_symmetry_multiplicity
 _atom_site_fract_x
 _atom_site_fract_y
 _atom_site_fract_z
 _atom_site_occupancy
  Sc  Sc0  1  0.10465989  0.08967209  0.30958380  1
  Sc  Sc1  1  0.22716451  0.19689282  0.06009708  1
  Sc  Sc2  1  0.87605827  0.20484893  0.57907850  1
  Sc  Sc3  1  0.22502481  0.20861133  0.56545563  1
  Sc  Sc4  1  0.11491398  0.43268375  0.30475268  1
  Sc  Sc5  1  0.23128489  0.54762166  0.05907736  1
  Sc  Sc6  1  0.56635680  0.52465140  0.07040321  1
  Sc  Sc7  1  0.10842865  0.43062478  0.82049602  1
  Sc  Sc8  1  0.22808890  0.54313843  0.57130620  1
  Sc  Sc9  1  0.77866661  0.42354054  0.32110073  1
  Sc  Sc10  1  0.78054389  0.76604848  0.81240596  1
  Sc  Sc11  1  0.55625847  0.87434513  0.07040584  1
  Sc  Sc12  1  0.21942511  0.86641032  0.56647862  1
  Sc  Sc13  1  0.78239287  0.76505696  0.31458122  1
  Sc  Sc14  1  0.44092888  0.75362224  0.82520661  1
  Sc  Sc15  1  0.55058327  0.87148733  0.55989662  1
  Al  Al16  1  0.77355448  0.09156799  0.80901363  1
  Al  Al17  1  0.44987179  0.09793939  0.30255475  1
  Al  Al18  1  0.56432796  0.20189111  0.05515435  1
  Al  Al19  1  0.10718363  0.09442327  0.80608309  1
  Al  Al20  1  0.77606746  0.09473191  0.30192985  1
  Al  Al21  1  0.88745052  0.20297556  0.04489779  1
  Al  Al22  1  0.44970379  0.09844144  0.80381351  1
  Al  Al23  1  0.56494751  0.19871065  0.55476924  1
  Al  Al24  1  0.77247378  0.42838696  0.80062866  1
  Al  Al25  1  0.88552698  0.54503056  0.55739850  1
  Al  Al26  1  0.44830102  0.42171435  0.30952454  1
  Al  Al27  1  0.88888838  0.53427146  0.05003275  1
  Al  Al28  1  0.46238710  0.41611913  0.79987051  1
  Al  Al29  1  0.55674369  0.53681947  0.55173121  1
  Al  Al30  1  0.11178219  0.76774410  0.30234535  1
  Al  Al31  1  0.20232811  0.88103908  0.04853439  1
  Al  Al32  1  0.88492374  0.87685993  0.55256345  1
  Al  Al33  1  0.42974427  0.76202357  0.29687208  1
  Al  Al34  1  0.10088695  0.77450040  0.80569078  1
  Al  Al35  1  0.89180794  0.87934290  0.05715888  1
  N  N36  1  0.23869478  0.19693027  0.34331668  1
  N  N37  1  0.09551106  0.08938710  0.09435317  1
  N  N38  1  0.88362919  0.20719022  0.84354804  1
  N  N39  1  0.76602373  0.07788901  0.61954316  1
  N  N40  1  0.56094419  0.19951583  0.36174200  1
  N  N41  1  0.45885615  0.10401826  0.11297444  1
  N  N42  1  0.23186066  0.18831766  0.84275765  1
  N  N43  1  0.10922355  0.09554328  0.61259040  1
  N  N44  1  0.87554912  0.19433488  0.36772262  1
  N  N45  1  0.77777961  0.09689446  0.10623806  1
  N  N46  1  0.55687478  0.20475692  0.86224700  1
  N  N47  1  0.45544254  0.10463322  0.61334430  1
  N  N48  1  0.23220397  0.55068284  0.34693242  1
  N  N49  1  0.10183448  0.43744030  0.08143679  1
  N  N50  1  0.87262520  0.53199627  0.85937604  1
  N  N51  1  0.76720423  0.44961390  0.60262146  1
  N  N52  1  0.53813694  0.54811028  0.35107851  1
  N  N53  1  0.45904738  0.40301777  0.11990766  1
  N  N54  1  0.23982684  0.55038069  0.83856576  1
  N  N55  1  0.09406515  0.44202908  0.60426939  1
  N  N56  1  0.89266856  0.53844634  0.36727167  1
  N  N57  1  0.80442580  0.41084809  0.10731494  1
  N  N58  1  0.57033498  0.51159670  0.85940873  1
  N  N59  1  0.47580649  0.40944676  0.60668387  1
  N  N60  1  0.22768682  0.85733936  0.35401209  1
  N  N61  1  0.09793053  0.78230636  0.11102231  1
  N  N62  1  0.89598540  0.88468557  0.86782014  1
  N  N63  1  0.78755993  0.75946213  0.59005907  1
  N  N64  1  0.53628380  0.87664684  0.33509455  1
  N  N65  1  0.41664838  0.76836134  0.09595247  1
  N  N66  1  0.19952127  0.88447646  0.85371919  1
  N  N67  1  0.08421895  0.77364019  0.61750525  1
  N  N68  1  0.90015243  0.88398939  0.35952827  1
  N  N69  1  0.79865763  0.75146426  0.09492493  1
  N  N70  1  0.54678036  0.88908221  0.85105116  1
  N  N71  1  0.45056956  0.73862139  0.61273479  1
