# generated using pymatgen
data_Sc4Al5N9
_symmetry_space_group_name_H-M   'P 1'
_cell_length_a   10.35291854
_cell_length_b   10.31260374
_cell_length_c   9.52255775
_cell_angle_alpha   89.99865815
_cell_angle_beta   89.97742279
_cell_angle_gamma   60.20084117
_symmetry_Int_Tables_number   1
_chemical_formula_structural   Sc4Al5N9
_chemical_formula_sum   'Sc16 Al20 N36'
_cell_volume   882.24805182
_cell_formula_units_Z   4
loop_
 _symmetry_equiv_pos_site_id
 _symmetry_equiv_pos_as_xyz
  1  'x, y, z'
loop_
 _atom_site_type_symbol
 _atom_site_label
 _atom_site_symmetry_multiplicity
 _atom_site_fract_x
 _atom_site_fract_y
 _atom_site_fract_z
 _atom_site_occupancy
  Sc  Sc0  1  0.11358143  0.08768716  0.34455963  1
  Sc  Sc1  1  0.22791282  0.20394390  0.10119733  1
  Sc  Sc2  1  0.88113702  0.20862631  0.60011818  1
  Sc  Sc3  1  0.22708715  0.20198784  0.61154917  1
  Sc  Sc4  1  0.11394085  0.43229573  0.35835357  1
  Sc  Sc5  1  0.22788463  0.54660710  0.09747828  1
  Sc  Sc6  1  0.55853999  0.52831504  0.09420865  1
  Sc  Sc7  1  0.10747391  0.43209898  0.85302366  1
  Sc  Sc8  1  0.23257147  0.54334077  0.60345897  1
  Sc  Sc9  1  0.76439881  0.43837795  0.35529016  1
  Sc  Sc10  1  0.78150819  0.76445196  0.84829053  1
  Sc  Sc11  1  0.55313550  0.87742566  0.09915995  1
  Sc  Sc12  1  0.22145976  0.86665734  0.59040161  1
  Sc  Sc13  1  0.78061030  0.76560816  0.34397024  1
  Sc  Sc14  1  0.43619815  0.75899675  0.85035909  1
  Sc  Sc15  1  0.55396556  0.86630405  0.59637755  1
  Al  Al16  1  0.77833068  0.09411386  0.83133303  1
  Al  Al17  1  0.44903069  0.09855113  0.37110201  1
  Al  Al18  1  0.56373710  0.20062588  0.12631705  1
  Al  Al19  1  0.09668269  0.09962943  0.87578572  1
  Al  Al20  1  0.77539766  0.09097719  0.33720434  1
  Al  Al21  1  0.88302448  0.20081641  0.12448943  1
  Al  Al22  1  0.45136732  0.09804333  0.87167506  1
  Al  Al23  1  0.56280139  0.20051559  0.61917788  1
  Al  Al24  1  0.78748759  0.41168681  0.87895560  1
  Al  Al25  1  0.88105854  0.54057054  0.62546628  1
  Al  Al26  1  0.45347900  0.42724880  0.37483752  1
  Al  Al27  1  0.89282186  0.53766965  0.11525153  1
  Al  Al28  1  0.45684144  0.40987922  0.87201011  1
  Al  Al29  1  0.56808231  0.52485437  0.63737375  1
  Al  Al30  1  0.11196030  0.76800971  0.32096780  1
  Al  Al31  1  0.20162051  0.87931603  0.06798829  1
  Al  Al32  1  0.88806946  0.87339655  0.57117688  1
  Al  Al33  1  0.42919773  0.76051240  0.31011018  1
  Al  Al34  1  0.09971893  0.77475038  0.82328169  1
  Al  Al35  1  0.89002322  0.88255071  0.07248477  1
  N  N36  1  0.24249013  0.19889175  0.33259097  1
  N  N37  1  0.09476644  0.09180498  0.09116574  1
  N  N38  1  0.88746414  0.20385235  0.83598248  1
  N  N39  1  0.77203822  0.08017005  0.60865637  1
  N  N40  1  0.55777370  0.20439812  0.32961518  1
  N  N41  1  0.45939340  0.10443593  0.07236117  1
  N  N42  1  0.22834614  0.18848162  0.84862767  1
  N  N43  1  0.10905503  0.09664384  0.57184953  1
  N  N44  1  0.87404546  0.20188843  0.33692818  1
  N  N45  1  0.77599338  0.09394361  0.10749700  1
  N  N46  1  0.55627718  0.20252650  0.82237436  1
  N  N47  1  0.45678954  0.10197313  0.57168477  1
  N  N48  1  0.23531350  0.54917699  0.34940261  1
  N  N49  1  0.10052263  0.43934378  0.08493201  1
  N  N50  1  0.87520907  0.52873635  0.83060840  1
  N  N51  1  0.76766634  0.44839143  0.57962421  1
  N  N52  1  0.53424025  0.54913635  0.31751906  1
  N  N53  1  0.45773867  0.39975062  0.07172547  1
  N  N54  1  0.23691792  0.55142989  0.84710130  1
  N  N55  1  0.09567873  0.43991294  0.59858578  1
  N  N56  1  0.88991111  0.53974695  0.31615904  1
  N  N57  1  0.79960858  0.41342783  0.08505530  1
  N  N58  1  0.57440333  0.50733602  0.84664676  1
  N  N59  1  0.47727304  0.41067806  0.57721116  1
  N  N60  1  0.23030098  0.85367337  0.36140395  1
  N  N61  1  0.09535301  0.78382361  0.11903211  1
  N  N62  1  0.89551906  0.88618557  0.87173883  1
  N  N63  1  0.79186056  0.75380729  0.59523832  1
  N  N64  1  0.53583738  0.87630007  0.33979284  1
  N  N65  1  0.41433978  0.77340947  0.09371385  1
  N  N66  1  0.19601807  0.88773579  0.85887107  1
  N  N67  1  0.08722907  0.77181993  0.62462691  1
  N  N68  1  0.90196537  0.88069955  0.36788018  1
  N  N69  1  0.79320063  0.75777341  0.09353225  1
  N  N70  1  0.54692203  0.88786973  0.84447225  1
  N  N71  1  0.45130341  0.73408162  0.62645399  1
