# generated using pymatgen
data_Sc4Al5N9
_symmetry_space_group_name_H-M   'P 1'
_cell_length_a   10.30621857
_cell_length_b   10.26280189
_cell_length_c   9.66283989
_cell_angle_alpha   90.03545628
_cell_angle_beta   89.78113721
_cell_angle_gamma   60.00994637
_symmetry_Int_Tables_number   1
_chemical_formula_structural   Sc4Al5N9
_chemical_formula_sum   'Sc16 Al20 N36'
_cell_volume   885.19552501
_cell_formula_units_Z   4
loop_
 _symmetry_equiv_pos_site_id
 _symmetry_equiv_pos_as_xyz
  1  'x, y, z'
loop_
 _atom_site_type_symbol
 _atom_site_label
 _atom_site_symmetry_multiplicity
 _atom_site_fract_x
 _atom_site_fract_y
 _atom_site_fract_z
 _atom_site_occupancy
  Sc  Sc0  1  0.10420650  0.08887859  0.33652251  1
  Sc  Sc1  1  0.22553815  0.19825897  0.08557475  1
  Sc  Sc2  1  0.86884418  0.21548897  0.59894216  1
  Sc  Sc3  1  0.22752763  0.20515068  0.58905723  1
  Sc  Sc4  1  0.11668075  0.43308497  0.34883157  1
  Sc  Sc5  1  0.23046470  0.54648107  0.08203762  1
  Sc  Sc6  1  0.55827841  0.52776351  0.09961123  1
  Sc  Sc7  1  0.10975734  0.42974586  0.84537481  1
  Sc  Sc8  1  0.23109691  0.54437074  0.59431361  1
  Sc  Sc9  1  0.77771569  0.42673449  0.34589762  1
  Sc  Sc10  1  0.78167942  0.76583731  0.84565700  1
  Sc  Sc11  1  0.55315294  0.87545982  0.09075719  1
  Sc  Sc12  1  0.21874451  0.86685750  0.59096696  1
  Sc  Sc13  1  0.78013373  0.76775320  0.34160815  1
  Sc  Sc14  1  0.44297360  0.74900275  0.84615983  1
  Sc  Sc15  1  0.55229252  0.86879242  0.58680922  1
  Al  Al16  1  0.77433950  0.09049029  0.82549098  1
  Al  Al17  1  0.44995355  0.09698652  0.32161728  1
  Al  Al18  1  0.56420547  0.20055482  0.07180953  1
  Al  Al19  1  0.10613039  0.09503433  0.82212526  1
  Al  Al20  1  0.77590319  0.09436651  0.31961363  1
  Al  Al21  1  0.89132790  0.19366457  0.06815336  1
  Al  Al22  1  0.45060069  0.09790045  0.82255244  1
  Al  Al23  1  0.56657794  0.19761548  0.57159395  1
  Al  Al24  1  0.78066128  0.42091474  0.88250872  1
  Al  Al25  1  0.87884669  0.54260124  0.62365499  1
  Al  Al26  1  0.44752248  0.41941452  0.32718468  1
  Al  Al27  1  0.89586841  0.53796575  0.11644309  1
  Al  Al28  1  0.46663632  0.41482980  0.81716759  1
  Al  Al29  1  0.55688866  0.53809968  0.56207160  1
  Al  Al30  1  0.11167221  0.76881830  0.32046345  1
  Al  Al31  1  0.20132428  0.88227134  0.06452215  1
  Al  Al32  1  0.88581779  0.87692102  0.57040927  1
  Al  Al33  1  0.42611906  0.76549768  0.31448586  1
  Al  Al34  1  0.10073929  0.77411520  0.82392906  1
  Al  Al35  1  0.89196692  0.88048323  0.07493966  1
  N  N36  1  0.23950727  0.19538697  0.35549128  1
  N  N37  1  0.09655251  0.08802101  0.11185434  1
  N  N38  1  0.88574042  0.20274344  0.85980363  1
  N  N39  1  0.76737625  0.07915543  0.63083109  1
  N  N40  1  0.56117484  0.19809918  0.37419003  1
  N  N41  1  0.45848647  0.10330870  0.12451894  1
  N  N42  1  0.23106564  0.18834943  0.85385886  1
  N  N43  1  0.10377087  0.09907674  0.62006687  1
  N  N44  1  0.87344632  0.19620679  0.37566842  1
  N  N45  1  0.77680398  0.09588734  0.11943773  1
  N  N46  1  0.55848262  0.20355629  0.87434026  1
  N  N47  1  0.45743619  0.10369547  0.62582555  1
  N  N48  1  0.23353682  0.55240137  0.35861159  1
  N  N49  1  0.10434800  0.43628860  0.08363807  1
  N  N50  1  0.87454457  0.52895486  0.82747556  1
  N  N51  1  0.76605348  0.45364705  0.57169838  1
  N  N52  1  0.53514264  0.54946309  0.35159470  1
  N  N53  1  0.45731876  0.40006747  0.13211362  1
  N  N54  1  0.24143473  0.54899281  0.84938622  1
  N  N55  1  0.09431480  0.44246240  0.59776282  1
  N  N56  1  0.89276349  0.54080110  0.31434345  1
  N  N57  1  0.80269340  0.41263156  0.09133927  1
  N  N58  1  0.57134618  0.51008410  0.87849671  1
  N  N59  1  0.47950351  0.40894474  0.61706992  1
  N  N60  1  0.22669740  0.85706851  0.37120433  1
  N  N61  1  0.09788035  0.78286864  0.12247602  1
  N  N62  1  0.89709978  0.88593245  0.87972537  1
  N  N63  1  0.78985972  0.75707471  0.59660656  1
  N  N64  1  0.53510873  0.87629149  0.34921970  1
  N  N65  1  0.41339108  0.77140297  0.10651664  1
  N  N66  1  0.20003638  0.88471217  0.86253148  1
  N  N67  1  0.08444240  0.77267033  0.62995650  1
  N  N68  1  0.90038129  0.88414816  0.37081650  1
  N  N69  1  0.79431124  0.75751274  0.09568538  1
  N  N70  1  0.54633915  0.88723022  0.85949608  1
  N  N71  1  0.45030054  0.73617249  0.62621139  1
