# generated using pymatgen
data_Sc4Al5N9
_symmetry_space_group_name_H-M   'P 1'
_cell_length_a   10.34282865
_cell_length_b   10.30179647
_cell_length_c   9.54420614
_cell_angle_alpha   90.06202178
_cell_angle_beta   90.15958340
_cell_angle_gamma   60.19237111
_symmetry_Int_Tables_number   1
_chemical_formula_structural   Sc4Al5N9
_chemical_formula_sum   'Sc16 Al20 N36'
_cell_volume   882.38807296
_cell_formula_units_Z   4
loop_
 _symmetry_equiv_pos_site_id
 _symmetry_equiv_pos_as_xyz
  1  'x, y, z'
loop_
 _atom_site_type_symbol
 _atom_site_label
 _atom_site_symmetry_multiplicity
 _atom_site_fract_x
 _atom_site_fract_y
 _atom_site_fract_z
 _atom_site_occupancy
  Sc  Sc0  1  0.11076874  0.08888691  0.34423787  1
  Sc  Sc1  1  0.22832715  0.20347221  0.10145982  1
  Sc  Sc2  1  0.87967215  0.20783642  0.60701165  1
  Sc  Sc3  1  0.22616772  0.20234539  0.61147462  1
  Sc  Sc4  1  0.11437093  0.43222546  0.35823871  1
  Sc  Sc5  1  0.23007737  0.54411389  0.09633945  1
  Sc  Sc6  1  0.55892192  0.52899595  0.09435655  1
  Sc  Sc7  1  0.10797814  0.43193148  0.85297894  1
  Sc  Sc8  1  0.23313528  0.54328329  0.60301676  1
  Sc  Sc9  1  0.76501987  0.43656513  0.35623166  1
  Sc  Sc10  1  0.78100973  0.76308466  0.85691842  1
  Sc  Sc11  1  0.55276325  0.87822227  0.10235321  1
  Sc  Sc12  1  0.22081684  0.86738598  0.58927177  1
  Sc  Sc13  1  0.78166734  0.76557024  0.35134829  1
  Sc  Sc14  1  0.43652154  0.75932110  0.85005074  1
  Sc  Sc15  1  0.55325432  0.86741006  0.59883127  1
  Al  Al16  1  0.77667885  0.09874794  0.87698892  1
  Al  Al17  1  0.44906672  0.09910822  0.37179722  1
  Al  Al18  1  0.56524900  0.20058040  0.12745930  1
  Al  Al19  1  0.09661245  0.10046585  0.87624839  1
  Al  Al20  1  0.77337907  0.09005098  0.37271864  1
  Al  Al21  1  0.88138737  0.20087461  0.12704483  1
  Al  Al22  1  0.45260938  0.09796692  0.87132422  1
  Al  Al23  1  0.56494414  0.19957044  0.62079781  1
  Al  Al24  1  0.78780541  0.41226479  0.87974453  1
  Al  Al25  1  0.88145323  0.54002857  0.62638379  1
  Al  Al26  1  0.45437958  0.42661816  0.37427649  1
  Al  Al27  1  0.89301619  0.53673092  0.11734296  1
  Al  Al28  1  0.45842306  0.40937528  0.87068532  1
  Al  Al29  1  0.56837158  0.52497384  0.63719599  1
  Al  Al30  1  0.11324041  0.76726589  0.31697557  1
  Al  Al31  1  0.20299873  0.87987798  0.06616875  1
  Al  Al32  1  0.88258444  0.87537472  0.61284665  1
  Al  Al33  1  0.42926123  0.76099024  0.31059881  1
  Al  Al34  1  0.10152860  0.77398875  0.82576495  1
  Al  Al35  1  0.88890640  0.88107856  0.10544238  1
  N  N36  1  0.24212841  0.19846323  0.33237775  1
  N  N37  1  0.09401962  0.09226641  0.09061686  1
  N  N38  1  0.88684463  0.20389075  0.83558134  1
  N  N39  1  0.76896930  0.08054734  0.57345004  1
  N  N40  1  0.55914584  0.20346652  0.32642632  1
  N  N41  1  0.46008597  0.10505383  0.07111709  1
  N  N42  1  0.22854606  0.18863147  0.84809723  1
  N  N43  1  0.10622375  0.09819005  0.57095826  1
  N  N44  1  0.87057411  0.20024853  0.33151147  1
  N  N45  1  0.77421042  0.09817818  0.07797955  1
  N  N46  1  0.56159626  0.20026323  0.82072993  1
  N  N47  1  0.45614310  0.10337170  0.57222223  1
  N  N48  1  0.23610242  0.54887349  0.34725275  1
  N  N49  1  0.10045147  0.43895851  0.08464065  1
  N  N50  1  0.87608148  0.52775513  0.82964634  1
  N  N51  1  0.76843482  0.44695826  0.57986725  1
  N  N52  1  0.53450306  0.54932414  0.31726636  1
  N  N53  1  0.45970027  0.39906047  0.06967681  1
  N  N54  1  0.23838804  0.55015354  0.84525204  1
  N  N55  1  0.09587502  0.44025130  0.59814400  1
  N  N56  1  0.88990434  0.53921314  0.31700974  1
  N  N57  1  0.79981154  0.41344062  0.08478209  1
  N  N58  1  0.57494581  0.50781121  0.84608626  1
  N  N59  1  0.47830018  0.40991678  0.57655202  1
  N  N60  1  0.22957470  0.85439974  0.35998830  1
  N  N61  1  0.10005567  0.78037834  0.10972445  1
  N  N62  1  0.89146647  0.88740133  0.84810697  1
  N  N63  1  0.79169081  0.75358921  0.59427844  1
  N  N64  1  0.53571883  0.87708188  0.34069979  1
  N  N65  1  0.41508027  0.77413052  0.09358298  1
  N  N66  1  0.19644920  0.88884922  0.85764362  1
  N  N67  1  0.08827489  0.77173982  0.62169862  1
  N  N68  1  0.89908086  0.88227048  0.32931829  1
  N  N69  1  0.79249263  0.75622934  0.09209868  1
  N  N70  1  0.54652340  0.88823091  0.84365384  1
  N  N71  1  0.45109093  0.73435877  0.62602365  1
