# generated using pymatgen
data_Sc4Al5N9
_symmetry_space_group_name_H-M   'P 1'
_cell_length_a   10.41360301
_cell_length_b   10.38294640
_cell_length_c   9.33007991
_cell_angle_alpha   90.20286614
_cell_angle_beta   90.00575402
_cell_angle_gamma   60.10454141
_symmetry_Int_Tables_number   1
_chemical_formula_structural   Sc4Al5N9
_chemical_formula_sum   'Sc16 Al20 N36'
_cell_volume   874.56206759
_cell_formula_units_Z   4
loop_
 _symmetry_equiv_pos_site_id
 _symmetry_equiv_pos_as_xyz
  1  'x, y, z'
loop_
 _atom_site_type_symbol
 _atom_site_label
 _atom_site_symmetry_multiplicity
 _atom_site_fract_x
 _atom_site_fract_y
 _atom_site_fract_z
 _atom_site_occupancy
  Sc  Sc0  1  0.10554988  0.08876025  0.34318007  1
  Sc  Sc1  1  0.22449515  0.20034226  0.09737835  1
  Sc  Sc2  1  0.87030379  0.21279510  0.60019590  1
  Sc  Sc3  1  0.22695551  0.20557098  0.60079144  1
  Sc  Sc4  1  0.11414008  0.43352420  0.35014056  1
  Sc  Sc5  1  0.22975233  0.54666676  0.09226207  1
  Sc  Sc6  1  0.55802129  0.52869722  0.09994678  1
  Sc  Sc7  1  0.10924185  0.43104794  0.84968450  1
  Sc  Sc8  1  0.23050566  0.54487996  0.59560692  1
  Sc  Sc9  1  0.77860481  0.42644955  0.34491608  1
  Sc  Sc10  1  0.78218236  0.76500190  0.84935016  1
  Sc  Sc11  1  0.55127853  0.87700782  0.09926259  1
  Sc  Sc12  1  0.21884714  0.86636504  0.59547682  1
  Sc  Sc13  1  0.78056394  0.76604893  0.34492800  1
  Sc  Sc14  1  0.44215773  0.74998383  0.84837328  1
  Sc  Sc15  1  0.55406580  0.86778391  0.59841056  1
  Al  Al16  1  0.77572888  0.09001925  0.83208481  1
  Al  Al17  1  0.45023139  0.09537440  0.37131778  1
  Al  Al18  1  0.56351678  0.19861503  0.12293775  1
  Al  Al19  1  0.10533311  0.09567312  0.82755511  1
  Al  Al20  1  0.78021552  0.09067196  0.32410454  1
  Al  Al21  1  0.89039383  0.19617112  0.07215960  1
  Al  Al22  1  0.44970023  0.09908985  0.86883553  1
  Al  Al23  1  0.56482267  0.19795122  0.61521742  1
  Al  Al24  1  0.77921566  0.42110612  0.87361382  1
  Al  Al25  1  0.88062668  0.54196414  0.62219087  1
  Al  Al26  1  0.44971038  0.42106407  0.34200719  1
  Al  Al27  1  0.89351262  0.53810071  0.11139087  1
  Al  Al28  1  0.45990324  0.41818440  0.83087745  1
  Al  Al29  1  0.55912930  0.53722287  0.56812646  1
  Al  Al30  1  0.11166809  0.76925930  0.32214496  1
  Al  Al31  1  0.20222499  0.88294934  0.06713626  1
  Al  Al32  1  0.88753335  0.87484901  0.57316923  1
  Al  Al33  1  0.42757983  0.76486763  0.31936439  1
  Al  Al34  1  0.10064663  0.77339115  0.82845394  1
  Al  Al35  1  0.89210558  0.88020788  0.07842674  1
  N  N36  1  0.23928095  0.19682205  0.34477965  1
  N  N37  1  0.09700090  0.08887195  0.10513896  1
  N  N38  1  0.88554290  0.20369720  0.85599484  1
  N  N39  1  0.77195310  0.07665796  0.62407290  1
  N  N40  1  0.56376123  0.19414046  0.33776749  1
  N  N41  1  0.45653474  0.10405719  0.07725639  1
  N  N42  1  0.23004672  0.19027976  0.84748171  1
  N  N43  1  0.10395145  0.09853273  0.61102297  1
  N  N44  1  0.87442449  0.19710064  0.36707932  1
  N  N45  1  0.77860274  0.09478363  0.11029601  1
  N  N46  1  0.55480633  0.20591799  0.83354856  1
  N  N47  1  0.45721977  0.10112608  0.57946446  1
  N  N48  1  0.23197252  0.55273624  0.35127444  1
  N  N49  1  0.10288463  0.43731042  0.08863969  1
  N  N50  1  0.87599909  0.52991043  0.83525590  1
  N  N51  1  0.76737257  0.45028718  0.58143361  1
  N  N52  1  0.53864672  0.55049197  0.34881567  1
  N  N53  1  0.45669767  0.40403990  0.12112064  1
  N  N54  1  0.24101269  0.54902545  0.84872803  1
  N  N55  1  0.09484788  0.44189563  0.59857759  1
  N  N56  1  0.89094020  0.54114410  0.31907892  1
  N  N57  1  0.80034083  0.41302835  0.09103531  1
  N  N58  1  0.57107446  0.51123523  0.86768470  1
  N  N59  1  0.47483953  0.41069775  0.59395576  1
  N  N60  1  0.22671058  0.85743360  0.36592310  1
  N  N61  1  0.09853011  0.78319064  0.11584866  1
  N  N62  1  0.89656847  0.88428378  0.87508543  1
  N  N63  1  0.79196186  0.75507319  0.59639860  1
  N  N64  1  0.53564798  0.87685497  0.34410457  1
  N  N65  1  0.41449694  0.77144090  0.10154198  1
  N  N66  1  0.20021411  0.88484855  0.85671438  1
  N  N67  1  0.08628821  0.77090846  0.62527110  1
  N  N68  1  0.90132207  0.88199286  0.36473096  1
  N  N69  1  0.79225570  0.75864128  0.09607842  1
  N  N70  1  0.54685372  0.88640123  0.84696290  1
  N  N71  1  0.44978448  0.73699809  0.61931947  1
