# generated using pymatgen
data_Sc4Al5N9
_symmetry_space_group_name_H-M   'P 1'
_cell_length_a   10.34644069
_cell_length_b   10.30876801
_cell_length_c   9.55028723
_cell_angle_alpha   90.06811177
_cell_angle_beta   90.01171096
_cell_angle_gamma   60.18611274
_symmetry_Int_Tables_number   1
_chemical_formula_structural   Sc4Al5N9
_chemical_formula_sum   'Sc16 Al20 N36'
_cell_volume   883.80382425
_cell_formula_units_Z   4
loop_
 _symmetry_equiv_pos_site_id
 _symmetry_equiv_pos_as_xyz
  1  'x, y, z'
loop_
 _atom_site_type_symbol
 _atom_site_label
 _atom_site_symmetry_multiplicity
 _atom_site_fract_x
 _atom_site_fract_y
 _atom_site_fract_z
 _atom_site_occupancy
  Sc  Sc0  1  0.10941520  0.08940058  0.34436359  1
  Sc  Sc1  1  0.22729642  0.20373203  0.10233769  1
  Sc  Sc2  1  0.87892234  0.20815911  0.59594576  1
  Sc  Sc3  1  0.22754581  0.20199624  0.61085299  1
  Sc  Sc4  1  0.11408788  0.43221649  0.35946837  1
  Sc  Sc5  1  0.22768848  0.54665238  0.09864482  1
  Sc  Sc6  1  0.55808624  0.52914223  0.09500899  1
  Sc  Sc7  1  0.10793041  0.43190120  0.85339013  1
  Sc  Sc8  1  0.23277678  0.54325520  0.60363652  1
  Sc  Sc9  1  0.76511381  0.43658851  0.35488327  1
  Sc  Sc10  1  0.78181915  0.76478256  0.84849285  1
  Sc  Sc11  1  0.55334865  0.87706753  0.09990548  1
  Sc  Sc12  1  0.22142426  0.86637231  0.59022526  1
  Sc  Sc13  1  0.78062950  0.76589076  0.34486155  1
  Sc  Sc14  1  0.43676313  0.75883361  0.85007051  1
  Sc  Sc15  1  0.55425587  0.86632021  0.59644149  1
  Al  Al16  1  0.77835817  0.09053865  0.82464815  1
  Al  Al17  1  0.44929559  0.09865806  0.37095641  1
  Al  Al18  1  0.56155536  0.20175233  0.12571689  1
  Al  Al19  1  0.10065354  0.09765472  0.87074192  1
  Al  Al20  1  0.77817287  0.09181706  0.32142499  1
  Al  Al21  1  0.88436145  0.20046211  0.09440958  1
  Al  Al22  1  0.45072743  0.09815570  0.87263035  1
  Al  Al23  1  0.56280061  0.20004634  0.62059149  1
  Al  Al24  1  0.78538411  0.41558237  0.87683099  1
  Al  Al25  1  0.88139069  0.54094635  0.62500850  1
  Al  Al26  1  0.45445973  0.42622060  0.37529499  1
  Al  Al27  1  0.89307635  0.53799880  0.11673300  1
  Al  Al28  1  0.45612851  0.41045985  0.87247487  1
  Al  Al29  1  0.56784746  0.52506472  0.63718326  1
  Al  Al30  1  0.11193746  0.76853060  0.32185551  1
  Al  Al31  1  0.20193786  0.87894155  0.06719756  1
  Al  Al32  1  0.88761205  0.87491979  0.56985007  1
  Al  Al33  1  0.42876195  0.76107601  0.31049939  1
  Al  Al34  1  0.09966433  0.77420397  0.82295153  1
  Al  Al35  1  0.89115403  0.88084365  0.07339603  1
  N  N36  1  0.24159778  0.19842725  0.33355957  1
  N  N37  1  0.09663202  0.09058918  0.09074126  1
  N  N38  1  0.88610571  0.20284052  0.85035164  1
  N  N39  1  0.77296924  0.07778823  0.62099394  1
  N  N40  1  0.55791613  0.20439283  0.32836887  1
  N  N41  1  0.45871839  0.10421166  0.07265171  1
  N  N42  1  0.22902822  0.18830430  0.84796595  1
  N  N43  1  0.10806280  0.09684854  0.57748966  1
  N  N44  1  0.87305387  0.20223313  0.35020669  1
  N  N45  1  0.77723734  0.09302835  0.11342829  1
  N  N46  1  0.55422904  0.20331983  0.82387223  1
  N  N47  1  0.45753462  0.10172889  0.57077819  1
  N  N48  1  0.23541471  0.54923691  0.35003808  1
  N  N49  1  0.10053595  0.43916373  0.08469835  1
  N  N50  1  0.87562826  0.52951534  0.82928898  1
  N  N51  1  0.76783555  0.44835310  0.58127279  1
  N  N52  1  0.53402244  0.54925961  0.31756641  1
  N  N53  1  0.45759808  0.40042369  0.07135628  1
  N  N54  1  0.23653949  0.55167586  0.84726617  1
  N  N55  1  0.09615215  0.43987548  0.59841431  1
  N  N56  1  0.89012462  0.53956314  0.31668266  1
  N  N57  1  0.79880492  0.41562430  0.08380250  1
  N  N58  1  0.57342936  0.50808705  0.84623155  1
  N  N59  1  0.47813342  0.40981095  0.57718708  1
  N  N60  1  0.22978373  0.85480929  0.36268368  1
  N  N61  1  0.09604843  0.78372612  0.12069866  1
  N  N62  1  0.89646650  0.88550512  0.87507993  1
  N  N63  1  0.79216123  0.75426462  0.59453757  1
  N  N64  1  0.53602624  0.87619254  0.33963675  1
  N  N65  1  0.41429260  0.77361244  0.09390823  1
  N  N66  1  0.19678283  0.88631641  0.85887899  1
  N  N67  1  0.08661584  0.77183669  0.62502565  1
  N  N68  1  0.90090560  0.88308887  0.36814577  1
  N  N69  1  0.79350875  0.75756325  0.09435628  1
  N  N70  1  0.54728070  0.88796868  0.84456138  1
  N  N71  1  0.45133899  0.73431388  0.62677762  1
