# generated using pymatgen
data_Sc4Al5N9
_symmetry_space_group_name_H-M   'P 1'
_cell_length_a   10.37352349
_cell_length_b   10.32930235
_cell_length_c   9.45351960
_cell_angle_alpha   90.13851653
_cell_angle_beta   89.91499223
_cell_angle_gamma   60.03959257
_symmetry_Int_Tables_number   1
_chemical_formula_structural   Sc4Al5N9
_chemical_formula_sum   'Sc16 Al20 N36'
_cell_volume   877.58907694
_cell_formula_units_Z   4
loop_
 _symmetry_equiv_pos_site_id
 _symmetry_equiv_pos_as_xyz
  1  'x, y, z'
loop_
 _atom_site_type_symbol
 _atom_site_label
 _atom_site_symmetry_multiplicity
 _atom_site_fract_x
 _atom_site_fract_y
 _atom_site_fract_z
 _atom_site_occupancy
  Sc  Sc0  1  0.10391195  0.08890685  0.34263900  1
  Sc  Sc1  1  0.22467576  0.19941619  0.09289690  1
  Sc  Sc2  1  0.86890066  0.21467913  0.60126872  1
  Sc  Sc3  1  0.22690163  0.20589250  0.59484082  1
  Sc  Sc4  1  0.11505477  0.43421114  0.35020281  1
  Sc  Sc5  1  0.23158988  0.54608332  0.08820206  1
  Sc  Sc6  1  0.55865479  0.52732098  0.10085909  1
  Sc  Sc7  1  0.10998947  0.43072588  0.84881816  1
  Sc  Sc8  1  0.23114247  0.54475576  0.59611486  1
  Sc  Sc9  1  0.77832980  0.42674155  0.34616489  1
  Sc  Sc10  1  0.78234682  0.76518341  0.84940416  1
  Sc  Sc11  1  0.55201293  0.87572024  0.09525675  1
  Sc  Sc12  1  0.21866245  0.86650720  0.59548269  1
  Sc  Sc13  1  0.77979126  0.76729150  0.34523229  1
  Sc  Sc14  1  0.44220521  0.74855786  0.84934714  1
  Sc  Sc15  1  0.55274559  0.86827641  0.59469226  1
  Al  Al16  1  0.77471537  0.09001879  0.82849675  1
  Al  Al17  1  0.44959975  0.09621613  0.32984539  1
  Al  Al18  1  0.56417535  0.20092657  0.07349638  1
  Al  Al19  1  0.10540633  0.09570785  0.82552747  1
  Al  Al20  1  0.77580592  0.09424579  0.32039167  1
  Al  Al21  1  0.89098780  0.19497914  0.07145656  1
  Al  Al22  1  0.44991258  0.09789377  0.82976206  1
  Al  Al23  1  0.56729674  0.19681199  0.57339493  1
  Al  Al24  1  0.78041848  0.42109006  0.87890844  1
  Al  Al25  1  0.88005941  0.54257821  0.62367491  1
  Al  Al26  1  0.44912484  0.41885338  0.33130832  1
  Al  Al27  1  0.89480368  0.53850777  0.11478952  1
  Al  Al28  1  0.46644604  0.41472689  0.81814944  1
  Al  Al29  1  0.55829082  0.53738519  0.56600891  1
  Al  Al30  1  0.11129369  0.76916990  0.32262935  1
  Al  Al31  1  0.20141279  0.88271085  0.06717711  1
  Al  Al32  1  0.88612553  0.87668528  0.57273432  1
  Al  Al33  1  0.42639618  0.76467025  0.31854061  1
  Al  Al34  1  0.10054118  0.77348478  0.82756107  1
  Al  Al35  1  0.89182436  0.88056504  0.07847743  1
  N  N36  1  0.23839068  0.19681984  0.35209822  1
  N  N37  1  0.09658756  0.08832883  0.11027026  1
  N  N38  1  0.88571514  0.20326211  0.85836854  1
  N  N39  1  0.76804383  0.07891010  0.62900718  1
  N  N40  1  0.56237328  0.19699675  0.37124737  1
  N  N41  1  0.45759394  0.10310427  0.11751730  1
  N  N42  1  0.23010194  0.18961917  0.85221908  1
  N  N43  1  0.10328097  0.09912071  0.61540927  1
  N  N44  1  0.87265311  0.19721605  0.37213017  1
  N  N45  1  0.77680530  0.09611272  0.11601264  1
  N  N46  1  0.55878836  0.20404636  0.87106414  1
  N  N47  1  0.45686607  0.10325381  0.62027408  1
  N  N48  1  0.23369345  0.55214799  0.35540643  1
  N  N49  1  0.10402124  0.43744108  0.08807217  1
  N  N50  1  0.87611117  0.52941023  0.83318235  1
  N  N51  1  0.76673776  0.45224004  0.57839502  1
  N  N52  1  0.53676513  0.54914926  0.35201794  1
  N  N53  1  0.45877292  0.40005706  0.13085624  1
  N  N54  1  0.24252764  0.54846329  0.84965130  1
  N  N55  1  0.09465848  0.44294936  0.59902932  1
  N  N56  1  0.89158255  0.54155047  0.31854860  1
  N  N57  1  0.80197314  0.41282898  0.09278137  1
  N  N58  1  0.57222608  0.50988181  0.87455159  1
  N  N59  1  0.47871965  0.40886215  0.61269900  1
  N  N60  1  0.22634467  0.85713545  0.36984957  1
  N  N61  1  0.09821796  0.78267957  0.11965632  1
  N  N62  1  0.89675803  0.88527034  0.87830137  1
  N  N63  1  0.79073179  0.75650818  0.59741947  1
  N  N64  1  0.53484878  0.87639477  0.34881976  1
  N  N65  1  0.41364862  0.77045610  0.10488736  1
  N  N66  1  0.19971288  0.88504397  0.85993078  1
  N  N67  1  0.08493107  0.77180326  0.62793988  1
  N  N68  1  0.89983960  0.88412774  0.36777440  1
  N  N69  1  0.79303485  0.75839311  0.09685538  1
  N  N70  1  0.54673671  0.88568825  0.85485203  1
  N  N71  1  0.44972098  0.73610836  0.62423991  1
