# generated using pymatgen
data_Sc4Al5N9
_symmetry_space_group_name_H-M   'P 1'
_cell_length_a   10.34590110
_cell_length_b   10.30954409
_cell_length_c   9.54595801
_cell_angle_alpha   90.11351307
_cell_angle_beta   90.03953580
_cell_angle_gamma   60.18654152
_symmetry_Int_Tables_number   1
_chemical_formula_structural   Sc4Al5N9
_chemical_formula_sum   'Sc16 Al20 N36'
_cell_volume   883.42633564
_cell_formula_units_Z   4
loop_
 _symmetry_equiv_pos_site_id
 _symmetry_equiv_pos_as_xyz
  1  'x, y, z'
loop_
 _atom_site_type_symbol
 _atom_site_label
 _atom_site_symmetry_multiplicity
 _atom_site_fract_x
 _atom_site_fract_y
 _atom_site_fract_z
 _atom_site_occupancy
  Sc  Sc0  1  0.10550188  0.09026138  0.34121529  1
  Sc  Sc1  1  0.22489677  0.20183166  0.10032527  1
  Sc  Sc2  1  0.87493146  0.20932571  0.59636120  1
  Sc  Sc3  1  0.22925026  0.20369680  0.60649842  1
  Sc  Sc4  1  0.11387194  0.43278897  0.35749969  1
  Sc  Sc5  1  0.22800260  0.54684410  0.09860617  1
  Sc  Sc6  1  0.55864955  0.52901761  0.09534960  1
  Sc  Sc7  1  0.10867015  0.43161683  0.85336986  1
  Sc  Sc8  1  0.23266985  0.54317026  0.60311454  1
  Sc  Sc9  1  0.76571271  0.43468354  0.35535259  1
  Sc  Sc10  1  0.78196541  0.76494093  0.84905547  1
  Sc  Sc11  1  0.55313231  0.87716550  0.10005614  1
  Sc  Sc12  1  0.22230807  0.86407896  0.59021379  1
  Sc  Sc13  1  0.78058346  0.76571004  0.34452633  1
  Sc  Sc14  1  0.43694858  0.75880042  0.85061231  1
  Sc  Sc15  1  0.55449014  0.86612715  0.59631214  1
  Al  Al16  1  0.77705881  0.08889219  0.82516971  1
  Al  Al17  1  0.44967030  0.09828349  0.37003004  1
  Al  Al18  1  0.56180603  0.20201703  0.12545949  1
  Al  Al19  1  0.10473659  0.09566788  0.83540474  1
  Al  Al20  1  0.77953766  0.09334185  0.32043997  1
  Al  Al21  1  0.88852400  0.19717291  0.07093812  1
  Al  Al22  1  0.45031736  0.09851720  0.87328772  1
  Al  Al23  1  0.56292994  0.19966941  0.62102987  1
  Al  Al24  1  0.78406191  0.41852353  0.87495516  1
  Al  Al25  1  0.88156665  0.54153946  0.62454753  1
  Al  Al26  1  0.45485255  0.42601785  0.37510960  1
  Al  Al27  1  0.89305799  0.53709090  0.11675519  1
  Al  Al28  1  0.45587103  0.41074990  0.87269213  1
  Al  Al29  1  0.56726560  0.52562392  0.63697268  1
  Al  Al30  1  0.11211954  0.76914864  0.32141171  1
  Al  Al31  1  0.19979937  0.88307871  0.06470038  1
  Al  Al32  1  0.88746048  0.87495043  0.56931215  1
  Al  Al33  1  0.42798054  0.76185360  0.31009249  1
  Al  Al34  1  0.09969210  0.77361641  0.82339359  1
  Al  Al35  1  0.89178344  0.88073973  0.07490818  1
  N  N36  1  0.23973615  0.19742891  0.33845890  1
  N  N37  1  0.09614559  0.09004954  0.10190613  1
  N  N38  1  0.88613239  0.20216020  0.85525286  1
  N  N39  1  0.77249240  0.07641267  0.62372042  1
  N  N40  1  0.55838051  0.20443709  0.32791098  1
  N  N41  1  0.45779496  0.10463646  0.07403575  1
  N  N42  1  0.23075078  0.18914444  0.84694438  1
  N  N43  1  0.10738408  0.09613944  0.60503068  1
  N  N44  1  0.87274941  0.20105930  0.36727122  1
  N  N45  1  0.77868215  0.09467442  0.11317042  1
  N  N46  1  0.55375074  0.20351863  0.82473146  1
  N  N47  1  0.45895090  0.10097670  0.57019429  1
  N  N48  1  0.23562078  0.54968355  0.34993892  1
  N  N49  1  0.10103052  0.43838444  0.08579182  1
  N  N50  1  0.87640241  0.52996232  0.82906668  1
  N  N51  1  0.76725859  0.44957113  0.58313939  1
  N  N52  1  0.53413408  0.54959996  0.31808235  1
  N  N53  1  0.45782180  0.40075767  0.07148824  1
  N  N54  1  0.23662440  0.55153185  0.84735969  1
  N  N55  1  0.09601276  0.44062263  0.59752648  1
  N  N56  1  0.88959229  0.53898274  0.31706373  1
  N  N57  1  0.79939505  0.41454092  0.08265938  1
  N  N58  1  0.57292170  0.50847666  0.84606667  1
  N  N59  1  0.47844671  0.40937872  0.57730653  1
  N  N60  1  0.22896171  0.85661673  0.36537440  1
  N  N61  1  0.09712677  0.78391176  0.12036661  1
  N  N62  1  0.89682530  0.88501417  0.87643755  1
  N  N63  1  0.79218437  0.75446653  0.59410045  1
  N  N64  1  0.53596963  0.87617368  0.33959244  1
  N  N65  1  0.41352295  0.77414467  0.09407575  1
  N  N66  1  0.19696858  0.88590811  0.85864837  1
  N  N67  1  0.08626696  0.77130917  0.62532153  1
  N  N68  1  0.90077775  0.88356420  0.36723022  1
  N  N69  1  0.79364894  0.75733702  0.09489627  1
  N  N70  1  0.54740693  0.88814333  0.84506477  1
  N  N71  1  0.45135052  0.73440787  0.62729777  1
