# generated using pymatgen
data_Sc4Al5N9
_symmetry_space_group_name_H-M   'P 1'
_cell_length_a   10.33773938
_cell_length_b   10.29765345
_cell_length_c   9.58229164
_cell_angle_alpha   90.03153672
_cell_angle_beta   89.98251806
_cell_angle_gamma   60.19689018
_symmetry_Int_Tables_number   1
_chemical_formula_structural   Sc4Al5N9
_chemical_formula_sum   'Sc16 Al20 N36'
_cell_volume   885.16030399
_cell_formula_units_Z   4
loop_
 _symmetry_equiv_pos_site_id
 _symmetry_equiv_pos_as_xyz
  1  'x, y, z'
loop_
 _atom_site_type_symbol
 _atom_site_label
 _atom_site_symmetry_multiplicity
 _atom_site_fract_x
 _atom_site_fract_y
 _atom_site_fract_z
 _atom_site_occupancy
  Sc  Sc0  1  0.11427481  0.08752781  0.34490645  1
  Sc  Sc1  1  0.22759519  0.20416671  0.10153897  1
  Sc  Sc2  1  0.88107985  0.20850940  0.59794265  1
  Sc  Sc3  1  0.22720292  0.20167802  0.61342177  1
  Sc  Sc4  1  0.11412211  0.43191599  0.35997686  1
  Sc  Sc5  1  0.22756689  0.54668757  0.09810762  1
  Sc  Sc6  1  0.55867978  0.52836215  0.09430405  1
  Sc  Sc7  1  0.10734973  0.43217764  0.85373851  1
  Sc  Sc8  1  0.23252786  0.54332065  0.60430162  1
  Sc  Sc9  1  0.76390784  0.43915450  0.35608615  1
  Sc  Sc10  1  0.78158718  0.76463351  0.84870832  1
  Sc  Sc11  1  0.55336979  0.87726876  0.09958064  1
  Sc  Sc12  1  0.22165935  0.86634036  0.58981166  1
  Sc  Sc13  1  0.78059050  0.76591653  0.34447183  1
  Sc  Sc14  1  0.43617630  0.75906345  0.85037684  1
  Sc  Sc15  1  0.55421691  0.86609906  0.59691794  1
  Al  Al16  1  0.77931742  0.09212783  0.82164688  1
  Al  Al17  1  0.44904307  0.09867156  0.37159970  1
  Al  Al18  1  0.56224356  0.20126539  0.12672147  1
  Al  Al19  1  0.09604034  0.09974645  0.87639625  1
  Al  Al20  1  0.77675216  0.09005346  0.32533912  1
  Al  Al21  1  0.88376453  0.20160826  0.12452335  1
  Al  Al22  1  0.45123073  0.09814765  0.87255231  1
  Al  Al23  1  0.56223231  0.20065021  0.61942524  1
  Al  Al24  1  0.78762883  0.41117054  0.87895954  1
  Al  Al25  1  0.88099270  0.54070501  0.62620295  1
  Al  Al26  1  0.45357381  0.42707462  0.37551423  1
  Al  Al27  1  0.89297406  0.53784924  0.11612191  1
  Al  Al28  1  0.45669416  0.40982274  0.87276115  1
  Al  Al29  1  0.56823673  0.52462886  0.63845814  1
  Al  Al30  1  0.11195387  0.76810628  0.32099276  1
  Al  Al31  1  0.20139151  0.87919093  0.06725360  1
  Al  Al32  1  0.88792123  0.87410512  0.57002059  1
  Al  Al33  1  0.42906725  0.76059972  0.30915892  1
  Al  Al34  1  0.09945207  0.77503080  0.82297411  1
  Al  Al35  1  0.89025577  0.88250890  0.07188651  1
  N  N36  1  0.24280077  0.19886773  0.33110787  1
  N  N37  1  0.09472445  0.09175499  0.09097821  1
  N  N38  1  0.88728428  0.20351781  0.83512760  1
  N  N39  1  0.77263253  0.07887898  0.61580774  1
  N  N40  1  0.55729956  0.20479451  0.32923648  1
  N  N41  1  0.45925089  0.10434064  0.07160100  1
  N  N42  1  0.22808600  0.18826282  0.84862027  1
  N  N43  1  0.10936896  0.09660278  0.57079353  1
  N  N44  1  0.87444909  0.20250852  0.33773519  1
  N  N45  1  0.77686265  0.09242185  0.11575653  1
  N  N46  1  0.55507718  0.20303293  0.82201680  1
  N  N47  1  0.45671963  0.10189331  0.57065292  1
  N  N48  1  0.23508073  0.54917652  0.34971838  1
  N  N49  1  0.10029174  0.43950169  0.08378214  1
  N  N50  1  0.87489685  0.52882272  0.82960789  1
  N  N51  1  0.76744696  0.44874906  0.57901212  1
  N  N52  1  0.53399732  0.54898291  0.31633574  1
  N  N53  1  0.45767607  0.39983472  0.07100695  1
  N  N54  1  0.23661686  0.55175774  0.84719989  1
  N  N55  1  0.09582293  0.43962175  0.59855030  1
  N  N56  1  0.89014159  0.53982337  0.31541774  1
  N  N57  1  0.79992344  0.41345758  0.08412279  1
  N  N58  1  0.57437854  0.50721364  0.84663568  1
  N  N59  1  0.47761369  0.41062767  0.57662294  1
  N  N60  1  0.23074418  0.85321440  0.36249370  1
  N  N61  1  0.09524738  0.78405203  0.12048992  1
  N  N62  1  0.89544973  0.88703318  0.87382039  1
  N  N63  1  0.79207789  0.75391492  0.59493495  1
  N  N64  1  0.53595793  0.87615184  0.33927390  1
  N  N65  1  0.41415656  0.77359258  0.09373093  1
  N  N66  1  0.19586580  0.88767317  0.85979166  1
  N  N67  1  0.08673800  0.77215295  0.62578872  1
  N  N68  1  0.90176896  0.88181890  0.36935720  1
  N  N69  1  0.79343891  0.75771096  0.09352640  1
  N  N70  1  0.54708785  0.88795656  0.84429375  1
  N  N71  1  0.45125477  0.73409620  0.62779767  1
