# generated using pymatgen
data_Sc4Al5N9
_symmetry_space_group_name_H-M   'P 1'
_cell_length_a   10.29451199
_cell_length_b   10.25161092
_cell_length_c   9.67350570
_cell_angle_alpha   90.13674159
_cell_angle_beta   90.05321797
_cell_angle_gamma   60.10607348
_symmetry_Int_Tables_number   1
_chemical_formula_structural   Sc4Al5N9
_chemical_formula_sum   'Sc16 Al20 N36'
_cell_volume   885.06335044
_cell_formula_units_Z   4
loop_
 _symmetry_equiv_pos_site_id
 _symmetry_equiv_pos_as_xyz
  1  'x, y, z'
loop_
 _atom_site_type_symbol
 _atom_site_label
 _atom_site_symmetry_multiplicity
 _atom_site_fract_x
 _atom_site_fract_y
 _atom_site_fract_z
 _atom_site_occupancy
  Sc  Sc0  1  0.11377696  0.08405452  0.35185351  1
  Sc  Sc1  1  0.22814689  0.20366674  0.10892204  1
  Sc  Sc2  1  0.87699627  0.20940370  0.61672904  1
  Sc  Sc3  1  0.22458701  0.20290179  0.62490847  1
  Sc  Sc4  1  0.11544560  0.42897398  0.37094132  1
  Sc  Sc5  1  0.22810781  0.54692040  0.11495451  1
  Sc  Sc6  1  0.55269871  0.53837996  0.10915987  1
  Sc  Sc7  1  0.10677046  0.43377326  0.86395392  1
  Sc  Sc8  1  0.23436882  0.54077979  0.61735623  1
  Sc  Sc9  1  0.76941939  0.43290884  0.36296488  1
  Sc  Sc10  1  0.77795552  0.76524192  0.87161719  1
  Sc  Sc11  1  0.54758776  0.87371577  0.12621738  1
  Sc  Sc12  1  0.20968840  0.87588130  0.61184308  1
  Sc  Sc13  1  0.78542169  0.76460052  0.36786482  1
  Sc  Sc14  1  0.43803258  0.76023643  0.85241985  1
  Sc  Sc15  1  0.55686660  0.87513474  0.61024137  1
  Al  Al16  1  0.77716049  0.09708653  0.88411449  1
  Al  Al17  1  0.44848340  0.10086188  0.38158861  1
  Al  Al18  1  0.56562732  0.19924245  0.13288825  1
  Al  Al19  1  0.09566516  0.10114001  0.88525011  1
  Al  Al20  1  0.77495448  0.08847222  0.38012938  1
  Al  Al21  1  0.88068145  0.20007033  0.13288531  1
  Al  Al22  1  0.45327422  0.09664074  0.88157853  1
  Al  Al23  1  0.56526961  0.20063659  0.63000381  1
  Al  Al24  1  0.78430438  0.41496773  0.88893981  1
  Al  Al25  1  0.88076858  0.54115564  0.63639172  1
  Al  Al26  1  0.45611100  0.42295844  0.38231034  1
  Al  Al27  1  0.89209157  0.53865485  0.12694455  1
  Al  Al28  1  0.45811725  0.41195472  0.87983559  1
  Al  Al29  1  0.57018704  0.52298077  0.64007005  1
  Al  Al30  1  0.11155115  0.76350529  0.38159313  1
  Al  Al31  1  0.20786952  0.87759607  0.07712966  1
  Al  Al32  1  0.88361081  0.87554114  0.63508240  1
  Al  Al33  1  0.43966541  0.74953659  0.39191769  1
  Al  Al34  1  0.10058117  0.77328437  0.87315426  1
  Al  Al35  1  0.89164241  0.88031630  0.12870170  1
  N  N36  1  0.24336185  0.19632686  0.33452523  1
  N  N37  1  0.09466113  0.09025493  0.09419277  1
  N  N38  1  0.88525654  0.20533070  0.84251685  1
  N  N39  1  0.76895064  0.07868883  0.57649160  1
  N  N40  1  0.56057564  0.20163222  0.32969321  1
  N  N41  1  0.46227478  0.09967462  0.07746943  1
  N  N42  1  0.22785732  0.18932690  0.85638642  1
  N  N43  1  0.10218402  0.10312693  0.57425053  1
  N  N44  1  0.87176697  0.19776043  0.33347222  1
  N  N45  1  0.77579214  0.09428954  0.08095110  1
  N  N46  1  0.56125710  0.20102321  0.82786735  1
  N  N47  1  0.45229421  0.11083868  0.57749495  1
  N  N48  1  0.23757587  0.54530714  0.35116542  1
  N  N49  1  0.09972091  0.44037638  0.08974672  1
  N  N50  1  0.87344128  0.53004711  0.83602350  1
  N  N51  1  0.77029968  0.44668698  0.58360299  1
  N  N52  1  0.53642927  0.54813139  0.32915946  1
  N  N53  1  0.45935876  0.40111656  0.07563499  1
  N  N54  1  0.23770055  0.55117336  0.84656727  1
  N  N55  1  0.09550538  0.43955996  0.60621489  1
  N  N56  1  0.89140031  0.53948152  0.32281407  1
  N  N57  1  0.79649401  0.41599026  0.09122888  1
  N  N58  1  0.57298346  0.51081139  0.84455164  1
  N  N59  1  0.47939803  0.40892723  0.58083444  1
  N  N60  1  0.23259632  0.85111111  0.36844280  1
  N  N61  1  0.09528053  0.78120653  0.07432500  1
  N  N62  1  0.89131580  0.88758375  0.83211910  1
  N  N63  1  0.79392078  0.75296066  0.59956449  1
  N  N64  1  0.53856845  0.87518275  0.35823294  1
  N  N65  1  0.41663977  0.77362292  0.07439490  1
  N  N66  1  0.19576457  0.89084685  0.84813030  1
  N  N67  1  0.08566688  0.76896271  0.58500897  1
  N  N68  1  0.90407091  0.88099113  0.32489483  1
  N  N69  1  0.78941050  0.75898952  0.09958784  1
  N  N70  1  0.54606554  0.89008960  0.83811313  1
  N  N71  1  0.45182473  0.73521189  0.60463271  1
