# generated using pymatgen
data_Sc4Al5N9
_symmetry_space_group_name_H-M   'P 1'
_cell_length_a   10.32372791
_cell_length_b   10.28088797
_cell_length_c   9.60405244
_cell_angle_alpha   90.04364021
_cell_angle_beta   89.80191469
_cell_angle_gamma   60.03250877
_symmetry_Int_Tables_number   1
_chemical_formula_structural   Sc4Al5N9
_chemical_formula_sum   'Sc16 Al20 N36'
_cell_volume   883.05980502
_cell_formula_units_Z   4
loop_
 _symmetry_equiv_pos_site_id
 _symmetry_equiv_pos_as_xyz
  1  'x, y, z'
loop_
 _atom_site_type_symbol
 _atom_site_label
 _atom_site_symmetry_multiplicity
 _atom_site_fract_x
 _atom_site_fract_y
 _atom_site_fract_z
 _atom_site_occupancy
  Sc  Sc0  1  0.10421533  0.08884700  0.33905098  1
  Sc  Sc1  1  0.22545069  0.19840214  0.08798318  1
  Sc  Sc2  1  0.86894594  0.21509400  0.60042640  1
  Sc  Sc3  1  0.22751449  0.20554543  0.59057930  1
  Sc  Sc4  1  0.11617169  0.43340845  0.34921486  1
  Sc  Sc5  1  0.23082002  0.54639248  0.08473659  1
  Sc  Sc6  1  0.55845258  0.52753492  0.10063779  1
  Sc  Sc7  1  0.10993936  0.42996350  0.84694287  1
  Sc  Sc8  1  0.23097778  0.54453483  0.59528958  1
  Sc  Sc9  1  0.77785413  0.42663399  0.34678078  1
  Sc  Sc10  1  0.78175626  0.76572302  0.84721240  1
  Sc  Sc11  1  0.55285741  0.87547954  0.09232990  1
  Sc  Sc12  1  0.21878802  0.86672043  0.59312827  1
  Sc  Sc13  1  0.77991366  0.76762111  0.34317969  1
  Sc  Sc14  1  0.44284148  0.74888416  0.84774594  1
  Sc  Sc15  1  0.55217536  0.86893390  0.58917203  1
  Al  Al16  1  0.77432963  0.09033314  0.82709017  1
  Al  Al17  1  0.44998355  0.09695982  0.32304252  1
  Al  Al18  1  0.56424911  0.20055536  0.07305924  1
  Al  Al19  1  0.10611602  0.09533923  0.82337012  1
  Al  Al20  1  0.77585652  0.09433231  0.32059211  1
  Al  Al21  1  0.89132722  0.19396948  0.06967916  1
  Al  Al22  1  0.45050503  0.09798861  0.82409630  1
  Al  Al23  1  0.56668156  0.19739927  0.57276540  1
  Al  Al24  1  0.78060660  0.42090049  0.88206799  1
  Al  Al25  1  0.87917260  0.54257755  0.62434887  1
  Al  Al26  1  0.44803417  0.41919120  0.32909816  1
  Al  Al27  1  0.89549463  0.53805701  0.11660480  1
  Al  Al28  1  0.46646836  0.41474750  0.81826472  1
  Al  Al29  1  0.55730542  0.53783783  0.56405208  1
  Al  Al30  1  0.11151167  0.76905189  0.32168605  1
  Al  Al31  1  0.20130459  0.88248003  0.06569433  1
  Al  Al32  1  0.88578920  0.87685362  0.57166158  1
  Al  Al33  1  0.42618837  0.76525955  0.31623370  1
  Al  Al34  1  0.10063904  0.77387693  0.82560560  1
  Al  Al35  1  0.89189311  0.88049604  0.07656987  1
  N  N36  1  0.23936468  0.19581923  0.35510792  1
  N  N37  1  0.09662905  0.08806923  0.11223245  1
  N  N38  1  0.88584014  0.20283641  0.85991700  1
  N  N39  1  0.76741416  0.07902861  0.63114429  1
  N  N40  1  0.56148662  0.19775702  0.37429430  1
  N  N41  1  0.45855318  0.10312102  0.12432777  1
  N  N42  1  0.23091048  0.18870163  0.85423111  1
  N  N43  1  0.10386615  0.09917000  0.61914676  1
  N  N44  1  0.87325250  0.19641857  0.37554267  1
  N  N45  1  0.77683932  0.09590461  0.11927659  1
  N  N46  1  0.55847633  0.20362606  0.87447168  1
  N  N47  1  0.45724479  0.10382446  0.62584688  1
  N  N48  1  0.23351998  0.55236785  0.35803970  1
  N  N49  1  0.10435298  0.43644244  0.08589150  1
  N  N50  1  0.87507966  0.52912009  0.82982586  1
  N  N51  1  0.76627056  0.45304447  0.57450095  1
  N  N52  1  0.53559730  0.54935811  0.35250285  1
  N  N53  1  0.45783554  0.39991270  0.13259110  1
  N  N54  1  0.24167887  0.54889675  0.85030646  1
  N  N55  1  0.09436068  0.44264757  0.59869342  1
  N  N56  1  0.89224380  0.54105425  0.31617862  1
  N  N57  1  0.80251357  0.41254977  0.09242570  1
  N  N58  1  0.57162502  0.50995656  0.87805170  1
  N  N59  1  0.47910789  0.40891119  0.61670186  1
  N  N60  1  0.22664559  0.85702404  0.37171094  1
  N  N61  1  0.09793330  0.78292394  0.12234610  1
  N  N62  1  0.89696737  0.88575099  0.88005682  1
  N  N63  1  0.78986432  0.75694816  0.59737249  1
  N  N64  1  0.53491542  0.87640093  0.34975642  1
  N  N65  1  0.41344980  0.77105557  0.10655737  1
  N  N66  1  0.19993706  0.88488725  0.86218267  1
  N  N67  1  0.08446251  0.77241667  0.63009761  1
  N  N68  1  0.90016727  0.88413618  0.37065564  1
  N  N69  1  0.79391732  0.75766709  0.09655235  1
  N  N70  1  0.54631868  0.88704096  0.85907872  1
  N  N71  1  0.45029142  0.73617286  0.62639635  1
