# generated using pymatgen
data_Sc4Al5N9
_symmetry_space_group_name_H-M   'P 1'
_cell_length_a   10.35023217
_cell_length_b   10.30955479
_cell_length_c   9.53748573
_cell_angle_alpha   90.01278544
_cell_angle_beta   89.97940838
_cell_angle_gamma   60.19756313
_symmetry_Int_Tables_number   1
_chemical_formula_structural   Sc4Al5N9
_chemical_formula_sum   'Sc16 Al20 N36'
_cell_volume   883.11163549
_cell_formula_units_Z   4
loop_
 _symmetry_equiv_pos_site_id
 _symmetry_equiv_pos_as_xyz
  1  'x, y, z'
loop_
 _atom_site_type_symbol
 _atom_site_label
 _atom_site_symmetry_multiplicity
 _atom_site_fract_x
 _atom_site_fract_y
 _atom_site_fract_z
 _atom_site_occupancy
  Sc  Sc0  1  0.11382121  0.08762333  0.34468752  1
  Sc  Sc1  1  0.22781074  0.20397430  0.10127209  1
  Sc  Sc2  1  0.88108866  0.20860596  0.59882733  1
  Sc  Sc3  1  0.22713640  0.20193431  0.61192725  1
  Sc  Sc4  1  0.11398240  0.43223215  0.35867028  1
  Sc  Sc5  1  0.22778787  0.54666912  0.09762122  1
  Sc  Sc6  1  0.55853761  0.52839745  0.09424916  1
  Sc  Sc7  1  0.10745404  0.43209126  0.85318803  1
  Sc  Sc8  1  0.23249971  0.54339114  0.60366894  1
  Sc  Sc9  1  0.76425889  0.43865982  0.35543736  1
  Sc  Sc10  1  0.78153972  0.76456232  0.84840195  1
  Sc  Sc11  1  0.55320168  0.87733594  0.09927950  1
  Sc  Sc12  1  0.22145910  0.86656929  0.59035377  1
  Sc  Sc13  1  0.78061083  0.76574459  0.34418289  1
  Sc  Sc14  1  0.43619590  0.75902112  0.85035471  1
  Sc  Sc15  1  0.55404297  0.86621582  0.59650388  1
  Al  Al16  1  0.77888209  0.09288667  0.82500923  1
  Al  Al17  1  0.44907438  0.09860911  0.37126982  1
  Al  Al18  1  0.56290497  0.20096735  0.12634471  1
  Al  Al19  1  0.09646053  0.09964563  0.87575033  1
  Al  Al20  1  0.77620382  0.09039618  0.32949425  1
  Al  Al21  1  0.88346943  0.20117275  0.12407501  1
  Al  Al22  1  0.45131413  0.09808795  0.87185460  1
  Al  Al23  1  0.56257214  0.20059146  0.61905676  1
  Al  Al24  1  0.78749173  0.41148415  0.87884850  1
  Al  Al25  1  0.88104618  0.54064953  0.62567496  1
  Al  Al26  1  0.45354739  0.42713317  0.37504413  1
  Al  Al27  1  0.89285786  0.53777257  0.11545411  1
  Al  Al28  1  0.45684159  0.40984129  0.87217725  1
  Al  Al29  1  0.56811461  0.52482983  0.63763599  1
  Al  Al30  1  0.11190216  0.76807463  0.32108999  1
  Al  Al31  1  0.20157254  0.87926218  0.06783139  1
  Al  Al32  1  0.88794315  0.87386090  0.57071498  1
  Al  Al33  1  0.42915679  0.76052981  0.30998492  1
  Al  Al34  1  0.09956670  0.77486745  0.82332911  1
  Al  Al35  1  0.89010769  0.88251456  0.07230658  1
  N  N36  1  0.24257450  0.19887655  0.33233803  1
  N  N37  1  0.09482252  0.09174443  0.09116013  1
  N  N38  1  0.88729377  0.20365284  0.83605561  1
  N  N39  1  0.77248928  0.07945250  0.61342915  1
  N  N40  1  0.55751406  0.20461993  0.32974973  1
  N  N41  1  0.45929313  0.10435747  0.07220736  1
  N  N42  1  0.22825171  0.18842136  0.84863048  1
  N  N43  1  0.10915341  0.09661612  0.57176506  1
  N  N44  1  0.87430679  0.20215868  0.33766755  1
  N  N45  1  0.77651329  0.09292381  0.11310505  1
  N  N46  1  0.55575155  0.20276261  0.82248567  1
  N  N47  1  0.45684447  0.10187583  0.57148587  1
  N  N48  1  0.23522857  0.54921830  0.34955011  1
  N  N49  1  0.10049268  0.43935947  0.08475068  1
  N  N50  1  0.87511498  0.52878699  0.83045949  1
  N  N51  1  0.76761919  0.44852003  0.57952552  1
  N  N52  1  0.53415861  0.54910828  0.31727782  1
  N  N53  1  0.45774654  0.39982922  0.07158285  1
  N  N54  1  0.23677953  0.55155565  0.84721718  1
  N  N55  1  0.09570656  0.43986062  0.59860550  1
  N  N56  1  0.88995267  0.53984418  0.31599399  1
  N  N57  1  0.79964326  0.41347225  0.08486973  1
  N  N58  1  0.57435238  0.50737892  0.84666407  1
  N  N59  1  0.47736921  0.41068020  0.57713651  1
  N  N60  1  0.23038945  0.85356577  0.36172631  1
  N  N61  1  0.09531546  0.78388535  0.11949521  1
  N  N62  1  0.89540123  0.88667447  0.87275390  1
  N  N63  1  0.79192973  0.75391102  0.59521785  1
  N  N64  1  0.53589243  0.87623797  0.33971679  1
  N  N65  1  0.41427580  0.77347097  0.09374662  1
  N  N66  1  0.19599428  0.88768882  0.85910484  1
  N  N67  1  0.08699306  0.77194109  0.62503184  1
  N  N68  1  0.90176499  0.88130304  0.36855241  1
  N  N69  1  0.79326001  0.75777789  0.09359929  1
  N  N70  1  0.54699380  0.88785911  0.84447679  1
  N  N71  1  0.45126328  0.73410282  0.62673908  1
