# generated using pymatgen
data_Sc4Al5N9
_symmetry_space_group_name_H-M   'P 1'
_cell_length_a   10.32688360
_cell_length_b   10.28665076
_cell_length_c   9.59545225
_cell_angle_alpha   90.14153522
_cell_angle_beta   90.27046719
_cell_angle_gamma   60.19279247
_symmetry_Int_Tables_number   1
_chemical_formula_structural   Sc4Al5N9
_chemical_formula_sum   'Sc16 Al20 N36'
_cell_volume   884.45338088
_cell_formula_units_Z   4
loop_
 _symmetry_equiv_pos_site_id
 _symmetry_equiv_pos_as_xyz
  1  'x, y, z'
loop_
 _atom_site_type_symbol
 _atom_site_label
 _atom_site_symmetry_multiplicity
 _atom_site_fract_x
 _atom_site_fract_y
 _atom_site_fract_z
 _atom_site_occupancy
  Sc  Sc0  1  0.11050766  0.08921476  0.34408889  1
  Sc  Sc1  1  0.22835555  0.20334657  0.10174509  1
  Sc  Sc2  1  0.87955539  0.20785113  0.60749482  1
  Sc  Sc3  1  0.22602721  0.20216511  0.61244825  1
  Sc  Sc4  1  0.11438356  0.43188911  0.35896942  1
  Sc  Sc5  1  0.23009260  0.54368314  0.09623944  1
  Sc  Sc6  1  0.55901434  0.52907546  0.09441376  1
  Sc  Sc7  1  0.10799259  0.43162236  0.85335924  1
  Sc  Sc8  1  0.23312271  0.54297322  0.60318615  1
  Sc  Sc9  1  0.76499851  0.43677919  0.35668239  1
  Sc  Sc10  1  0.78098003  0.76263543  0.86014839  1
  Sc  Sc11  1  0.55365937  0.87803870  0.10424633  1
  Sc  Sc12  1  0.22083017  0.86703752  0.58781092  1
  Sc  Sc13  1  0.78227454  0.76593823  0.35746881  1
  Sc  Sc14  1  0.43640371  0.75942685  0.85001751  1
  Sc  Sc15  1  0.55330360  0.86769244  0.60090958  1
  Al  Al16  1  0.77664538  0.09821703  0.87691565  1
  Al  Al17  1  0.44919600  0.09899192  0.37224611  1
  Al  Al18  1  0.56576701  0.20010024  0.12731359  1
  Al  Al19  1  0.09632787  0.10064581  0.87692342  1
  Al  Al20  1  0.77349159  0.08971166  0.37406977  1
  Al  Al21  1  0.88119408  0.20073468  0.12695872  1
  Al  Al22  1  0.45269492  0.09780539  0.87208446  1
  Al  Al23  1  0.56504291  0.19957504  0.62073335  1
  Al  Al24  1  0.78783616  0.41216280  0.88032956  1
  Al  Al25  1  0.88109967  0.54050319  0.62738109  1
  Al  Al26  1  0.45464715  0.42639477  0.37426093  1
  Al  Al27  1  0.89300146  0.53750748  0.11838403  1
  Al  Al28  1  0.45858815  0.40915124  0.87094460  1
  Al  Al29  1  0.56846870  0.52488725  0.63758031  1
  Al  Al30  1  0.11414173  0.76647185  0.31656929  1
  Al  Al31  1  0.20279448  0.87984575  0.06540187  1
  Al  Al32  1  0.88104992  0.87777616  0.62776294  1
  Al  Al33  1  0.42946354  0.76108352  0.30982016  1
  Al  Al34  1  0.10260370  0.77316612  0.82495833  1
  Al  Al35  1  0.88814867  0.88220069  0.11804575  1
  N  N36  1  0.24232772  0.19829189  0.33112135  1
  N  N37  1  0.09380017  0.09236602  0.09019319  1
  N  N38  1  0.88669107  0.20385398  0.83495047  1
  N  N39  1  0.76909089  0.07993082  0.57206747  1
  N  N40  1  0.55945745  0.20313282  0.32534502  1
  N  N41  1  0.46032267  0.10476862  0.07043638  1
  N  N42  1  0.22856478  0.18827814  0.84784739  1
  N  N43  1  0.10596706  0.09834837  0.56950374  1
  N  N44  1  0.87002318  0.20031344  0.33019297  1
  N  N45  1  0.77508974  0.09650886  0.07579675  1
  N  N46  1  0.56137288  0.20023816  0.81980077  1
  N  N47  1  0.45583607  0.10368147  0.57131934  1
  N  N48  1  0.23609874  0.54852835  0.34608696  1
  N  N49  1  0.10016951  0.43883659  0.08378957  1
  N  N50  1  0.87588502  0.52767543  0.82910121  1
  N  N51  1  0.76831614  0.44715774  0.57915261  1
  N  N52  1  0.53446404  0.54920879  0.31627066  1
  N  N53  1  0.46020428  0.39854428  0.06867913  1
  N  N54  1  0.23839259  0.54985901  0.84475105  1
  N  N55  1  0.09559438  0.44000241  0.59780075  1
  N  N56  1  0.88948554  0.54037095  0.31655541  1
  N  N57  1  0.79997377  0.41359263  0.08426909  1
  N  N58  1  0.57494645  0.50772893  0.84579671  1
  N  N59  1  0.47862305  0.40983197  0.57545588  1
  N  N60  1  0.22973042  0.85435365  0.35939665  1
  N  N61  1  0.09972564  0.78008573  0.10772506  1
  N  N62  1  0.88921674  0.88917258  0.83439322  1
  N  N63  1  0.79181777  0.75397500  0.59451842  1
  N  N64  1  0.53653849  0.87670123  0.34071132  1
  N  N65  1  0.41522490  0.77446040  0.09347732  1
  N  N66  1  0.19602819  0.88899610  0.85800817  1
  N  N67  1  0.08891441  0.77105507  0.61989254  1
  N  N68  1  0.89813051  0.88384946  0.32248257  1
  N  N69  1  0.79339974  0.75691117  0.09095381  1
  N  N70  1  0.54674446  0.88812620  0.84332629  1
  N  N71  1  0.45097963  0.73449284  0.62690520  1
