# generated using pymatgen
data_Sc4Al5N9
_symmetry_space_group_name_H-M   'P 1'
_cell_length_a   10.32418051
_cell_length_b   10.28460638
_cell_length_c   9.59519428
_cell_angle_alpha   89.87208484
_cell_angle_beta   89.75680898
_cell_angle_gamma   60.00399855
_symmetry_Int_Tables_number   1
_chemical_formula_structural   Sc4Al5N9
_chemical_formula_sum   'Sc16 Al20 N36'
_cell_volume   882.35073089
_cell_formula_units_Z   4
loop_
 _symmetry_equiv_pos_site_id
 _symmetry_equiv_pos_as_xyz
  1  'x, y, z'
loop_
 _atom_site_type_symbol
 _atom_site_label
 _atom_site_symmetry_multiplicity
 _atom_site_fract_x
 _atom_site_fract_y
 _atom_site_fract_z
 _atom_site_occupancy
  Sc  Sc0  1  0.10469150  0.08853601  0.33519601  1
  Sc  Sc1  1  0.22527583  0.19894488  0.08717951  1
  Sc  Sc2  1  0.87453489  0.20405310  0.59814366  1
  Sc  Sc3  1  0.22745258  0.20570721  0.58942281  1
  Sc  Sc4  1  0.11720391  0.43318006  0.34638800  1
  Sc  Sc5  1  0.23171812  0.54685136  0.08506171  1
  Sc  Sc6  1  0.56586175  0.52414601  0.09450794  1
  Sc  Sc7  1  0.10909471  0.43078491  0.84751390  1
  Sc  Sc8  1  0.23025610  0.54474557  0.59389796  1
  Sc  Sc9  1  0.77869672  0.42410657  0.34681123  1
  Sc  Sc10  1  0.78145561  0.76611357  0.84781210  1
  Sc  Sc11  1  0.55253742  0.87594245  0.09245823  1
  Sc  Sc12  1  0.22002876  0.86553633  0.59144308  1
  Sc  Sc13  1  0.77943089  0.76872978  0.34201371  1
  Sc  Sc14  1  0.44136790  0.75101519  0.84785879  1
  Sc  Sc15  1  0.55142508  0.86984211  0.58821911  1
  Al  Al16  1  0.77307738  0.09044674  0.82757611  1
  Al  Al17  1  0.44996327  0.09732029  0.32240184  1
  Al  Al18  1  0.56428332  0.20152420  0.07298064  1
  Al  Al19  1  0.10677857  0.09534444  0.82371970  1
  Al  Al20  1  0.77620869  0.09488176  0.31833564  1
  Al  Al21  1  0.88790073  0.20261878  0.06381008  1
  Al  Al22  1  0.45000920  0.09850899  0.82371338  1
  Al  Al23  1  0.56602708  0.19742887  0.57202640  1
  Al  Al24  1  0.77299188  0.42459569  0.82870557  1
  Al  Al25  1  0.88216404  0.54444508  0.62115682  1
  Al  Al26  1  0.44949510  0.42005870  0.32829830  1
  Al  Al27  1  0.89336016  0.53587726  0.11919931  1
  Al  Al28  1  0.46369254  0.41497449  0.81809192  1
  Al  Al29  1  0.55552022  0.53695734  0.56691405  1
  Al  Al30  1  0.11179195  0.76917838  0.32082021  1
  Al  Al31  1  0.20134269  0.88254229  0.06531593  1
  Al  Al32  1  0.88535422  0.87624190  0.57045889  1
  Al  Al33  1  0.42782750  0.76325856  0.31544067  1
  Al  Al34  1  0.10017248  0.77420911  0.82525735  1
  Al  Al35  1  0.89200833  0.88132653  0.07686229  1
  N  N36  1  0.23918397  0.19553541  0.35408456  1
  N  N37  1  0.09530455  0.08935834  0.10828976  1
  N  N38  1  0.88401706  0.20564511  0.85505260  1
  N  N39  1  0.76611711  0.07697256  0.63161034  1
  N  N40  1  0.56193755  0.19803621  0.37335099  1
  N  N41  1  0.45844641  0.10394990  0.12386746  1
  N  N42  1  0.23067569  0.18957933  0.85408762  1
  N  N43  1  0.10740030  0.09648539  0.61939237  1
  N  N44  1  0.87465669  0.19446576  0.37796690  1
  N  N45  1  0.77734069  0.09775233  0.11706162  1
  N  N46  1  0.55738374  0.20416854  0.87423005  1
  N  N47  1  0.45672000  0.10406931  0.62519470  1
  N  N48  1  0.23443145  0.55247041  0.35686241  1
  N  N49  1  0.10329833  0.43749065  0.08917865  1
  N  N50  1  0.87598547  0.53130840  0.82934707  1
  N  N51  1  0.76619341  0.44677762  0.59962733  1
  N  N52  1  0.53798059  0.54840386  0.35788889  1
  N  N53  1  0.45981066  0.40130556  0.13165299  1
  N  N54  1  0.24060913  0.54934933  0.85062799  1
  N  N55  1  0.09541453  0.44231982  0.59806220  1
  N  N56  1  0.89129871  0.54136200  0.32503124  1
  N  N57  1  0.80290033  0.41121735  0.11001574  1
  N  N58  1  0.57045862  0.51052028  0.87304765  1
  N  N59  1  0.47681389  0.40849998  0.61679109  1
  N  N60  1  0.22743097  0.85683531  0.36974876  1
  N  N61  1  0.09814112  0.78302418  0.12182562  1
  N  N62  1  0.89668938  0.88582590  0.88028004  1
  N  N63  1  0.78889816  0.75751598  0.59589422  1
  N  N64  1  0.53449713  0.87675761  0.34914101  1
  N  N65  1  0.41504978  0.76916697  0.10575878  1
  N  N66  1  0.19957482  0.88482304  0.86189923  1
  N  N67  1  0.08394075  0.77300701  0.62941309  1
  N  N68  1  0.90031644  0.88470605  0.36938392  1
  N  N69  1  0.79396123  0.75687852  0.09836338  1
  N  N70  1  0.54592876  0.88774624  0.85928393  1
  N  N71  1  0.45100677  0.73624194  0.62641356  1
