# generated using pymatgen
data_Sc4Al5N9
_symmetry_space_group_name_H-M   'P 1'
_cell_length_a   10.34614678
_cell_length_b   10.30890122
_cell_length_c   9.55156993
_cell_angle_alpha   90.07399991
_cell_angle_beta   90.01748862
_cell_angle_gamma   60.18830887
_symmetry_Int_Tables_number   1
_chemical_formula_structural   Sc4Al5N9
_chemical_formula_sum   'Sc16 Al20 N36'
_cell_volume   883.92816211
_cell_formula_units_Z   4
loop_
 _symmetry_equiv_pos_site_id
 _symmetry_equiv_pos_as_xyz
  1  'x, y, z'
loop_
 _atom_site_type_symbol
 _atom_site_label
 _atom_site_symmetry_multiplicity
 _atom_site_fract_x
 _atom_site_fract_y
 _atom_site_fract_z
 _atom_site_occupancy
  Sc  Sc0  1  0.10812239  0.08993049  0.34427383  1
  Sc  Sc1  1  0.22712180  0.20359076  0.10247006  1
  Sc  Sc2  1  0.87850979  0.20808673  0.59535259  1
  Sc  Sc3  1  0.22772686  0.20213565  0.61042461  1
  Sc  Sc4  1  0.11404849  0.43227014  0.35939576  1
  Sc  Sc5  1  0.22774552  0.54662741  0.09875283  1
  Sc  Sc6  1  0.55816854  0.52912690  0.09520233  1
  Sc  Sc7  1  0.10810359  0.43188438  0.85342297  1
  Sc  Sc8  1  0.23275954  0.54328161  0.60355036  1
  Sc  Sc9  1  0.76537360  0.43586221  0.35497833  1
  Sc  Sc10  1  0.78184050  0.76487613  0.84857269  1
  Sc  Sc11  1  0.55333498  0.87705120  0.09999202  1
  Sc  Sc12  1  0.22146310  0.86623360  0.59012601  1
  Sc  Sc13  1  0.78062433  0.76581851  0.34484615  1
  Sc  Sc14  1  0.43684918  0.75877730  0.85004440  1
  Sc  Sc15  1  0.55427505  0.86633306  0.59637182  1
  Al  Al16  1  0.77790768  0.08998460  0.82461583  1
  Al  Al17  1  0.44931588  0.09863193  0.37083876  1
  Al  Al18  1  0.56158815  0.20183781  0.12577867  1
  Al  Al19  1  0.10211690  0.09701861  0.86856441  1
  Al  Al20  1  0.77865588  0.09239745  0.32103025  1
  Al  Al21  1  0.88458664  0.19985800  0.08454774  1
  Al  Al22  1  0.45070094  0.09817896  0.87278914  1
  Al  Al23  1  0.56283345  0.19997948  0.62065685  1
  Al  Al24  1  0.78469956  0.41692754  0.87607945  1
  Al  Al25  1  0.88145884  0.54109787  0.62487911  1
  Al  Al26  1  0.45458198  0.42610992  0.37532052  1
  Al  Al27  1  0.89307912  0.53780907  0.11685221  1
  Al  Al28  1  0.45600724  0.41055750  0.87250805  1
  Al  Al29  1  0.56770026  0.52519647  0.63700043  1
  Al  Al30  1  0.11192581  0.76861482  0.32184425  1
  Al  Al31  1  0.20190567  0.87908658  0.06710996  1
  Al  Al32  1  0.88756666  0.87501012  0.56965178  1
  Al  Al33  1  0.42865790  0.76119634  0.31055237  1
  Al  Al34  1  0.09966309  0.77408815  0.82294444  1
  Al  Al35  1  0.89126580  0.88072386  0.07381067  1
  N  N36  1  0.24128035  0.19830734  0.33396820  1
  N  N37  1  0.09668062  0.09050810  0.09077267  1
  N  N38  1  0.88591082  0.20263197  0.85374689  1
  N  N39  1  0.77295712  0.07745470  0.62199985  1
  N  N40  1  0.55802861  0.20436754  0.32825194  1
  N  N41  1  0.45868463  0.10424430  0.07281973  1
  N  N42  1  0.22935854  0.18837344  0.84784815  1
  N  N43  1  0.10814558  0.09673463  0.57976524  1
  N  N44  1  0.87263429  0.20205798  0.35613833  1
  N  N45  1  0.77762160  0.09344617  0.11344750  1
  N  N46  1  0.55404317  0.20340586  0.82402640  1
  N  N47  1  0.45772000  0.10165396  0.57064232  1
  N  N48  1  0.23544776  0.54927722  0.35005214  1
  N  N49  1  0.10058709  0.43908166  0.08477973  1
  N  N50  1  0.87584459  0.52973271  0.82918760  1
  N  N51  1  0.76779944  0.44853808  0.58202034  1
  N  N52  1  0.53406838  0.54927379  0.31771155  1
  N  N53  1  0.45764447  0.40046723  0.07132100  1
  N  N54  1  0.23653735  0.55167329  0.84727325  1
  N  N55  1  0.09616983  0.43998142  0.59833732  1
  N  N56  1  0.89007145  0.53936719  0.31677602  1
  N  N57  1  0.79878145  0.41559592  0.08345758  1
  N  N58  1  0.57320229  0.50824005  0.84611100  1
  N  N59  1  0.47816139  0.40972834  0.57722142  1
  N  N60  1  0.22954235  0.85520948  0.36274791  1
  N  N61  1  0.09621001  0.78365904  0.12072859  1
  N  N62  1  0.89658739  0.88538093  0.87552377  1
  N  N63  1  0.79216803  0.75434934  0.59443918  1
  N  N64  1  0.53602483  0.87619577  0.33961968  1
  N  N65  1  0.41428885  0.77360070  0.09393070  1
  N  N66  1  0.19697745  0.88599855  0.85880432  1
  N  N67  1  0.08650999  0.77181561  0.62505935  1
  N  N68  1  0.90078750  0.88325510  0.36789594  1
  N  N69  1  0.79351753  0.75750767  0.09448814  1
  N  N70  1  0.54730491  0.88800103  0.84461976  1
  N  N71  1  0.45131458  0.73437649  0.62676298  1
