# generated using pymatgen
data_Sc4Al5N9
_symmetry_space_group_name_H-M   'P 1'
_cell_length_a   10.38368690
_cell_length_b   10.34573037
_cell_length_c   9.43952404
_cell_angle_alpha   90.17568047
_cell_angle_beta   90.08006938
_cell_angle_gamma   60.09497138
_symmetry_Int_Tables_number   1
_chemical_formula_structural   Sc4Al5N9
_chemical_formula_sum   'Sc16 Al20 N36'
_cell_volume   879.03515582
_cell_formula_units_Z   4
loop_
 _symmetry_equiv_pos_site_id
 _symmetry_equiv_pos_as_xyz
  1  'x, y, z'
loop_
 _atom_site_type_symbol
 _atom_site_label
 _atom_site_symmetry_multiplicity
 _atom_site_fract_x
 _atom_site_fract_y
 _atom_site_fract_z
 _atom_site_occupancy
  Sc  Sc0  1  0.10501236  0.08906426  0.34197547  1
  Sc  Sc1  1  0.22384453  0.20033073  0.09843554  1
  Sc  Sc2  1  0.87085434  0.21173447  0.59860528  1
  Sc  Sc3  1  0.22815081  0.20510001  0.60151403  1
  Sc  Sc4  1  0.11471810  0.43347768  0.35363631  1
  Sc  Sc5  1  0.22724293  0.54778338  0.09731812  1
  Sc  Sc6  1  0.55854247  0.52998333  0.10029102  1
  Sc  Sc7  1  0.10897593  0.43090780  0.85178914  1
  Sc  Sc8  1  0.23332782  0.54278454  0.60259370  1
  Sc  Sc9  1  0.77462903  0.42888028  0.34815166  1
  Sc  Sc10  1  0.78200723  0.76476557  0.84937725  1
  Sc  Sc11  1  0.55174737  0.87665452  0.09963323  1
  Sc  Sc12  1  0.21951619  0.86550909  0.59342700  1
  Sc  Sc13  1  0.78037767  0.76620444  0.34501088  1
  Sc  Sc14  1  0.44069257  0.75190390  0.84828311  1
  Sc  Sc15  1  0.55425092  0.86840062  0.59757866  1
  Al  Al16  1  0.77667677  0.08926167  0.82982852  1
  Al  Al17  1  0.45004708  0.09750427  0.37024112  1
  Al  Al18  1  0.56239102  0.19987825  0.12284310  1
  Al  Al19  1  0.10542015  0.09547741  0.82431624  1
  Al  Al20  1  0.77953489  0.09219468  0.32092916  1
  Al  Al21  1  0.89080304  0.19590987  0.06962866  1
  Al  Al22  1  0.44916614  0.09841081  0.87123224  1
  Al  Al23  1  0.56276740  0.20081050  0.62270027  1
  Al  Al24  1  0.78022275  0.42079014  0.87458970  1
  Al  Al25  1  0.88148989  0.54205039  0.62329995  1
  Al  Al26  1  0.45378498  0.42177426  0.36858925  1
  Al  Al27  1  0.89356374  0.53778023  0.11445500  1
  Al  Al28  1  0.45787673  0.41305216  0.87558806  1
  Al  Al29  1  0.56290869  0.53245430  0.59596869  1
  Al  Al30  1  0.11205091  0.76940309  0.32209007  1
  Al  Al31  1  0.20089297  0.88371711  0.06514644  1
  Al  Al32  1  0.88717407  0.87526947  0.57170052  1
  Al  Al33  1  0.42787064  0.76351701  0.31688167  1
  Al  Al34  1  0.10036822  0.77301725  0.82642087  1
  Al  Al35  1  0.89206025  0.88040091  0.07656718  1
  N  N36  1  0.23890646  0.19696171  0.34367288  1
  N  N37  1  0.09641555  0.08890855  0.10752011  1
  N  N38  1  0.88621324  0.20312674  0.85574896  1
  N  N39  1  0.77134779  0.07684195  0.62529393  1
  N  N40  1  0.55997488  0.20047210  0.32794209  1
  N  N41  1  0.45632444  0.10395455  0.07547513  1
  N  N42  1  0.23030058  0.18952356  0.84686531  1
  N  N43  1  0.10464581  0.09805939  0.61173063  1
  N  N44  1  0.87353408  0.19784459  0.36911757  1
  N  N45  1  0.77889776  0.09492220  0.11038568  1
  N  N46  1  0.55356987  0.20509167  0.82974589  1
  N  N47  1  0.45848674  0.10251078  0.57431019  1
  N  N48  1  0.23551851  0.55027861  0.34839720  1
  N  N49  1  0.10212252  0.43722259  0.08792122  1
  N  N50  1  0.87613942  0.52959255  0.83199473  1
  N  N51  1  0.76868560  0.45006663  0.58026101  1
  N  N52  1  0.53795094  0.54960110  0.33555493  1
  N  N53  1  0.45772173  0.40198817  0.08093173  1
  N  N54  1  0.23801929  0.55052947  0.84925088  1
  N  N55  1  0.09596303  0.44169015  0.59832928  1
  N  N56  1  0.89108187  0.54051702  0.31821849  1
  N  N57  1  0.80012841  0.41353815  0.08837806  1
  N  N58  1  0.57158055  0.51077084  0.85676416  1
  N  N59  1  0.47723440  0.40815916  0.57428064  1
  N  N60  1  0.22766696  0.85694693  0.36733373  1
  N  N61  1  0.09762641  0.78445339  0.11845389  1
  N  N62  1  0.89693280  0.88409552  0.87586539  1
  N  N63  1  0.79194524  0.75512638  0.59559392  1
  N  N64  1  0.53567778  0.87715922  0.34235398  1
  N  N65  1  0.41355988  0.77274054  0.09899913  1
  N  N66  1  0.19876561  0.88541260  0.85724041  1
  N  N67  1  0.08644380  0.77024555  0.62542357  1
  N  N68  1  0.90077123  0.88302723  0.36627577  1
  N  N69  1  0.79278587  0.75814831  0.09556658  1
  N  N70  1  0.54690942  0.88674931  0.84571228  1
  N  N71  1  0.45004381  0.73708050  0.62095403  1
