# generated using pymatgen
data_Sc4Al5N9
_symmetry_space_group_name_H-M   'P 1'
_cell_length_a   10.37952151
_cell_length_b   10.33497231
_cell_length_c   9.44187182
_cell_angle_alpha   90.17174392
_cell_angle_beta   89.95051355
_cell_angle_gamma   60.03112915
_symmetry_Int_Tables_number   1
_chemical_formula_structural   Sc4Al5N9
_chemical_formula_sum   'Sc16 Al20 N36'
_cell_volume   877.42087339
_cell_formula_units_Z   4
loop_
 _symmetry_equiv_pos_site_id
 _symmetry_equiv_pos_as_xyz
  1  'x, y, z'
loop_
 _atom_site_type_symbol
 _atom_site_label
 _atom_site_symmetry_multiplicity
 _atom_site_fract_x
 _atom_site_fract_y
 _atom_site_fract_z
 _atom_site_occupancy
  Sc  Sc0  1  0.10381418  0.08884361  0.34302628  1
  Sc  Sc1  1  0.22447371  0.19978557  0.09531326  1
  Sc  Sc2  1  0.86894187  0.21473257  0.60121656  1
  Sc  Sc3  1  0.22643802  0.20608439  0.59761954  1
  Sc  Sc4  1  0.11494344  0.43431787  0.35080943  1
  Sc  Sc5  1  0.23154305  0.54609597  0.08833857  1
  Sc  Sc6  1  0.55866283  0.52739735  0.10078948  1
  Sc  Sc7  1  0.10980773  0.43101125  0.84939042  1
  Sc  Sc8  1  0.23115630  0.54478964  0.59617119  1
  Sc  Sc9  1  0.77838804  0.42673508  0.34605717  1
  Sc  Sc10  1  0.78253150  0.76500032  0.84996747  1
  Sc  Sc11  1  0.55176914  0.87601545  0.09737264  1
  Sc  Sc12  1  0.21866773  0.86638257  0.59555438  1
  Sc  Sc13  1  0.77997401  0.76713980  0.34579047  1
  Sc  Sc14  1  0.44209422  0.74842107  0.84956697  1
  Sc  Sc15  1  0.55329258  0.86759600  0.59739816  1
  Al  Al16  1  0.77493312  0.08998278  0.82815549  1
  Al  Al17  1  0.44917598  0.09517787  0.34765434  1
  Al  Al18  1  0.56464912  0.20144288  0.07324326  1
  Al  Al19  1  0.10519858  0.09562273  0.82567751  1
  Al  Al20  1  0.77601198  0.09422283  0.32002622  1
  Al  Al21  1  0.89110040  0.19498972  0.07142107  1
  Al  Al22  1  0.44911745  0.09763408  0.84492721  1
  Al  Al23  1  0.56800133  0.19727752  0.57339392  1
  Al  Al24  1  0.78042305  0.42112020  0.87880413  1
  Al  Al25  1  0.88013340  0.54256523  0.62367456  1
  Al  Al26  1  0.44913671  0.41893922  0.33099201  1
  Al  Al27  1  0.89474133  0.53860496  0.11478398  1
  Al  Al28  1  0.46650565  0.41496928  0.81777394  1
  Al  Al29  1  0.55829881  0.53742859  0.56588258  1
  Al  Al30  1  0.11129095  0.76914950  0.32263491  1
  Al  Al31  1  0.20134604  0.88275448  0.06723721  1
  Al  Al32  1  0.88621820  0.87660116  0.57275456  1
  Al  Al33  1  0.42626304  0.76452690  0.31855887  1
  Al  Al34  1  0.10051266  0.77351080  0.82759843  1
  Al  Al35  1  0.89183570  0.88055581  0.07851609  1
  N  N36  1  0.23802540  0.19707833  0.35034044  1
  N  N37  1  0.09651756  0.08822175  0.11011972  1
  N  N38  1  0.88576536  0.20330958  0.85818618  1
  N  N39  1  0.76839258  0.07881308  0.62854919  1
  N  N40  1  0.56294290  0.19741835  0.36933204  1
  N  N41  1  0.45657102  0.10318749  0.10214513  1
  N  N42  1  0.22973958  0.18991918  0.85087240  1
  N  N43  1  0.10307396  0.09895639  0.61501011  1
  N  N44  1  0.87265504  0.19728739  0.37188372  1
  N  N45  1  0.77696510  0.09614046  0.11551992  1
  N  N46  1  0.55941847  0.20464103  0.86887919  1
  N  N47  1  0.45679034  0.10222420  0.60688755  1
  N  N48  1  0.23373891  0.55209536  0.35521515  1
  N  N49  1  0.10378001  0.43783565  0.08803585  1
  N  N50  1  0.87613166  0.52937470  0.83327805  1
  N  N51  1  0.76672534  0.45228757  0.57842962  1
  N  N52  1  0.53683697  0.54918851  0.35179454  1
  N  N53  1  0.45873041  0.40031629  0.13036618  1
  N  N54  1  0.24260076  0.54844710  0.84950142  1
  N  N55  1  0.09462926  0.44309092  0.59901278  1
  N  N56  1  0.89158089  0.54153166  0.31866508  1
  N  N57  1  0.80197893  0.41283004  0.09276117  1
  N  N58  1  0.57232792  0.50990484  0.87435300  1
  N  N59  1  0.47870530  0.40903739  0.61209097  1
  N  N60  1  0.22634916  0.85710777  0.36969854  1
  N  N61  1  0.09822054  0.78267345  0.11947799  1
  N  N62  1  0.89672675  0.88529843  0.87808600  1
  N  N63  1  0.79117886  0.75626806  0.59735939  1
  N  N64  1  0.53497971  0.87631875  0.34782150  1
  N  N65  1  0.41358281  0.77043403  0.10468483  1
  N  N66  1  0.19964854  0.88508372  0.85979135  1
  N  N67  1  0.08498345  0.77175079  0.62775731  1
  N  N68  1  0.89982728  0.88414647  0.36750984  1
  N  N69  1  0.79297980  0.75850658  0.09690544  1
  N  N70  1  0.54713310  0.88489190  0.85254543  1
  N  N71  1  0.44944211  0.73583681  0.62412978  1
