# generated using pymatgen
data_Sc4Al5N9
_symmetry_space_group_name_H-M   'P 1'
_cell_length_a   10.25020250
_cell_length_b   10.20673790
_cell_length_c   9.82582145
_cell_angle_alpha   89.98094422
_cell_angle_beta   90.17116867
_cell_angle_gamma   60.19379298
_symmetry_Int_Tables_number   1
_chemical_formula_structural   Sc4Al5N9
_chemical_formula_sum   'Sc16 Al20 N36'
_cell_volume   891.99165902
_cell_formula_units_Z   4
loop_
 _symmetry_equiv_pos_site_id
 _symmetry_equiv_pos_as_xyz
  1  'x, y, z'
loop_
 _atom_site_type_symbol
 _atom_site_label
 _atom_site_symmetry_multiplicity
 _atom_site_fract_x
 _atom_site_fract_y
 _atom_site_fract_z
 _atom_site_occupancy
  Sc  Sc0  1  0.11391812  0.08519848  0.35004603  1
  Sc  Sc1  1  0.22795909  0.20308468  0.10647787  1
  Sc  Sc2  1  0.87795836  0.20928169  0.61942862  1
  Sc  Sc3  1  0.22480253  0.20221646  0.62854612  1
  Sc  Sc4  1  0.11703799  0.42714369  0.37127557  1
  Sc  Sc5  1  0.22994144  0.54187455  0.10463672  1
  Sc  Sc6  1  0.55295030  0.53922263  0.10995574  1
  Sc  Sc7  1  0.10578217  0.43401345  0.86210109  1
  Sc  Sc8  1  0.23453092  0.54053108  0.61159396  1
  Sc  Sc9  1  0.77008708  0.43182367  0.36445280  1
  Sc  Sc10  1  0.77586733  0.76555456  0.87515582  1
  Sc  Sc11  1  0.54667808  0.87355832  0.13036340  1
  Sc  Sc12  1  0.21057725  0.87443270  0.59993139  1
  Sc  Sc13  1  0.78688134  0.76283335  0.37004618  1
  Sc  Sc14  1  0.43787585  0.76065651  0.85051015  1
  Sc  Sc15  1  0.55724235  0.87603646  0.60947885  1
  Al  Al16  1  0.77574955  0.09801844  0.88547699  1
  Al  Al17  1  0.44785453  0.10164588  0.38106734  1
  Al  Al18  1  0.56621001  0.19862706  0.13275895  1
  Al  Al19  1  0.09397095  0.10257916  0.88625806  1
  Al  Al20  1  0.77463912  0.08922378  0.38094474  1
  Al  Al21  1  0.88078327  0.20056487  0.13185963  1
  Al  Al22  1  0.45384260  0.09601246  0.88168895  1
  Al  Al23  1  0.56421651  0.20189326  0.62955793  1
  Al  Al24  1  0.78341535  0.41609107  0.88809434  1
  Al  Al25  1  0.88068560  0.54161459  0.63595056  1
  Al  Al26  1  0.45573458  0.42330355  0.38083314  1
  Al  Al27  1  0.89223760  0.53777019  0.12731056  1
  Al  Al28  1  0.45889949  0.41195088  0.87936789  1
  Al  Al29  1  0.57062049  0.52277069  0.63950212  1
  Al  Al30  1  0.11924948  0.76489000  0.32039736  1
  Al  Al31  1  0.20641137  0.87629169  0.06215670  1
  Al  Al32  1  0.87888957  0.87793823  0.63682295  1
  Al  Al33  1  0.44166870  0.74862936  0.39335580  1
  Al  Al34  1  0.10112100  0.77129503  0.82680205  1
  Al  Al35  1  0.88765431  0.88208460  0.13011636  1
  N  N36  1  0.24443775  0.19574123  0.32710909  1
  N  N37  1  0.09437731  0.09006042  0.09062527  1
  N  N38  1  0.88449069  0.20607365  0.84056758  1
  N  N39  1  0.76839556  0.08010569  0.57498231  1
  N  N40  1  0.56040759  0.20207395  0.32685817  1
  N  N41  1  0.46365943  0.09827092  0.07393641  1
  N  N42  1  0.22773612  0.18873111  0.85471609  1
  N  N43  1  0.10201096  0.10451276  0.56980985  1
  N  N44  1  0.87211022  0.19755028  0.32865116  1
  N  N45  1  0.77577923  0.09464786  0.07914106  1
  N  N46  1  0.56021375  0.20189050  0.82475244  1
  N  N47  1  0.45060706  0.11293390  0.57325455  1
  N  N48  1  0.23742458  0.54526497  0.34824907  1
  N  N49  1  0.09777526  0.43982834  0.08273860  1
  N  N50  1  0.87231919  0.53102519  0.83122955  1
  N  N51  1  0.77059405  0.44643359  0.58096376  1
  N  N52  1  0.53654888  0.54892933  0.32658600  1
  N  N53  1  0.46254558  0.39952096  0.07208769  1
  N  N54  1  0.23864486  0.54973076  0.84875735  1
  N  N55  1  0.09575951  0.43891882  0.60313446  1
  N  N56  1  0.89316839  0.53723220  0.31939039  1
  N  N57  1  0.79619869  0.41651908  0.08686964  1
  N  N58  1  0.57284962  0.51099229  0.84022170  1
  N  N59  1  0.47961774  0.40949974  0.57689119  1
  N  N60  1  0.23273955  0.85079366  0.37654490  1
  N  N61  1  0.10194602  0.78002156  0.11653123  1
  N  N62  1  0.88629024  0.88954381  0.83670489  1
  N  N63  1  0.79460219  0.75282119  0.59538149  1
  N  N64  1  0.53867185  0.87515287  0.35788435  1
  N  N65  1  0.41749607  0.77406362  0.06989019  1
  N  N66  1  0.19336177  0.89028334  0.85519050  1
  N  N67  1  0.08753251  0.76872187  0.62844163  1
  N  N68  1  0.90016571  0.88289934  0.32715261  1
  N  N69  1  0.78849594  0.75854329  0.09863767  1
  N  N70  1  0.54531669  0.89148877  0.83164098  1
  N  N71  1  0.45286483  0.73515697  0.60324428  1
