# generated using pymatgen
data_Sc4Al5N9
_symmetry_space_group_name_H-M   'P 1'
_cell_length_a   10.34564246
_cell_length_b   10.30267904
_cell_length_c   9.53562912
_cell_angle_alpha   90.06888505
_cell_angle_beta   89.83759175
_cell_angle_gamma   60.04188130
_symmetry_Int_Tables_number   1
_chemical_formula_structural   Sc4Al5N9
_chemical_formula_sum   'Sc16 Al20 N36'
_cell_volume   880.57635483
_cell_formula_units_Z   4
loop_
 _symmetry_equiv_pos_site_id
 _symmetry_equiv_pos_as_xyz
  1  'x, y, z'
loop_
 _atom_site_type_symbol
 _atom_site_label
 _atom_site_symmetry_multiplicity
 _atom_site_fract_x
 _atom_site_fract_y
 _atom_site_fract_z
 _atom_site_occupancy
  Sc  Sc0  1  0.10415539  0.08889947  0.34068581  1
  Sc  Sc1  1  0.22526078  0.19864626  0.08957377  1
  Sc  Sc2  1  0.86897808  0.21470680  0.60094415  1
  Sc  Sc3  1  0.22741495  0.20576565  0.59161310  1
  Sc  Sc4  1  0.11566968  0.43373835  0.34911703  1
  Sc  Sc5  1  0.23123498  0.54620641  0.08654981  1
  Sc  Sc6  1  0.55855568  0.52736193  0.10076659  1
  Sc  Sc7  1  0.11009090  0.43020669  0.84762325  1
  Sc  Sc8  1  0.23096032  0.54466388  0.59558180  1
  Sc  Sc9  1  0.77804762  0.42665779  0.34665413  1
  Sc  Sc10  1  0.78186350  0.76561860  0.84794874  1
  Sc  Sc11  1  0.55250225  0.87554188  0.09314108  1
  Sc  Sc12  1  0.21874191  0.86665258  0.59435408  1
  Sc  Sc13  1  0.77976528  0.76750985  0.34384165  1
  Sc  Sc14  1  0.44264784  0.74882408  0.84840920  1
  Sc  Sc15  1  0.55216114  0.86900917  0.59077670  1
  Al  Al16  1  0.77435331  0.09019014  0.82798437  1
  Al  Al17  1  0.44990637  0.09694346  0.32384791  1
  Al  Al18  1  0.56416885  0.20060071  0.07351021  1
  Al  Al19  1  0.10592272  0.09560103  0.82417763  1
  Al  Al20  1  0.77575113  0.09430745  0.32066094  1
  Al  Al21  1  0.89113912  0.19445477  0.07054497  1
  Al  Al22  1  0.45040239  0.09803829  0.82494192  1
  Al  Al23  1  0.56682006  0.19707249  0.57310494  1
  Al  Al24  1  0.78048856  0.42096240  0.88046136  1
  Al  Al25  1  0.87957920  0.54257686  0.62407219  1
  Al  Al26  1  0.44862458  0.41897783  0.33038915  1
  Al  Al27  1  0.89514166  0.53819004  0.11566243  1
  Al  Al28  1  0.46636302  0.41462043  0.81842594  1
  Al  Al29  1  0.55781320  0.53757488  0.56525777  1
  Al  Al30  1  0.11139256  0.76918910  0.32213020  1
  Al  Al31  1  0.20138735  0.88259986  0.06626913  1
  Al  Al32  1  0.88583705  0.87677944  0.57214797  1
  Al  Al33  1  0.42635050  0.76500980  0.31734995  1
  Al  Al34  1  0.10058412  0.77363949  0.82655708  1
  Al  Al35  1  0.89185224  0.88049307  0.07747294  1
  N  N36  1  0.23912432  0.19622715  0.35390946  1
  N  N37  1  0.09665335  0.08820959  0.11135377  1
  N  N38  1  0.88580164  0.20299771  0.85918231  1
  N  N39  1  0.76751124  0.07893026  0.63042185  1
  N  N40  1  0.56181920  0.19732506  0.37330818  1
  N  N41  1  0.45844176  0.10301931  0.12305487  1
  N  N42  1  0.23069118  0.18904345  0.85356599  1
  N  N43  1  0.10375695  0.09924452  0.61731378  1
  N  N44  1  0.87298423  0.19674926  0.37407217  1
  N  N45  1  0.77679351  0.09594861  0.11795191  1
  N  N46  1  0.55843491  0.20370963  0.87350748  1
  N  N47  1  0.45703303  0.10389577  0.62477028  1
  N  N48  1  0.23356200  0.55229236  0.35670401  1
  N  N49  1  0.10432960  0.43667596  0.08712231  1
  N  N50  1  0.87561886  0.52932466  0.83152728  1
  N  N51  1  0.76655445  0.45246633  0.57663531  1
  N  N52  1  0.53616457  0.54924457  0.35248573  1
  N  N53  1  0.45834601  0.39983719  0.13209376  1
  N  N54  1  0.24203028  0.54868855  0.85014679  1
  N  N55  1  0.09449298  0.44275877  0.59883072  1
  N  N56  1  0.89184746  0.54130956  0.31727000  1
  N  N57  1  0.80220690  0.41264105  0.09262770  1
  N  N58  1  0.57185097  0.50991715  0.87639877  1
  N  N59  1  0.47881760  0.40884034  0.61507728  1
  N  N60  1  0.22652647  0.85708471  0.37096913  1
  N  N61  1  0.09807863  0.78283934  0.12113158  1
  N  N62  1  0.89685458  0.88549831  0.87935622  1
  N  N63  1  0.78999631  0.75682657  0.59736471  1
  N  N64  1  0.53478908  0.87650784  0.34943035  1
  N  N65  1  0.41359557  0.77073006  0.10574058  1
  N  N66  1  0.19987475  0.88497278  0.86099152  1
  N  N67  1  0.08460009  0.77214967  0.62917377  1
  N  N68  1  0.89997240  0.88412815  0.36939364  1
  N  N69  1  0.79347661  0.75793768  0.09664343  1
  N  N70  1  0.54632031  0.88678133  0.85765499  1
  N  N71  1  0.45018748  0.73629494  0.62535494  1
