# generated using pymatgen
data_Sc4Al5N9
_symmetry_space_group_name_H-M   'P 1'
_cell_length_a   10.33585941
_cell_length_b   10.29645896
_cell_length_c   9.58906926
_cell_angle_alpha   90.04756321
_cell_angle_beta   89.99270833
_cell_angle_gamma   60.18392086
_symmetry_Int_Tables_number   1
_chemical_formula_structural   Sc4Al5N9
_chemical_formula_sum   'Sc16 Al20 N36'
_cell_volume   885.40759289
_cell_formula_units_Z   4
loop_
 _symmetry_equiv_pos_site_id
 _symmetry_equiv_pos_as_xyz
  1  'x, y, z'
loop_
 _atom_site_type_symbol
 _atom_site_label
 _atom_site_symmetry_multiplicity
 _atom_site_fract_x
 _atom_site_fract_y
 _atom_site_fract_z
 _atom_site_occupancy
  Sc  Sc0  1  0.11355317  0.08775726  0.34509196  1
  Sc  Sc1  1  0.22733625  0.20411568  0.10188937  1
  Sc  Sc2  1  0.88047522  0.20842073  0.59854797  1
  Sc  Sc3  1  0.22720684  0.20158563  0.61327384  1
  Sc  Sc4  1  0.11421185  0.43183600  0.36034764  1
  Sc  Sc5  1  0.22746332  0.54670328  0.09852615  1
  Sc  Sc6  1  0.55857566  0.52861120  0.09448553  1
  Sc  Sc7  1  0.10746025  0.43208688  0.85382557  1
  Sc  Sc8  1  0.23273854  0.54313677  0.60428242  1
  Sc  Sc9  1  0.76401024  0.43889426  0.35614207  1
  Sc  Sc10  1  0.78173782  0.76455841  0.84873158  1
  Sc  Sc11  1  0.55346708  0.87719978  0.09979746  1
  Sc  Sc12  1  0.22164418  0.86638051  0.58994703  1
  Sc  Sc13  1  0.78063798  0.76599076  0.34474532  1
  Sc  Sc14  1  0.43640140  0.75904403  0.85030024  1
  Sc  Sc15  1  0.55433247  0.86618939  0.59697333  1
  Al  Al16  1  0.77930506  0.09177169  0.82269902  1
  Al  Al17  1  0.44912655  0.09872465  0.37151243  1
  Al  Al18  1  0.56181707  0.20148172  0.12617405  1
  Al  Al19  1  0.09649011  0.09952297  0.87589892  1
  Al  Al20  1  0.77684320  0.09022847  0.32334056  1
  Al  Al21  1  0.88386952  0.20178468  0.12209618  1
  Al  Al22  1  0.45088852  0.09818895  0.87285136  1
  Al  Al23  1  0.56233407  0.20044085  0.62028826  1
  Al  Al24  1  0.78741480  0.41174718  0.87883517  1
  Al  Al25  1  0.88112170  0.54067458  0.62598883  1
  Al  Al26  1  0.45388800  0.42676947  0.37555470  1
  Al  Al27  1  0.89304276  0.53793753  0.11658817  1
  Al  Al28  1  0.45641496  0.41013149  0.87294088  1
  Al  Al29  1  0.56823935  0.52463138  0.63844803  1
  Al  Al30  1  0.11204782  0.76824764  0.32131691  1
  Al  Al31  1  0.20145355  0.87910814  0.06695272  1
  Al  Al32  1  0.88781324  0.87444272  0.56990991  1
  Al  Al33  1  0.42900635  0.76077146  0.30928808  1
  Al  Al34  1  0.09961125  0.77472258  0.82267785  1
  Al  Al35  1  0.89064893  0.88196313  0.07198113  1
  N  N36  1  0.24259646  0.19869417  0.33134750  1
  N  N37  1  0.09500645  0.09155208  0.09067641  1
  N  N38  1  0.88709527  0.20352459  0.83665404  1
  N  N39  1  0.77267943  0.07850710  0.61763990  1
  N  N40  1  0.55739534  0.20471088  0.32849049  1
  N  N41  1  0.45890860  0.10432847  0.07168627  1
  N  N42  1  0.22814479  0.18815890  0.84836865  1
  N  N43  1  0.10875062  0.09682987  0.57138919  1
  N  N44  1  0.87413633  0.20260135  0.33725141  1
  N  N45  1  0.77678047  0.09245358  0.11472373  1
  N  N46  1  0.55457410  0.20322031  0.82260787  1
  N  N47  1  0.45683388  0.10199883  0.57038672  1
  N  N48  1  0.23517116  0.54911559  0.34987635  1
  N  N49  1  0.10027061  0.43946247  0.08371113  1
  N  N50  1  0.87501189  0.52888931  0.82908909  1
  N  N51  1  0.76753785  0.44856356  0.57910019  1
  N  N52  1  0.53396999  0.54903150  0.31634455  1
  N  N53  1  0.45752325  0.40015812  0.07094765  1
  N  N54  1  0.23655210  0.55177071  0.84712067  1
  N  N55  1  0.09602671  0.43951509  0.59842795  1
  N  N56  1  0.89021684  0.53975504  0.31565407  1
  N  N57  1  0.79978971  0.41406122  0.08380727  1
  N  N58  1  0.57422348  0.50735676  0.84654229  1
  N  N59  1  0.47799471  0.41026381  0.57655504  1
  N  N60  1  0.23075160  0.85340865  0.36297253  1
  N  N61  1  0.09547929  0.78407019  0.12101531  1
  N  N62  1  0.89594624  0.88643146  0.87428102  1
  N  N63  1  0.79220834  0.75393171  0.59461876  1
  N  N64  1  0.53604885  0.87615364  0.33923378  1
  N  N65  1  0.41415096  0.77372425  0.09378762  1
  N  N66  1  0.19602859  0.88737390  0.85967283  1
  N  N67  1  0.08675618  0.77205056  0.62563641  1
  N  N68  1  0.90152393  0.88242650  0.36932424  1
  N  N69  1  0.79359319  0.75760636  0.09373983  1
  N  N70  1  0.54722391  0.88801318  0.84426462  1
  N  N71  1  0.45136947  0.73417118  0.62787696  1
