# generated using pymatgen
data_Sc4Al5N9
_symmetry_space_group_name_H-M   'P 1'
_cell_length_a   10.15910558
_cell_length_b   10.12281892
_cell_length_c   10.01776891
_cell_angle_alpha   89.94344888
_cell_angle_beta   90.05188356
_cell_angle_gamma   60.04474140
_symmetry_Int_Tables_number   1
_chemical_formula_structural   Sc4Al5N9
_chemical_formula_sum   'Sc16 Al20 N36'
_cell_volume   892.59290054
_cell_formula_units_Z   4
loop_
 _symmetry_equiv_pos_site_id
 _symmetry_equiv_pos_as_xyz
  1  'x, y, z'
loop_
 _atom_site_type_symbol
 _atom_site_label
 _atom_site_symmetry_multiplicity
 _atom_site_fract_x
 _atom_site_fract_y
 _atom_site_fract_z
 _atom_site_occupancy
  Sc  Sc0  1  0.10994876  0.09292308  0.35696193  1
  Sc  Sc1  1  0.22804472  0.20458474  0.11113449  1
  Sc  Sc2  1  0.87931237  0.20803768  0.63002358  1
  Sc  Sc3  1  0.22549667  0.19952273  0.64240923  1
  Sc  Sc4  1  0.11692860  0.42476739  0.38559152  1
  Sc  Sc5  1  0.22705614  0.54508800  0.12770036  1
  Sc  Sc6  1  0.55495613  0.53583642  0.11700525  1
  Sc  Sc7  1  0.10757187  0.43663018  0.87079741  1
  Sc  Sc8  1  0.23371066  0.54315956  0.62397840  1
  Sc  Sc9  1  0.76890761  0.43241857  0.37345115  1
  Sc  Sc10  1  0.77661340  0.76736964  0.87720651  1
  Sc  Sc11  1  0.55006075  0.87264835  0.13767519  1
  Sc  Sc12  1  0.20683784  0.87799982  0.62242347  1
  Sc  Sc13  1  0.78674132  0.76264405  0.37729726  1
  Sc  Sc14  1  0.43292325  0.76365234  0.86590400  1
  Sc  Sc15  1  0.55523590  0.87332204  0.61315303  1
  Al  Al16  1  0.77830244  0.09598055  0.88793292  1
  Al  Al17  1  0.44723910  0.10150245  0.38577142  1
  Al  Al18  1  0.56596887  0.19869263  0.13556164  1
  Al  Al19  1  0.10036768  0.09173427  0.90069420  1
  Al  Al20  1  0.77438361  0.09029295  0.38351908  1
  Al  Al21  1  0.88128031  0.20042858  0.13437556  1
  Al  Al22  1  0.45425702  0.09487575  0.88736203  1
  Al  Al23  1  0.56429634  0.20033818  0.63374859  1
  Al  Al24  1  0.78380181  0.41690786  0.89161756  1
  Al  Al25  1  0.88126378  0.54104182  0.64297845  1
  Al  Al26  1  0.45530765  0.42144791  0.38748013  1
  Al  Al27  1  0.89279816  0.53814546  0.13204568  1
  Al  Al28  1  0.45589608  0.41509993  0.88343639  1
  Al  Al29  1  0.56679042  0.52545738  0.64249918  1
  Al  Al30  1  0.10881624  0.76415891  0.38294515  1
  Al  Al31  1  0.21381295  0.86999927  0.13768327  1
  Al  Al32  1  0.88640450  0.87443057  0.63706846  1
  Al  Al33  1  0.43740690  0.75022199  0.39168421  1
  Al  Al34  1  0.10504360  0.77684874  0.88808588  1
  Al  Al35  1  0.89073808  0.87996327  0.13375972  1
  N  N36  1  0.24488186  0.19747497  0.32601895  1
  N  N37  1  0.09748686  0.08576654  0.09815621  1
  N  N38  1  0.88855942  0.20393837  0.84623886  1
  N  N39  1  0.76975744  0.07989524  0.57459495  1
  N  N40  1  0.55981643  0.20182742  0.32762798  1
  N  N41  1  0.46598235  0.09605395  0.07521077  1
  N  N42  1  0.22807071  0.18838401  0.86310017  1
  N  N43  1  0.10356533  0.10409838  0.56731170  1
  N  N44  1  0.86947939  0.20002676  0.32669011  1
  N  N45  1  0.77617350  0.09350890  0.07855468  1
  N  N46  1  0.56025534  0.20166787  0.82617526  1
  N  N47  1  0.44917192  0.11223716  0.57447591  1
  N  N48  1  0.23613950  0.54372115  0.35119690  1
  N  N49  1  0.09829337  0.44273764  0.08377373  1
  N  N50  1  0.87281193  0.53233866  0.83304791  1
  N  N51  1  0.77037340  0.44587463  0.58585944  1
  N  N52  1  0.53578398  0.54676854  0.32845396  1
  N  N53  1  0.45792292  0.40145771  0.07246551  1
  N  N54  1  0.23704136  0.55640952  0.84239120  1
  N  N55  1  0.09763331  0.43642151  0.60939209  1
  N  N56  1  0.89375722  0.53633635  0.32096797  1
  N  N57  1  0.79747954  0.41664636  0.08607119  1
  N  N58  1  0.57134572  0.51342066  0.83992125  1
  N  N59  1  0.47824535  0.40884992  0.57893393  1
  N  N60  1  0.23015095  0.85182129  0.33382169  1
  N  N61  1  0.09760102  0.78185935  0.07832382  1
  N  N62  1  0.89610591  0.88563523  0.82834509  1
  N  N63  1  0.79524639  0.75216785  0.59712208  1
  N  N64  1  0.53877310  0.87491620  0.35969139  1
  N  N65  1  0.41781867  0.77362454  0.07753747  1
  N  N66  1  0.19513045  0.89190041  0.83353985  1
  N  N67  1  0.08576501  0.77158191  0.57046490  1
  N  N68  1  0.90061778  0.88243804  0.32271837  1
  N  N69  1  0.79005110  0.75813830  0.09690730  1
  N  N70  1  0.54404620  0.89062710  0.83038117  1
  N  N71  1  0.44536215  0.73606025  0.59129561  1
