# generated using pymatgen
data_Sc4Al5N9
_symmetry_space_group_name_H-M   'P 1'
_cell_length_a   10.26659212
_cell_length_b   10.23044106
_cell_length_c   9.72637485
_cell_angle_alpha   89.94580478
_cell_angle_beta   89.87926482
_cell_angle_gamma   60.04248955
_symmetry_Int_Tables_number   1
_chemical_formula_structural   Sc4Al5N9
_chemical_formula_sum   'Sc16 Al20 N36'
_cell_volume   885.08935730
_cell_formula_units_Z   4
loop_
 _symmetry_equiv_pos_site_id
 _symmetry_equiv_pos_as_xyz
  1  'x, y, z'
loop_
 _atom_site_type_symbol
 _atom_site_label
 _atom_site_symmetry_multiplicity
 _atom_site_fract_x
 _atom_site_fract_y
 _atom_site_fract_z
 _atom_site_occupancy
  Sc  Sc0  1  0.10446602  0.08902989  0.32549355  1
  Sc  Sc1  1  0.22579352  0.19817438  0.07557015  1
  Sc  Sc2  1  0.87530484  0.20421084  0.59131587  1
  Sc  Sc3  1  0.22648139  0.20787589  0.57798942  1
  Sc  Sc4  1  0.11449731  0.43373636  0.32171859  1
  Sc  Sc5  1  0.23142624  0.54737376  0.07373858  1
  Sc  Sc6  1  0.56658744  0.52397013  0.08509154  1
  Sc  Sc7  1  0.10878967  0.43088027  0.83217221  1
  Sc  Sc8  1  0.22958798  0.54382193  0.58350150  1
  Sc  Sc9  1  0.77967621  0.42299640  0.33489411  1
  Sc  Sc10  1  0.78140312  0.76509550  0.82817323  1
  Sc  Sc11  1  0.55422693  0.87525013  0.08201978  1
  Sc  Sc12  1  0.22005654  0.86575939  0.58211395  1
  Sc  Sc13  1  0.78087470  0.76620039  0.32639224  1
  Sc  Sc14  1  0.44120007  0.75164824  0.83922062  1
  Sc  Sc15  1  0.55100581  0.87068761  0.57638845  1
  Al  Al16  1  0.77325645  0.09081590  0.82017914  1
  Al  Al17  1  0.44998780  0.09758932  0.31375897  1
  Al  Al18  1  0.56425789  0.20175793  0.06531525  1
  Al  Al19  1  0.10691715  0.09560458  0.81582953  1
  Al  Al20  1  0.77599959  0.09472812  0.31139042  1
  Al  Al21  1  0.88756251  0.20327315  0.05557402  1
  Al  Al22  1  0.44976693  0.09865053  0.81508617  1
  Al  Al23  1  0.56584522  0.19793547  0.56467204  1
  Al  Al24  1  0.77242632  0.42850831  0.81078913  1
  Al  Al25  1  0.88541421  0.54588508  0.56820798  1
  Al  Al26  1  0.44909353  0.42057687  0.32055098  1
  Al  Al27  1  0.88907230  0.53325640  0.06208433  1
  Al  Al28  1  0.46366581  0.41544573  0.81065652  1
  Al  Al29  1  0.55674562  0.53686213  0.56101625  1
  Al  Al30  1  0.11172306  0.76861171  0.31327085  1
  Al  Al31  1  0.20129705  0.88230885  0.05783554  1
  Al  Al32  1  0.88478711  0.87667466  0.56276571  1
  Al  Al33  1  0.42865643  0.76281288  0.30767950  1
  Al  Al34  1  0.10007068  0.77419571  0.81677518  1
  Al  Al35  1  0.89183363  0.87994871  0.06864383  1
  N  N36  1  0.23859996  0.19701437  0.34852077  1
  N  N37  1  0.09519078  0.08941666  0.10269855  1
  N  N38  1  0.88366817  0.20721522  0.84975538  1
  N  N39  1  0.76614011  0.07728269  0.62663299  1
  N  N40  1  0.56156302  0.19866260  0.36812350  1
  N  N41  1  0.45866771  0.10381069  0.11871201  1
  N  N42  1  0.23122318  0.18933957  0.84949895  1
  N  N43  1  0.10849630  0.09650703  0.61540041  1
  N  N44  1  0.87465681  0.19411277  0.37502930  1
  N  N45  1  0.77755080  0.09737884  0.11216251  1
  N  N46  1  0.55714450  0.20446574  0.86894278  1
  N  N47  1  0.45604326  0.10461899  0.61966568  1
  N  N48  1  0.23316391  0.55136304  0.35214172  1
  N  N49  1  0.10121066  0.43833135  0.09050518  1
  N  N50  1  0.87419470  0.53035787  0.86540247  1
  N  N51  1  0.76747622  0.44911483  0.60715893  1
  N  N52  1  0.53874467  0.54803194  0.35516736  1
  N  N53  1  0.45947409  0.40208149  0.12653014  1
  N  N54  1  0.24049591  0.54990848  0.84584419  1
  N  N55  1  0.09558664  0.44218102  0.60702861  1
  N  N56  1  0.89091859  0.54058056  0.37256977  1
  N  N57  1  0.80455589  0.41022025  0.11537060  1
  N  N58  1  0.57151453  0.51040716  0.86808536  1
  N  N59  1  0.47695752  0.40886398  0.61234384  1
  N  N60  1  0.22772776  0.85682053  0.36355318  1
  N  N61  1  0.09803684  0.78287657  0.11713559  1
  N  N62  1  0.89595096  0.88480851  0.87515106  1
  N  N63  1  0.78803011  0.75941270  0.59821505  1
  N  N64  1  0.53536012  0.87677425  0.34296806  1
  N  N65  1  0.41566773  0.76867507  0.10074335  1
  N  N66  1  0.19911722  0.88507689  0.85730675  1
  N  N67  1  0.08397746  0.77301215  0.62374805  1
  N  N68  1  0.89959848  0.88405956  0.36487021  1
  N  N69  1  0.79657645  0.75260319  0.09934362  1
  N  N70  1  0.54631211  0.88822910  0.85496104  1
  N  N71  1  0.45119873  0.73692260  0.62102510  1
