# generated using pymatgen
data_Sc4Al5N9
_symmetry_space_group_name_H-M   'P 1'
_cell_length_a   10.26037217
_cell_length_b   10.21627975
_cell_length_c   9.79347335
_cell_angle_alpha   89.99696601
_cell_angle_beta   90.18220880
_cell_angle_gamma   60.20787983
_symmetry_Int_Tables_number   1
_chemical_formula_structural   Sc4Al5N9
_chemical_formula_sum   'Sc16 Al20 N36'
_cell_volume   890.89440052
_cell_formula_units_Z   4
loop_
 _symmetry_equiv_pos_site_id
 _symmetry_equiv_pos_as_xyz
  1  'x, y, z'
loop_
 _atom_site_type_symbol
 _atom_site_label
 _atom_site_symmetry_multiplicity
 _atom_site_fract_x
 _atom_site_fract_y
 _atom_site_fract_z
 _atom_site_occupancy
  Sc  Sc0  1  0.11372161  0.08535125  0.34373305  1
  Sc  Sc1  1  0.22811797  0.20304483  0.10045940  1
  Sc  Sc2  1  0.87788435  0.20939593  0.61242484  1
  Sc  Sc3  1  0.22484467  0.20242783  0.62098579  1
  Sc  Sc4  1  0.11676496  0.42778393  0.36400514  1
  Sc  Sc5  1  0.23005445  0.54224988  0.09792205  1
  Sc  Sc6  1  0.55303041  0.53906817  0.10310786  1
  Sc  Sc7  1  0.10611007  0.43372310  0.85557455  1
  Sc  Sc8  1  0.23433831  0.54092560  0.60477901  1
  Sc  Sc9  1  0.76984110  0.43218291  0.35766107  1
  Sc  Sc10  1  0.77634793  0.76521678  0.86811668  1
  Sc  Sc11  1  0.54691237  0.87347962  0.12271383  1
  Sc  Sc12  1  0.21058379  0.87444398  0.59397048  1
  Sc  Sc13  1  0.78649751  0.76322051  0.36334442  1
  Sc  Sc14  1  0.43764014  0.76055164  0.84438001  1
  Sc  Sc15  1  0.55711528  0.87575610  0.60337628  1
  Al  Al16  1  0.77583137  0.09807459  0.87905990  1
  Al  Al17  1  0.44803477  0.10137868  0.37464808  1
  Al  Al18  1  0.56616218  0.19873535  0.12650589  1
  Al  Al19  1  0.09411448  0.10253245  0.87958474  1
  Al  Al20  1  0.77453486  0.08923485  0.37462608  1
  Al  Al21  1  0.88078459  0.20058740  0.12572755  1
  Al  Al22  1  0.45376064  0.09605847  0.87520345  1
  Al  Al23  1  0.56431247  0.20174389  0.62321709  1
  Al  Al24  1  0.78371036  0.41583041  0.88180277  1
  Al  Al25  1  0.88081606  0.54150234  0.62946405  1
  Al  Al26  1  0.45573487  0.42339397  0.37449227  1
  Al  Al27  1  0.89229866  0.53788498  0.12077774  1
  Al  Al28  1  0.45898075  0.41177015  0.87289911  1
  Al  Al29  1  0.57056377  0.52282872  0.63321162  1
  Al  Al30  1  0.11890386  0.76513414  0.31449143  1
  Al  Al31  1  0.20637225  0.87654719  0.05666776  1
  Al  Al32  1  0.87905232  0.87800104  0.63046718  1
  Al  Al33  1  0.44136012  0.74890322  0.38617017  1
  Al  Al34  1  0.10111717  0.77141130  0.82122667  1
  Al  Al35  1  0.88767331  0.88214039  0.12330498  1
  N  N36  1  0.24422349  0.19598637  0.32218983  1
  N  N37  1  0.09439038  0.09021502  0.08495749  1
  N  N38  1  0.88457265  0.20601329  0.83447434  1
  N  N39  1  0.76838976  0.08009839  0.56921175  1
  N  N40  1  0.56034916  0.20212488  0.32112140  1
  N  N41  1  0.46341046  0.09857738  0.06821169  1
  N  N42  1  0.22785354  0.18871709  0.84835164  1
  N  N43  1  0.10206236  0.10425267  0.56422261  1
  N  N44  1  0.87198719  0.19773278  0.32334024  1
  N  N45  1  0.77568535  0.09485178  0.07332752  1
  N  N46  1  0.56035357  0.20173307  0.81890683  1
  N  N47  1  0.45113676  0.11222327  0.56762078  1
  N  N48  1  0.23740314  0.54569256  0.34259929  1
  N  N49  1  0.09816021  0.43971415  0.07757132  1
  N  N50  1  0.87284490  0.53055667  0.82557604  1
  N  N51  1  0.77043626  0.44661461  0.57498392  1
  N  N52  1  0.53644659  0.54892420  0.32046453  1
  N  N53  1  0.46244444  0.39952146  0.06630100  1
  N  N54  1  0.23864925  0.54981530  0.84292348  1
  N  N55  1  0.09573825  0.43918451  0.59695464  1
  N  N56  1  0.89277435  0.53776065  0.31361090  1
  N  N57  1  0.79633428  0.41642141  0.08128572  1
  N  N58  1  0.57297301  0.51097307  0.83471705  1
  N  N59  1  0.47951928  0.40945032  0.57121808  1
  N  N60  1  0.23260177  0.85112344  0.36963182  1
  N  N61  1  0.10166914  0.78018991  0.10980212  1
  N  N62  1  0.88654469  0.88954792  0.83107564  1
  N  N63  1  0.79437717  0.75296851  0.59001179  1
  N  N64  1  0.53856109  0.87518375  0.35126590  1
  N  N65  1  0.41719854  0.77394464  0.06439158  1
  N  N66  1  0.19342372  0.89037631  0.84895133  1
  N  N67  1  0.08744313  0.76888215  0.62196320  1
  N  N68  1  0.90011807  0.88297326  0.32116114  1
  N  N69  1  0.78875348  0.75847734  0.09239222  1
  N  N70  1  0.54542914  0.89105169  0.82676736  1
  N  N71  1  0.45266602  0.73512201  0.59721676  1
