# generated using pymatgen
data_Sc4Al5N9
_symmetry_space_group_name_H-M   'P 1'
_cell_length_a   10.28601142
_cell_length_b   10.24241256
_cell_length_c   9.71803665
_cell_angle_alpha   90.02737761
_cell_angle_beta   90.15869346
_cell_angle_gamma   60.16975888
_symmetry_Int_Tables_number   1
_chemical_formula_structural   Sc4Al5N9
_chemical_formula_sum   'Sc16 Al20 N36'
_cell_volume   888.17163392
_cell_formula_units_Z   4
loop_
 _symmetry_equiv_pos_site_id
 _symmetry_equiv_pos_as_xyz
  1  'x, y, z'
loop_
 _atom_site_type_symbol
 _atom_site_label
 _atom_site_symmetry_multiplicity
 _atom_site_fract_x
 _atom_site_fract_y
 _atom_site_fract_z
 _atom_site_occupancy
  Sc  Sc0  1  0.11364992  0.08496868  0.35155353  1
  Sc  Sc1  1  0.22814228  0.20270729  0.10844140  1
  Sc  Sc2  1  0.87747441  0.20956062  0.61826545  1
  Sc  Sc3  1  0.22468559  0.20275389  0.62587700  1
  Sc  Sc4  1  0.11624189  0.42885771  0.36963093  1
  Sc  Sc5  1  0.23032341  0.54227635  0.10477759  1
  Sc  Sc6  1  0.55277347  0.53907570  0.10993174  1
  Sc  Sc7  1  0.10631483  0.43309808  0.86271420  1
  Sc  Sc8  1  0.23398567  0.54119948  0.61198802  1
  Sc  Sc9  1  0.76961477  0.43266094  0.36404016  1
  Sc  Sc10  1  0.77682184  0.76481006  0.87443451  1
  Sc  Sc11  1  0.54696340  0.87359001  0.12835954  1
  Sc  Sc12  1  0.21031938  0.87419253  0.60320776  1
  Sc  Sc13  1  0.78613388  0.76391180  0.36978941  1
  Sc  Sc14  1  0.43772414  0.76045269  0.85205168  1
  Sc  Sc15  1  0.55691679  0.87557197  0.61088856  1
  Al  Al16  1  0.77594557  0.09823060  0.88642683  1
  Al  Al17  1  0.44831864  0.10112738  0.38212851  1
  Al  Al18  1  0.56607975  0.19883929  0.13413987  1
  Al  Al19  1  0.09433777  0.10232727  0.88599049  1
  Al  Al20  1  0.77472443  0.08873061  0.38201004  1
  Al  Al21  1  0.88080647  0.20039520  0.13368734  1
  Al  Al22  1  0.45349622  0.09635356  0.88229373  1
  Al  Al23  1  0.56463458  0.20143917  0.63074215  1
  Al  Al24  1  0.78397349  0.41532533  0.88946058  1
  Al  Al25  1  0.88080844  0.54137969  0.63671115  1
  Al  Al26  1  0.45587883  0.42338965  0.38192555  1
  Al  Al27  1  0.89210483  0.53805252  0.12782023  1
  Al  Al28  1  0.45922447  0.41138107  0.88023885  1
  Al  Al29  1  0.57046164  0.52292463  0.64064483  1
  Al  Al30  1  0.11859504  0.76512474  0.32287521  1
  Al  Al31  1  0.20655876  0.87690388  0.06562396  1
  Al  Al32  1  0.87967524  0.87768258  0.63840026  1
  Al  Al33  1  0.44088469  0.74912184  0.39310776  1
  Al  Al34  1  0.10126912  0.77114304  0.83169283  1
  Al  Al35  1  0.88797560  0.88200248  0.12915736  1
  N  N36  1  0.24369211  0.19613736  0.33288720  1
  N  N37  1  0.09437682  0.09024655  0.09370775  1
  N  N38  1  0.88455864  0.20586776  0.84253340  1
  N  N39  1  0.76864647  0.07956032  0.57801466  1
  N  N40  1  0.56044475  0.20195824  0.33001260  1
  N  N41  1  0.46276193  0.09928029  0.07715361  1
  N  N42  1  0.22784295  0.18869533  0.85596514  1
  N  N43  1  0.10214519  0.10341224  0.57376699  1
  N  N44  1  0.87201600  0.19770350  0.33330819  1
  N  N45  1  0.77556432  0.09520194  0.08209932  1
  N  N46  1  0.56073403  0.20141580  0.82766015  1
  N  N47  1  0.45190846  0.11144736  0.57687263  1
  N  N48  1  0.23746895  0.54608899  0.35104997  1
  N  N49  1  0.09870908  0.43921385  0.08767458  1
  N  N50  1  0.87324674  0.52993024  0.83491788  1
  N  N51  1  0.77024546  0.44690071  0.58329105  1
  N  N52  1  0.53638690  0.54880244  0.32898175  1
  N  N53  1  0.46242771  0.39956150  0.07528793  1
  N  N54  1  0.23873846  0.54920008  0.85169509  1
  N  N55  1  0.09551149  0.43960619  0.60513073  1
  N  N56  1  0.89204637  0.53866492  0.32246071  1
  N  N57  1  0.79627840  0.41619580  0.09070614  1
  N  N58  1  0.57299394  0.51100626  0.84387815  1
  N  N59  1  0.47943301  0.40935266  0.58020867  1
  N  N60  1  0.23245642  0.85115577  0.37630957  1
  N  N61  1  0.10150451  0.78000103  0.11514378  1
  N  N62  1  0.88702732  0.88930965  0.84082715  1
  N  N63  1  0.79410409  0.75325186  0.59953174  1
  N  N64  1  0.53840685  0.87525979  0.35905517  1
  N  N65  1  0.41679162  0.77400923  0.07352520  1
  N  N66  1  0.19385938  0.89026285  0.85628642  1
  N  N67  1  0.08748159  0.76860690  0.62987934  1
  N  N68  1  0.90068116  0.88265657  0.32891521  1
  N  N69  1  0.78887461  0.75847474  0.10060502  1
  N  N70  1  0.54551257  0.89061256  0.83683474  1
  N  N71  1  0.45243406  0.73520533  0.60550589  1
