# generated using pymatgen
data_Sc4Al5N9
_symmetry_space_group_name_H-M   'P 1'
_cell_length_a   10.32615596
_cell_length_b   10.28522059
_cell_length_c   9.59126074
_cell_angle_alpha   89.91476741
_cell_angle_beta   89.77226054
_cell_angle_gamma   60.00670514
_symmetry_Int_Tables_number   1
_chemical_formula_structural   Sc4Al5N9
_chemical_formula_sum   'Sc16 Al20 N36'
_cell_volume   882.23535218
_cell_formula_units_Z   4
loop_
 _symmetry_equiv_pos_site_id
 _symmetry_equiv_pos_as_xyz
  1  'x, y, z'
loop_
 _atom_site_type_symbol
 _atom_site_label
 _atom_site_symmetry_multiplicity
 _atom_site_fract_x
 _atom_site_fract_y
 _atom_site_fract_z
 _atom_site_occupancy
  Sc  Sc0  1  0.10461830  0.08860254  0.33615432  1
  Sc  Sc1  1  0.22539422  0.19883614  0.08730143  1
  Sc  Sc2  1  0.87275691  0.20782934  0.59915255  1
  Sc  Sc3  1  0.22740782  0.20574845  0.58950081  1
  Sc  Sc4  1  0.11678116  0.43327590  0.34678291  1
  Sc  Sc5  1  0.23148051  0.54675910  0.08495811  1
  Sc  Sc6  1  0.56341351  0.52536231  0.09634263  1
  Sc  Sc7  1  0.10956995  0.43060116  0.84712227  1
  Sc  Sc8  1  0.23025375  0.54477800  0.59391288  1
  Sc  Sc9  1  0.77818252  0.42501156  0.34790029  1
  Sc  Sc10  1  0.78149278  0.76624016  0.84735792  1
  Sc  Sc11  1  0.55265470  0.87588250  0.09234467  1
  Sc  Sc12  1  0.21968434  0.86581447  0.59167548  1
  Sc  Sc13  1  0.77968585  0.76817240  0.34215491  1
  Sc  Sc14  1  0.44165329  0.75068400  0.84764898  1
  Sc  Sc15  1  0.55165672  0.86954852  0.58823643  1
  Al  Al16  1  0.77324986  0.09024161  0.82718960  1
  Al  Al17  1  0.45001443  0.09728008  0.32246170  1
  Al  Al18  1  0.56425866  0.20133448  0.07290583  1
  Al  Al19  1  0.10701083  0.09506315  0.82341469  1
  Al  Al20  1  0.77614948  0.09477223  0.31881966  1
  Al  Al21  1  0.88918089  0.19965281  0.06539241  1
  Al  Al22  1  0.45012558  0.09840358  0.82364151  1
  Al  Al23  1  0.56615852  0.19745455  0.57204328  1
  Al  Al24  1  0.77617417  0.42272502  0.85098819  1
  Al  Al25  1  0.88089086  0.54350123  0.62214782  1
  Al  Al26  1  0.44911776  0.41989221  0.32849950  1
  Al  Al27  1  0.89394534  0.53648634  0.11788693  1
  Al  Al28  1  0.46407809  0.41495654  0.81783453  1
  Al  Al29  1  0.55653310  0.53693920  0.56676624  1
  Al  Al30  1  0.11169200  0.76918505  0.32087799  1
  Al  Al31  1  0.20140741  0.88248404  0.06536374  1
  Al  Al32  1  0.88540161  0.87645511  0.57055577  1
  Al  Al33  1  0.42746308  0.76373528  0.31557856  1
  Al  Al34  1  0.10025982  0.77414635  0.82520208  1
  Al  Al35  1  0.89195959  0.88109469  0.07673424  1
  N  N36  1  0.23924080  0.19566359  0.35402321  1
  N  N37  1  0.09577660  0.08899526  0.10911852  1
  N  N38  1  0.88495106  0.20403945  0.85618405  1
  N  N39  1  0.76639805  0.07760225  0.63120053  1
  N  N40  1  0.56186024  0.19799222  0.37332898  1
  N  N41  1  0.45851545  0.10377759  0.12376880  1
  N  N42  1  0.23075347  0.18939554  0.85395347  1
  N  N43  1  0.10656453  0.09714737  0.61912566  1
  N  N44  1  0.87435931  0.19506831  0.37675742  1
  N  N45  1  0.77723305  0.09731756  0.11738696  1
  N  N46  1  0.55760353  0.20409060  0.87408447  1
  N  N47  1  0.45681446  0.10401453  0.62507848  1
  N  N48  1  0.23408523  0.55246288  0.35682292  1
  N  N49  1  0.10369667  0.43722074  0.08812312  1
  N  N50  1  0.87589211  0.53091033  0.82920379  1
  N  N51  1  0.76657918  0.44839005  0.58991101  1
  N  N52  1  0.53729148  0.54867500  0.35592044  1
  N  N53  1  0.45928828  0.40094971  0.13171149  1
  N  N54  1  0.24077470  0.54926756  0.85037372  1
  N  N55  1  0.09495553  0.44250461  0.59798643  1
  N  N56  1  0.89138136  0.54089420  0.32138383  1
  N  N57  1  0.80255684  0.41210991  0.10017660  1
  N  N58  1  0.56998063  0.51072028  0.87397089  1
  N  N59  1  0.47715806  0.40868771  0.61644111  1
  N  N60  1  0.22725073  0.85686035  0.36993991  1
  N  N61  1  0.09808918  0.78303889  0.12170645  1
  N  N62  1  0.89674937  0.88582251  0.88004214  1
  N  N63  1  0.78923058  0.75722678  0.59598505  1
  N  N64  1  0.53469699  0.87664335  0.34905282  1
  N  N65  1  0.41463337  0.76978939  0.10573851  1
  N  N66  1  0.19968778  0.88477304  0.86182609  1
  N  N67  1  0.08402148  0.77290840  0.62934037  1
  N  N68  1  0.90022815  0.88451336  0.36935569  1
  N  N69  1  0.79394808  0.75717235  0.09760539  1
  N  N70  1  0.54606017  0.88763106  0.85904416  1
  N  N71  1  0.45075159  0.73631980  0.62618835  1
