# generated using pymatgen
data_Sc4Al5N9
_symmetry_space_group_name_H-M   'P 1'
_cell_length_a   10.28164599
_cell_length_b   10.23958546
_cell_length_c   9.70488324
_cell_angle_alpha   90.14253285
_cell_angle_beta   90.03755040
_cell_angle_gamma   60.09621491
_symmetry_Int_Tables_number   1
_chemical_formula_structural   Sc4Al5N9
_chemical_formula_sum   'Sc16 Al20 N36'
_cell_volume   885.69617368
_cell_formula_units_Z   4
loop_
 _symmetry_equiv_pos_site_id
 _symmetry_equiv_pos_as_xyz
  1  'x, y, z'
loop_
 _atom_site_type_symbol
 _atom_site_label
 _atom_site_symmetry_multiplicity
 _atom_site_fract_x
 _atom_site_fract_y
 _atom_site_fract_z
 _atom_site_occupancy
  Sc  Sc0  1  0.11316831  0.08533933  0.35236414  1
  Sc  Sc1  1  0.22815765  0.20399399  0.10905432  1
  Sc  Sc2  1  0.87718002  0.20930484  0.61761157  1
  Sc  Sc3  1  0.22465138  0.20256678  0.62644965  1
  Sc  Sc4  1  0.11545690  0.42861174  0.37238395  1
  Sc  Sc5  1  0.22799144  0.54697543  0.11742753  1
  Sc  Sc6  1  0.55304924  0.53791134  0.10935761  1
  Sc  Sc7  1  0.10703348  0.43424768  0.86462610  1
  Sc  Sc8  1  0.23427058  0.54109752  0.61781129  1
  Sc  Sc9  1  0.76927902  0.43295124  0.36351495  1
  Sc  Sc10  1  0.77820670  0.76548753  0.87138220  1
  Sc  Sc11  1  0.54810556  0.87358402  0.12663168  1
  Sc  Sc12  1  0.20899476  0.87612021  0.61299946  1
  Sc  Sc13  1  0.78530655  0.76450316  0.36844158  1
  Sc  Sc14  1  0.43670600  0.76094121  0.85343221  1
  Sc  Sc15  1  0.55664322  0.87490185  0.61037898  1
  Al  Al16  1  0.77766772  0.09667041  0.88381806  1
  Al  Al17  1  0.44842333  0.10085342  0.38174045  1
  Al  Al18  1  0.56560488  0.19925454  0.13276268  1
  Al  Al19  1  0.09665802  0.09915460  0.88689112  1
  Al  Al20  1  0.77474220  0.08864981  0.38019987  1
  Al  Al21  1  0.88057660  0.20010789  0.13284512  1
  Al  Al22  1  0.45332343  0.09648665  0.88187425  1
  Al  Al23  1  0.56526053  0.20050693  0.63023240  1
  Al  Al24  1  0.78446953  0.41496620  0.88895373  1
  Al  Al25  1  0.88084046  0.54103669  0.63689858  1
  Al  Al26  1  0.45614013  0.42268267  0.38272261  1
  Al  Al27  1  0.89222688  0.53872441  0.12713534  1
  Al  Al28  1  0.45754647  0.41249267  0.87994510  1
  Al  Al29  1  0.56983610  0.52322036  0.64023459  1
  Al  Al30  1  0.11062883  0.76373485  0.38280162  1
  Al  Al31  1  0.20889466  0.87657716  0.08935133  1
  Al  Al32  1  0.88440456  0.87509075  0.63440761  1
  Al  Al33  1  0.43926273  0.74963025  0.39135862  1
  Al  Al34  1  0.10137482  0.77432476  0.87657660  1
  Al  Al35  1  0.89128648  0.88045238  0.12933644  1
  N  N36  1  0.24353511  0.19644271  0.33357782  1
  N  N37  1  0.09486781  0.08996687  0.09448553  1
  N  N38  1  0.88586854  0.20501956  0.84246672  1
  N  N39  1  0.76909509  0.07868658  0.57599130  1
  N  N40  1  0.56051346  0.20163142  0.32912557  1
  N  N41  1  0.46254316  0.09941645  0.07700377  1
  N  N42  1  0.22787517  0.18926652  0.85679064  1
  N  N43  1  0.10241416  0.10299937  0.57297833  1
  N  N44  1  0.87138821  0.19797893  0.33259845  1
  N  N45  1  0.77587220  0.09411169  0.08013692  1
  N  N46  1  0.56118821  0.20106817  0.82749857  1
  N  N47  1  0.45213224  0.11083397  0.57695870  1
  N  N48  1  0.23762295  0.54483420  0.35121939  1
  N  N49  1  0.09979136  0.44080987  0.08923621  1
  N  N50  1  0.87355962  0.53016481  0.83560754  1
  N  N51  1  0.77022626  0.44670002  0.58346795  1
  N  N52  1  0.53633990  0.54789350  0.32864717  1
  N  N53  1  0.45878404  0.40129105  0.07508641  1
  N  N54  1  0.23731232  0.55242209  0.84555148  1
  N  N55  1  0.09572128  0.43928169  0.60635419  1
  N  N56  1  0.89152664  0.53929707  0.32227225  1
  N  N57  1  0.79673104  0.41594583  0.09058132  1
  N  N58  1  0.57285153  0.51103366  0.84411244  1
  N  N59  1  0.47934153  0.40883770  0.58053913  1
  N  N60  1  0.23208347  0.85120676  0.36160208  1
  N  N61  1  0.09521513  0.78165287  0.07460628  1
  N  N62  1  0.89274078  0.88701825  0.83064996  1
  N  N63  1  0.79404200  0.75280316  0.59917169  1
  N  N64  1  0.53854078  0.87511254  0.35791005  1
  N  N65  1  0.41698674  0.77344089  0.07442378  1
  N  N66  1  0.19574250  0.89076046  0.84436469  1
  N  N67  1  0.08548243  0.76912646  0.58027552  1
  N  N68  1  0.90335285  0.88126422  0.32435636  1
  N  N69  1  0.78972093  0.75894975  0.09880131  1
  N  N70  1  0.54603502  0.88997369  0.83733573  1
  N  N71  1  0.45073788  0.73542080  0.60302115  1
