# generated using pymatgen
data_Sc4Al5N9
_symmetry_space_group_name_H-M   'P 1'
_cell_length_a   10.38068670
_cell_length_b   10.33619816
_cell_length_c   9.44383245
_cell_angle_alpha   90.18795633
_cell_angle_beta   89.96809421
_cell_angle_gamma   60.02635458
_symmetry_Int_Tables_number   1
_chemical_formula_structural   Sc4Al5N9
_chemical_formula_sum   'Sc16 Al20 N36'
_cell_volume   877.76317469
_cell_formula_units_Z   4
loop_
 _symmetry_equiv_pos_site_id
 _symmetry_equiv_pos_as_xyz
  1  'x, y, z'
loop_
 _atom_site_type_symbol
 _atom_site_label
 _atom_site_symmetry_multiplicity
 _atom_site_fract_x
 _atom_site_fract_y
 _atom_site_fract_z
 _atom_site_occupancy
  Sc  Sc0  1  0.10385062  0.08882787  0.34317223  1
  Sc  Sc1  1  0.22422093  0.20001762  0.09662920  1
  Sc  Sc2  1  0.86895902  0.21474281  0.60113176  1
  Sc  Sc3  1  0.22626168  0.20615223  0.59914441  1
  Sc  Sc4  1  0.11496559  0.43426025  0.35111861  1
  Sc  Sc5  1  0.23147018  0.54613277  0.08836420  1
  Sc  Sc6  1  0.55865812  0.52741570  0.10072363  1
  Sc  Sc7  1  0.10976470  0.43110308  0.84966094  1
  Sc  Sc8  1  0.23114539  0.54482205  0.59615932  1
  Sc  Sc9  1  0.77840374  0.42673121  0.34604255  1
  Sc  Sc10  1  0.78253293  0.76497682  0.85021540  1
  Sc  Sc11  1  0.55166066  0.87607544  0.09865745  1
  Sc  Sc12  1  0.21868006  0.86632140  0.59552180  1
  Sc  Sc13  1  0.77998021  0.76711247  0.34605614  1
  Sc  Sc14  1  0.44206410  0.74841272  0.84962778  1
  Sc  Sc15  1  0.55356712  0.86722728  0.59872227  1
  Al  Al16  1  0.77495092  0.09000043  0.82793981  1
  Al  Al17  1  0.44896984  0.09483857  0.35955947  1
  Al  Al18  1  0.56494003  0.20172484  0.07318847  1
  Al  Al19  1  0.10514808  0.09559396  0.82569060  1
  Al  Al20  1  0.77602839  0.09428569  0.31985167  1
  Al  Al21  1  0.89114572  0.19498533  0.07133768  1
  Al  Al22  1  0.44881696  0.09749595  0.85623816  1
  Al  Al23  1  0.56837924  0.19756286  0.57325179  1
  Al  Al24  1  0.78042734  0.42113073  0.87880006  1
  Al  Al25  1  0.88015597  0.54254709  0.62374153  1
  Al  Al26  1  0.44919284  0.41887302  0.33076464  1
  Al  Al27  1  0.89470959  0.53863839  0.11486736  1
  Al  Al28  1  0.46655937  0.41502856  0.81760104  1
  Al  Al29  1  0.55827875  0.53744094  0.56575879  1
  Al  Al30  1  0.11129067  0.76914121  0.32259807  1
  Al  Al31  1  0.20131095  0.88278119  0.06719218  1
  Al  Al32  1  0.88625636  0.87654919  0.57268956  1
  Al  Al33  1  0.42624766  0.76449975  0.31855369  1
  Al  Al34  1  0.10049853  0.77351639  0.82755008  1
  Al  Al35  1  0.89185740  0.88054306  0.07846184  1
  N  N36  1  0.23802978  0.19708908  0.34913683  1
  N  N37  1  0.09648984  0.08819531  0.11005929  1
  N  N38  1  0.88581162  0.20331128  0.85811740  1
  N  N39  1  0.76847425  0.07873014  0.62839880  1
  N  N40  1  0.56328613  0.19778024  0.36816574  1
  N  N41  1  0.45602752  0.10316677  0.09203226  1
  N  N42  1  0.22967405  0.18999845  0.85010023  1
  N  N43  1  0.10301862  0.09891372  0.61482672  1
  N  N44  1  0.87270793  0.19729478  0.37184517  1
  N  N45  1  0.77702590  0.09610888  0.11535270  1
  N  N46  1  0.55976256  0.20495760  0.86772304  1
  N  N47  1  0.45671606  0.10157616  0.59671817  1
  N  N48  1  0.23375305  0.55206794  0.35515745  1
  N  N49  1  0.10367365  0.43796323  0.08796114  1
  N  N50  1  0.87613109  0.52936527  0.83325044  1
  N  N51  1  0.76672075  0.45229627  0.57838447  1
  N  N52  1  0.53684308  0.54919793  0.35169094  1
  N  N53  1  0.45863117  0.40040651  0.13013481  1
  N  N54  1  0.24259195  0.54846577  0.84945919  1
  N  N55  1  0.09465192  0.44307450  0.59900744  1
  N  N56  1  0.89159983  0.54152148  0.31863483  1
  N  N57  1  0.80197701  0.41282517  0.09272757  1
  N  N58  1  0.57234916  0.50994462  0.87433795  1
  N  N59  1  0.47864837  0.40909573  0.61191732  1
  N  N60  1  0.22637421  0.85706909  0.36968714  1
  N  N61  1  0.09822063  0.78269552  0.11947129  1
  N  N62  1  0.89671263  0.88531614  0.87804901  1
  N  N63  1  0.79134717  0.75615965  0.59733195  1
  N  N64  1  0.53501397  0.87629488  0.34706305  1
  N  N65  1  0.41359656  0.77044082  0.10455596  1
  N  N66  1  0.19961422  0.88510840  0.85975680  1
  N  N67  1  0.08498477  0.77175709  0.62774654  1
  N  N68  1  0.89982077  0.88415681  0.36745479  1
  N  N69  1  0.79288554  0.75857937  0.09690259  1
  N  N70  1  0.54719717  0.88473674  0.85124812  1
  N  N71  1  0.44935503  0.73570891  0.62409776  1
