# generated using pymatgen
data_Sc4Al5N9
_symmetry_space_group_name_H-M   'P 1'
_cell_length_a   10.20228036
_cell_length_b   10.16607384
_cell_length_c   9.91069429
_cell_angle_alpha   89.93690239
_cell_angle_beta   89.90278295
_cell_angle_gamma   60.04344515
_symmetry_Int_Tables_number   1
_chemical_formula_structural   Sc4Al5N9
_chemical_formula_sum   'Sc16 Al20 N36'
_cell_volume   890.58328801
_cell_formula_units_Z   4
loop_
 _symmetry_equiv_pos_site_id
 _symmetry_equiv_pos_as_xyz
  1  'x, y, z'
loop_
 _atom_site_type_symbol
 _atom_site_label
 _atom_site_symmetry_multiplicity
 _atom_site_fract_x
 _atom_site_fract_y
 _atom_site_fract_z
 _atom_site_occupancy
  Sc  Sc0  1  0.10458195  0.08943788  0.31992140  1
  Sc  Sc1  1  0.22680611  0.19717312  0.07038889  1
  Sc  Sc2  1  0.87593151  0.20463691  0.58870296  1
  Sc  Sc3  1  0.22537264  0.20850622  0.57483822  1
  Sc  Sc4  1  0.11477211  0.43298947  0.31510329  1
  Sc  Sc5  1  0.23133010  0.54763642  0.06902225  1
  Sc  Sc6  1  0.56651944  0.52437406  0.08066678  1
  Sc  Sc7  1  0.10857454  0.43059989  0.82991610  1
  Sc  Sc8  1  0.22847685  0.54324555  0.58085848  1
  Sc  Sc9  1  0.77899966  0.42333654  0.33115477  1
  Sc  Sc10  1  0.78072504  0.76574835  0.82284799  1
  Sc  Sc11  1  0.55571508  0.87455524  0.07970848  1
  Sc  Sc12  1  0.21967372  0.86618961  0.57683606  1
  Sc  Sc13  1  0.78198815  0.76530574  0.32383535  1
  Sc  Sc14  1  0.44099873  0.75300448  0.83531391  1
  Sc  Sc15  1  0.55069948  0.87119622  0.57042370  1
  Al  Al16  1  0.77347702  0.09133389  0.81818389  1
  Al  Al17  1  0.44988899  0.09782294  0.31179312  1
  Al  Al18  1  0.56432217  0.20179747  0.06414641  1
  Al  Al19  1  0.10719805  0.09468235  0.81492658  1
  Al  Al20  1  0.77603337  0.09469237  0.31084851  1
  Al  Al21  1  0.88748269  0.20298770  0.05402789  1
  Al  Al22  1  0.44967464  0.09844431  0.81306881  1
  Al  Al23  1  0.56515517  0.19849428  0.56373348  1
  Al  Al24  1  0.77245506  0.42835024  0.80960038  1
  Al  Al25  1  0.88554978  0.54525536  0.56665794  1
  Al  Al26  1  0.44844555  0.42139591  0.31867766  1
  Al  Al27  1  0.88891757  0.53394709  0.05942229  1
  Al  Al28  1  0.46277731  0.41588270  0.80908270  1
  Al  Al29  1  0.55676127  0.53676549  0.56051286  1
  Al  Al30  1  0.11174715  0.76790769  0.31160769  1
  Al  Al31  1  0.20197466  0.88134750  0.05730083  1
  Al  Al32  1  0.88485275  0.87675327  0.56162622  1
  Al  Al33  1  0.42944193  0.76218659  0.30597536  1
  Al  Al34  1  0.10066336  0.77444109  0.81483250  1
  Al  Al35  1  0.89178189  0.87949079  0.06643633  1
  N  N36  1  0.23861382  0.19698862  0.35116424  1
  N  N37  1  0.09539569  0.08931892  0.10314333  1
  N  N38  1  0.88366795  0.20713154  0.85164107  1
  N  N39  1  0.76603018  0.07768017  0.62791713  1
  N  N40  1  0.56103685  0.19932224  0.37001101  1
  N  N41  1  0.45882377  0.10392348  0.12110822  1
  N  N42  1  0.23174446  0.18850032  0.85123978  1
  N  N43  1  0.10915880  0.09576724  0.62003466  1
  N  N44  1  0.87533396  0.19419630  0.37633279  1
  N  N45  1  0.77771173  0.09696996  0.11444391  1
  N  N46  1  0.55696056  0.20459904  0.87056605  1
  N  N47  1  0.45556303  0.10459166  0.62159008  1
  N  N48  1  0.23245014  0.55081481  0.35497356  1
  N  N49  1  0.10168196  0.43769702  0.09022941  1
  N  N50  1  0.87301359  0.53146816  0.86757359  1
  N  N51  1  0.76728983  0.44946700  0.61036989  1
  N  N52  1  0.53828650  0.54805091  0.35867106  1
  N  N53  1  0.45911739  0.40271113  0.12818417  1
  N  N54  1  0.24002232  0.55030695  0.84698255  1
  N  N55  1  0.09443240  0.44204855  0.61189484  1
  N  N56  1  0.89228230  0.53903586  0.37541739  1
  N  N57  1  0.80461433  0.41054944  0.11614093  1
  N  N58  1  0.57074395  0.51113140  0.86839580  1
  N  N59  1  0.47617051  0.40922386  0.61484667  1
  N  N60  1  0.22773497  0.85713399  0.36309768  1
  N  N61  1  0.09787563  0.78247084  0.11928597  1
  N  N62  1  0.89598963  0.88472272  0.87626999  1
  N  N63  1  0.78766566  0.75940829  0.59895428  1
  N  N64  1  0.53602136  0.87664908  0.34370166  1
  N  N65  1  0.41634065  0.76837276  0.10370607  1
  N  N66  1  0.19937302  0.88464518  0.86127114  1
  N  N67  1  0.08413927  0.77347661  0.62568360  1
  N  N68  1  0.89996959  0.88395403  0.36759271  1
  N  N69  1  0.79813155  0.75168837  0.10257990  1
  N  N70  1  0.54659134  0.88886804  0.85876898  1
  N  N71  1  0.45080430  0.73803097  0.62160564  1
