# generated using pymatgen
data_Sc4Al5N9
_symmetry_space_group_name_H-M   'P 1'
_cell_length_a   10.26381997
_cell_length_b   10.22377869
_cell_length_c   9.74060659
_cell_angle_alpha   90.12232758
_cell_angle_beta   90.03677823
_cell_angle_gamma   60.08697961
_symmetry_Int_Tables_number   1
_chemical_formula_structural   Sc4Al5N9
_chemical_formula_sum   'Sc16 Al20 N36'
_cell_volume   885.96391933
_cell_formula_units_Z   4
loop_
 _symmetry_equiv_pos_site_id
 _symmetry_equiv_pos_as_xyz
  1  'x, y, z'
loop_
 _atom_site_type_symbol
 _atom_site_label
 _atom_site_symmetry_multiplicity
 _atom_site_fract_x
 _atom_site_fract_y
 _atom_site_fract_z
 _atom_site_occupancy
  Sc  Sc0  1  0.11121969  0.08925556  0.35305955  1
  Sc  Sc1  1  0.22815617  0.20400033  0.10884013  1
  Sc  Sc2  1  0.87760786  0.20906896  0.61917152  1
  Sc  Sc3  1  0.22475753  0.20201575  0.62861499  1
  Sc  Sc4  1  0.11560333  0.42839380  0.37389316  1
  Sc  Sc5  1  0.22797921  0.54655200  0.11854616  1
  Sc  Sc6  1  0.55352916  0.53740813  0.10941788  1
  Sc  Sc7  1  0.10728927  0.43458022  0.86522917  1
  Sc  Sc8  1  0.23409741  0.54182079  0.61835252  1
  Sc  Sc9  1  0.76889349  0.43316880  0.36427440  1
  Sc  Sc10  1  0.77840406  0.76565114  0.87127534  1
  Sc  Sc11  1  0.54866032  0.87335860  0.12695870  1
  Sc  Sc12  1  0.20796082  0.87683549  0.61505376  1
  Sc  Sc13  1  0.78512066  0.76442230  0.36918905  1
  Sc  Sc14  1  0.43395328  0.76245351  0.85584134  1
  Sc  Sc15  1  0.55617568  0.87449847  0.61055569  1
  Al  Al16  1  0.77815257  0.09630115  0.88377754  1
  Al  Al17  1  0.44832943  0.10089339  0.38187244  1
  Al  Al18  1  0.56568890  0.19917396  0.13269066  1
  Al  Al19  1  0.09855737  0.09502912  0.89044948  1
  Al  Al20  1  0.77444912  0.08894773  0.38039377  1
  Al  Al21  1  0.88076919  0.19995610  0.13255925  1
  Al  Al22  1  0.45339055  0.09621847  0.88226725  1
  Al  Al23  1  0.56519928  0.20037310  0.63049685  1
  Al  Al24  1  0.78472917  0.41495898  0.88892379  1
  Al  Al25  1  0.88094876  0.54095014  0.63746006  1
  Al  Al26  1  0.45615468  0.42231414  0.38303481  1
  Al  Al27  1  0.89235374  0.53871376  0.12734663  1
  Al  Al28  1  0.45712366  0.41298087  0.87999034  1
  Al  Al29  1  0.56911901  0.52380369  0.64021152  1
  Al  Al30  1  0.10963999  0.76374539  0.38121879  1
  Al  Al31  1  0.21145207  0.87317215  0.11786954  1
  Al  Al32  1  0.88539126  0.87473192  0.63418283  1
  Al  Al33  1  0.43883677  0.74985171  0.38970176  1
  Al  Al34  1  0.10314459  0.77631607  0.88028039  1
  Al  Al35  1  0.89099626  0.88051145  0.12944979  1
  N  N36  1  0.24372848  0.19691688  0.33228354  1
  N  N37  1  0.09582495  0.08826977  0.09583328  1
  N  N38  1  0.88692838  0.20441940  0.84287328  1
  N  N39  1  0.76933854  0.07879158  0.57558459  1
  N  N40  1  0.56039696  0.20164897  0.32859357  1
  N  N41  1  0.46300203  0.09902965  0.07649817  1
  N  N42  1  0.22791112  0.18888076  0.85754035  1
  N  N43  1  0.10284823  0.10279503  0.57029547  1
  N  N44  1  0.87064610  0.19856724  0.33155666  1
  N  N45  1  0.77587736  0.09401312  0.07941151  1
  N  N46  1  0.56113106  0.20106907  0.82701556  1
  N  N47  1  0.45188840  0.11070835  0.57633541  1
  N  N48  1  0.23767947  0.54456959  0.35089235  1
  N  N49  1  0.09970381  0.44105423  0.08839037  1
  N  N50  1  0.87368978  0.53029606  0.83497911  1
  N  N51  1  0.77006048  0.44671042  0.58344396  1
  N  N52  1  0.53605059  0.54768842  0.32791240  1
  N  N53  1  0.45864335  0.40122489  0.07434741  1
  N  N54  1  0.23707224  0.55360528  0.84495448  1
  N  N55  1  0.09611403  0.43888884  0.60648061  1
  N  N56  1  0.89170874  0.53903443  0.32175474  1
  N  N57  1  0.79703484  0.41590198  0.08976179  1
  N  N58  1  0.57249220  0.51173554  0.84333740  1
  N  N59  1  0.47914727  0.40878530  0.58008570  1
  N  N60  1  0.23103896  0.85166892  0.34442136  1
  N  N61  1  0.09612175  0.78233501  0.07617977  1
  N  N62  1  0.89433451  0.88634465  0.82988790  1
  N  N63  1  0.79417613  0.75279826  0.59877854  1
  N  N64  1  0.53823731  0.87517150  0.35741191  1
  N  N65  1  0.41668694  0.77358361  0.07480902  1
  N  N66  1  0.19539553  0.89102181  0.83620755  1
  N  N67  1  0.08582235  0.76979710  0.57562242  1
  N  N68  1  0.90222853  0.88175480  0.32358456  1
  N  N69  1  0.79003322  0.75876498  0.09791914  1
  N  N70  1  0.54571395  0.88968902  0.83631983  1
  N  N71  1  0.44860961  0.73585725  0.59900524  1
