# generated using pymatgen
data_Sc4Al5N9
_symmetry_space_group_name_H-M   'P 1'
_cell_length_a   10.30313956
_cell_length_b   10.25994674
_cell_length_c   9.65082442
_cell_angle_alpha   90.11792766
_cell_angle_beta   90.07857559
_cell_angle_gamma   60.11740592
_symmetry_Int_Tables_number   1
_chemical_formula_structural   Sc4Al5N9
_chemical_formula_sum   'Sc16 Al20 N36'
_cell_volume   884.54791428
_cell_formula_units_Z   4
loop_
 _symmetry_equiv_pos_site_id
 _symmetry_equiv_pos_as_xyz
  1  'x, y, z'
loop_
 _atom_site_type_symbol
 _atom_site_label
 _atom_site_symmetry_multiplicity
 _atom_site_fract_x
 _atom_site_fract_y
 _atom_site_fract_z
 _atom_site_occupancy
  Sc  Sc0  1  0.11373009  0.08420878  0.35154359  1
  Sc  Sc1  1  0.22818707  0.20334487  0.10867688  1
  Sc  Sc2  1  0.87699677  0.20941624  0.61644618  1
  Sc  Sc3  1  0.22456513  0.20303271  0.62411652  1
  Sc  Sc4  1  0.11544367  0.42924057  0.36991047  1
  Sc  Sc5  1  0.22849527  0.54607657  0.11135026  1
  Sc  Sc6  1  0.55256056  0.53866452  0.10896547  1
  Sc  Sc7  1  0.10655941  0.43329667  0.86329049  1
  Sc  Sc8  1  0.23425411  0.54092237  0.61668779  1
  Sc  Sc9  1  0.76943664  0.43292261  0.36272061  1
  Sc  Sc10  1  0.77757992  0.76498972  0.87203101  1
  Sc  Sc11  1  0.54723275  0.87379490  0.12603909  1
  Sc  Sc12  1  0.21006165  0.87568631  0.61046462  1
  Sc  Sc13  1  0.78551020  0.76458741  0.36773996  1
  Sc  Sc14  1  0.43835032  0.76010173  0.85204137  1
  Sc  Sc15  1  0.55687632  0.87527099  0.61021809  1
  Al  Al16  1  0.77658166  0.09762045  0.88465506  1
  Al  Al17  1  0.44849716  0.10087910  0.38151294  1
  Al  Al18  1  0.56570162  0.19919026  0.13307010  1
  Al  Al19  1  0.09523168  0.10189466  0.88472576  1
  Al  Al20  1  0.77502895  0.08849412  0.38028804  1
  Al  Al21  1  0.88072705  0.20013160  0.13288149  1
  Al  Al22  1  0.45327545  0.09669335  0.88140140  1
  Al  Al23  1  0.56517547  0.20080633  0.62988732  1
  Al  Al24  1  0.78419907  0.41500668  0.88889640  1
  Al  Al25  1  0.88074772  0.54126022  0.63607951  1
  Al  Al26  1  0.45622995  0.42305881  0.38196894  1
  Al  Al27  1  0.89197574  0.53854464  0.12682100  1
  Al  Al28  1  0.45868763  0.41144299  0.87973244  1
  Al  Al29  1  0.57032600  0.52290664  0.63993911  1
  Al  Al30  1  0.11335796  0.76309384  0.37258842  1
  Al  Al31  1  0.20739876  0.87776357  0.07230604  1
  Al  Al32  1  0.88255478  0.87621864  0.63640400  1
  Al  Al33  1  0.44014139  0.74940122  0.39209421  1
  Al  Al34  1  0.10065933  0.77254515  0.86664940  1
  Al  Al35  1  0.89134713  0.88040695  0.12762159  1
  N  N36  1  0.24328514  0.19640219  0.33499444  1
  N  N37  1  0.09459822  0.09032703  0.09429928  1
  N  N38  1  0.88494390  0.20549368  0.84276729  1
  N  N39  1  0.76881314  0.07878200  0.57702323  1
  N  N40  1  0.56059050  0.20162185  0.33016680  1
  N  N41  1  0.46219539  0.09980233  0.07780223  1
  N  N42  1  0.22785990  0.18924134  0.85623835  1
  N  N43  1  0.10200901  0.10333659  0.57462379  1
  N  N44  1  0.87190058  0.19773718  0.33405214  1
  N  N45  1  0.77560212  0.09465933  0.08178141  1
  N  N46  1  0.56127456  0.20100571  0.82811270  1
  N  N47  1  0.45236226  0.11081471  0.57784419  1
  N  N48  1  0.23745274  0.54578631  0.35087298  1
  N  N49  1  0.09947801  0.43987329  0.08988202  1
  N  N50  1  0.87337418  0.52994785  0.83623215  1
  N  N51  1  0.77032931  0.44668706  0.58375007  1
  N  N52  1  0.53643361  0.54830495  0.32944621  1
  N  N53  1  0.46029502  0.40071198  0.07602427  1
  N  N54  1  0.23840885  0.54960785  0.84812890  1
  N  N55  1  0.09537104  0.43968724  0.60599482  1
  N  N56  1  0.89133894  0.53956119  0.32321510  1
  N  N57  1  0.79633864  0.41604988  0.09162991  1
  N  N58  1  0.57300052  0.51080879  0.84476075  1
  N  N59  1  0.47946665  0.40899027  0.58092150  1
  N  N60  1  0.23285870  0.85132745  0.37082929  1
  N  N61  1  0.09598641  0.78062398  0.07720639  1
  N  N62  1  0.88951654  0.88834245  0.83475223  1
  N  N63  1  0.79377789  0.75318099  0.59986587  1
  N  N64  1  0.53851557  0.87524902  0.35846705  1
  N  N65  1  0.41644155  0.77378057  0.07453573  1
  N  N66  1  0.19576341  0.89108549  0.85003179  1
  N  N67  1  0.08629617  0.76893845  0.59541932  1
  N  N68  1  0.90427595  0.88094726  0.32547834  1
  N  N69  1  0.78908531  0.75893532  0.10025820  1
  N  N70  1  0.54589868  0.89017521  0.83853815  1
  N  N71  1  0.45232873  0.73507584  0.60504733  1
