# generated using pymatgen
data_Sc4Al5N9
_symmetry_space_group_name_H-M   'P 1'
_cell_length_a   10.34076884
_cell_length_b   10.30295055
_cell_length_c   9.57062901
_cell_angle_alpha   90.16767728
_cell_angle_beta   90.06210399
_cell_angle_gamma   60.14979678
_symmetry_Int_Tables_number   1
_chemical_formula_structural   Sc4Al5N9
_chemical_formula_sum   'Sc16 Al20 N36'
_cell_volume   884.37657117
_cell_formula_units_Z   4
loop_
 _symmetry_equiv_pos_site_id
 _symmetry_equiv_pos_as_xyz
  1  'x, y, z'
loop_
 _atom_site_type_symbol
 _atom_site_label
 _atom_site_symmetry_multiplicity
 _atom_site_fract_x
 _atom_site_fract_y
 _atom_site_fract_z
 _atom_site_occupancy
  Sc  Sc0  1  0.10373358  0.09020833  0.34065076  1
  Sc  Sc1  1  0.22332706  0.20057159  0.09953486  1
  Sc  Sc2  1  0.87221759  0.21021780  0.59727885  1
  Sc  Sc3  1  0.22947237  0.20439220  0.60244388  1
  Sc  Sc4  1  0.11404976  0.43320031  0.35592699  1
  Sc  Sc5  1  0.22832738  0.54685912  0.09829141  1
  Sc  Sc6  1  0.55924820  0.52928021  0.09582808  1
  Sc  Sc7  1  0.10953695  0.43066667  0.85323331  1
  Sc  Sc8  1  0.23283091  0.54291016  0.60304360  1
  Sc  Sc9  1  0.76583820  0.43435900  0.35631126  1
  Sc  Sc10  1  0.78224577  0.76469567  0.84986953  1
  Sc  Sc11  1  0.55309058  0.87742518  0.10042664  1
  Sc  Sc12  1  0.22261090  0.86308393  0.58976778  1
  Sc  Sc13  1  0.78055377  0.76571982  0.34473213  1
  Sc  Sc14  1  0.43641099  0.75947743  0.85132970  1
  Sc  Sc15  1  0.55482629  0.86602749  0.59704306  1
  Al  Al16  1  0.77715686  0.08823776  0.82635257  1
  Al  Al17  1  0.45003028  0.09806264  0.37014568  1
  Al  Al18  1  0.56163444  0.20219419  0.12523076  1
  Al  Al19  1  0.10544869  0.09515395  0.82068980  1
  Al  Al20  1  0.77960490  0.09359088  0.31979846  1
  Al  Al21  1  0.89060060  0.19587572  0.06744790  1
  Al  Al22  1  0.44926250  0.09892964  0.87390041  1
  Al  Al23  1  0.56286996  0.19950340  0.62272348  1
  Al  Al24  1  0.78440972  0.41862605  0.87505094  1
  Al  Al25  1  0.88184877  0.54169814  0.62484847  1
  Al  Al26  1  0.45536440  0.42583247  0.37520473  1
  Al  Al27  1  0.89326600  0.53657648  0.11712227  1
  Al  Al28  1  0.45603485  0.41109845  0.87355980  1
  Al  Al29  1  0.56702965  0.52609454  0.63764252  1
  Al  Al30  1  0.11256594  0.76921274  0.32099428  1
  Al  Al31  1  0.19848076  0.88536230  0.06399512  1
  Al  Al32  1  0.88757069  0.87477707  0.56942550  1
  Al  Al33  1  0.42762617  0.76244086  0.30989582  1
  Al  Al34  1  0.09999103  0.77364913  0.82392302  1
  Al  Al35  1  0.89225294  0.88047499  0.07540937  1
  N  N36  1  0.23886402  0.19696032  0.34216932  1
  N  N37  1  0.09499992  0.08957870  0.11082265  1
  N  N38  1  0.88717043  0.20152830  0.85529067  1
  N  N39  1  0.77221438  0.07557632  0.62581923  1
  N  N40  1  0.55836177  0.20431810  0.32714873  1
  N  N41  1  0.45645266  0.10533632  0.07468097  1
  N  N42  1  0.23067798  0.18886644  0.84638771  1
  N  N43  1  0.10647615  0.09621608  0.61259096  1
  N  N44  1  0.87158993  0.20087112  0.37208092  1
  N  N45  1  0.77917047  0.09505988  0.11301588  1
  N  N46  1  0.55331205  0.20368640  0.82586057  1
  N  N47  1  0.45963416  0.10079477  0.57017424  1
  N  N48  1  0.23606314  0.54981145  0.34988046  1
  N  N49  1  0.10167384  0.43749506  0.08660867  1
  N  N50  1  0.87714256  0.52962068  0.82892883  1
  N  N51  1  0.76687112  0.45044921  0.58359575  1
  N  N52  1  0.53436186  0.54986275  0.31817096  1
  N  N53  1  0.45833561  0.40121272  0.07175966  1
  N  N54  1  0.23693954  0.55137625  0.84775324  1
  N  N55  1  0.09611408  0.44095717  0.59688106  1
  N  N56  1  0.88940607  0.53879056  0.31699033  1
  N  N57  1  0.80021987  0.41379545  0.08218081  1
  N  N58  1  0.57303762  0.50873894  0.84631149  1
  N  N59  1  0.47914468  0.40898781  0.57723268  1
  N  N60  1  0.22910218  0.85655216  0.36733730  1
  N  N61  1  0.09773535  0.78407549  0.12057116  1
  N  N62  1  0.89721364  0.88443528  0.87754736  1
  N  N63  1  0.79236994  0.75442219  0.59412988  1
  N  N64  1  0.53596655  0.87628971  0.33972214  1
  N  N65  1  0.41288135  0.77504548  0.09452336  1
  N  N66  1  0.19613053  0.88734956  0.85948346  1
  N  N67  1  0.08634133  0.77108379  0.62632260  1
  N  N68  1  0.90103409  0.88362883  0.36753379  1
  N  N69  1  0.79389263  0.75711450  0.09535754  1
  N  N70  1  0.54757384  0.88823340  0.84576684  1
  N  N71  1  0.45100876  0.73491042  0.62850250  1
