# generated using pymatgen
data_Sc4Al5N9
_symmetry_space_group_name_H-M   'P 1'
_cell_length_a   10.38049669
_cell_length_b   10.33609776
_cell_length_c   9.44680104
_cell_angle_alpha   90.19437245
_cell_angle_beta   89.97493463
_cell_angle_gamma   60.02507651
_symmetry_Int_Tables_number   1
_chemical_formula_structural   Sc4Al5N9
_chemical_formula_sum   'Sc16 Al20 N36'
_cell_volume   878.00302774
_cell_formula_units_Z   4
loop_
 _symmetry_equiv_pos_site_id
 _symmetry_equiv_pos_as_xyz
  1  'x, y, z'
loop_
 _atom_site_type_symbol
 _atom_site_label
 _atom_site_symmetry_multiplicity
 _atom_site_fract_x
 _atom_site_fract_y
 _atom_site_fract_z
 _atom_site_occupancy
  Sc  Sc0  1  0.10388379  0.08881924  0.34322793  1
  Sc  Sc1  1  0.22408785  0.20012673  0.09714588  1
  Sc  Sc2  1  0.86896074  0.21475174  0.60107942  1
  Sc  Sc3  1  0.22623125  0.20615306  0.59974159  1
  Sc  Sc4  1  0.11498473  0.43421785  0.35128230  1
  Sc  Sc5  1  0.23142442  0.54616082  0.08835875  1
  Sc  Sc6  1  0.55865599  0.52741867  0.10068715  1
  Sc  Sc7  1  0.10976192  0.43112234  0.84977960  1
  Sc  Sc8  1  0.23114470  0.54483674  0.59615530  1
  Sc  Sc9  1  0.77840733  0.42673074  0.34604105  1
  Sc  Sc10  1  0.78251193  0.76498072  0.85032988  1
  Sc  Sc11  1  0.55162378  0.87607282  0.09917843  1
  Sc  Sc12  1  0.21868924  0.86629953  0.59548828  1
  Sc  Sc13  1  0.77996383  0.76710939  0.34618013  1
  Sc  Sc14  1  0.44205116  0.74842475  0.84964947  1
  Sc  Sc15  1  0.55366730  0.86709179  0.59921490  1
  Al  Al16  1  0.77493618  0.09001191  0.82783146  1
  Al  Al17  1  0.44891003  0.09476489  0.36331682  1
  Al  Al18  1  0.56504704  0.20181922  0.07316585  1
  Al  Al19  1  0.10514165  0.09558537  0.82567615  1
  Al  Al20  1  0.77602700  0.09432160  0.31977881  1
  Al  Al21  1  0.89116586  0.19497625  0.07127763  1
  Al  Al22  1  0.44875145  0.09745192  0.86004059  1
  Al  Al23  1  0.56849733  0.19765786  0.57313466  1
  Al  Al24  1  0.78043508  0.42113230  0.87882913  1
  Al  Al25  1  0.88016110  0.54253474  0.62379114  1
  Al  Al26  1  0.44921329  0.41883186  0.33063359  1
  Al  Al27  1  0.89470075  0.53865326  0.11494022  1
  Al  Al28  1  0.46659040  0.41503410  0.81753828  1
  Al  Al29  1  0.55826127  0.53744340  0.56567668  1
  Al  Al30  1  0.11128988  0.76913828  0.32257082  1
  Al  Al31  1  0.20128932  0.88279816  0.06715351  1
  Al  Al32  1  0.88627292  0.87652987  0.57264552  1
  Al  Al33  1  0.42624633  0.76449521  0.31854150  1
  Al  Al34  1  0.10049052  0.77352023  0.82750412  1
  Al  Al35  1  0.89186614  0.88054263  0.07841730  1
  N  N36  1  0.23806324  0.19706942  0.34866514  1
  N  N37  1  0.09647871  0.08819145  0.11006553  1
  N  N38  1  0.88583396  0.20330705  0.85809605  1
  N  N39  1  0.76848039  0.07869788  0.62835445  1
  N  N40  1  0.56340545  0.19793745  0.36775550  1
  N  N41  1  0.45584915  0.10314607  0.08885161  1
  N  N42  1  0.22968510  0.19000700  0.84983951  1
  N  N43  1  0.10301084  0.09890708  0.61477559  1
  N  N44  1  0.87273898  0.19729347  0.37186303  1
  N  N45  1  0.77705061  0.09609083  0.11531720  1
  N  N46  1  0.55987846  0.20505288  0.86736789  1
  N  N47  1  0.45669191  0.10133194  0.59321177  1
  N  N48  1  0.23375740  0.55205595  0.35515067  1
  N  N49  1  0.10362827  0.43800630  0.08790462  1
  N  N50  1  0.87612485  0.52935935  0.83320063  1
  N  N51  1  0.76671459  0.45230871  0.57832164  1
  N  N52  1  0.53683360  0.54919648  0.35164522  1
  N  N53  1  0.45857237  0.40043982  0.13004032  1
  N  N54  1  0.24257551  0.54848619  0.84945039  1
  N  N55  1  0.09467422  0.44304420  0.59900493  1
  N  N56  1  0.89161839  0.54151738  0.31859623  1
  N  N57  1  0.80198380  0.41282084  0.09270627  1
  N  N58  1  0.57235623  0.50996225  0.87436439  1
  N  N59  1  0.47862585  0.40910434  0.61189590  1
  N  N60  1  0.22639086  0.85704362  0.36970936  1
  N  N61  1  0.09821404  0.78271692  0.11949806  1
  N  N62  1  0.89670753  0.88532547  0.87805316  1
  N  N63  1  0.79140372  0.75611815  0.59732088  1
  N  N64  1  0.53502128  0.87627375  0.34676367  1
  N  N65  1  0.41360195  0.77044720  0.10450762  1
  N  N66  1  0.19959465  0.88512206  0.85976278  1
  N  N67  1  0.08498159  0.77176565  0.62776515  1
  N  N68  1  0.89981930  0.88416195  0.36746162  1
  N  N69  1  0.79283618  0.75861060  0.09689400  1
  N  N70  1  0.54718246  0.88474717  0.85078970  1
  N  N71  1  0.44933866  0.73565223  0.62411473  1
