# generated using pymatgen
data_Sc4Al5N9
_symmetry_space_group_name_H-M   'P 1'
_cell_length_a   10.33304873
_cell_length_b   10.29585175
_cell_length_c   9.59101934
_cell_angle_alpha   90.15992857
_cell_angle_beta   90.06096764
_cell_angle_gamma   60.17850515
_symmetry_Int_Tables_number   1
_chemical_formula_structural   Sc4Al5N9
_chemical_formula_sum   'Sc16 Al20 N36'
_cell_volume   885.24362639
_cell_formula_units_Z   4
loop_
 _symmetry_equiv_pos_site_id
 _symmetry_equiv_pos_as_xyz
  1  'x, y, z'
loop_
 _atom_site_type_symbol
 _atom_site_label
 _atom_site_symmetry_multiplicity
 _atom_site_fract_x
 _atom_site_fract_y
 _atom_site_fract_z
 _atom_site_occupancy
  Sc  Sc0  1  0.10409288  0.09024052  0.33962895  1
  Sc  Sc1  1  0.22362494  0.20089990  0.09940634  1
  Sc  Sc2  1  0.87280425  0.21017628  0.59661513  1
  Sc  Sc3  1  0.22976950  0.20422981  0.60340437  1
  Sc  Sc4  1  0.11392723  0.43307023  0.35670963  1
  Sc  Sc5  1  0.22811420  0.54691206  0.09836233  1
  Sc  Sc6  1  0.55920259  0.52902544  0.09542841  1
  Sc  Sc7  1  0.10928822  0.43085899  0.85335679  1
  Sc  Sc8  1  0.23273375  0.54299743  0.60324077  1
  Sc  Sc9  1  0.76541571  0.43467424  0.35631623  1
  Sc  Sc10  1  0.78219409  0.76470120  0.84966251  1
  Sc  Sc11  1  0.55324146  0.87732718  0.10015514  1
  Sc  Sc12  1  0.22280320  0.86306127  0.58902195  1
  Sc  Sc13  1  0.78049664  0.76579736  0.34450265  1
  Sc  Sc14  1  0.43633537  0.75940154  0.85110854  1
  Sc  Sc15  1  0.55488723  0.86576999  0.59688511  1
  Al  Al16  1  0.77720301  0.08839271  0.82519922  1
  Al  Al17  1  0.45001230  0.09797805  0.37002535  1
  Al  Al18  1  0.56172096  0.20220817  0.12557533  1
  Al  Al19  1  0.10548206  0.09503736  0.82104841  1
  Al  Al20  1  0.77983453  0.09363230  0.31966351  1
  Al  Al21  1  0.89056497  0.19585838  0.06717270  1
  Al  Al22  1  0.44957722  0.09886333  0.87392879  1
  Al  Al23  1  0.56283357  0.19951981  0.62219659  1
  Al  Al24  1  0.78443567  0.41851295  0.87519040  1
  Al  Al25  1  0.88167310  0.54169739  0.62482993  1
  Al  Al26  1  0.45504394  0.42605932  0.37529800  1
  Al  Al27  1  0.89324200  0.53663123  0.11724236  1
  Al  Al28  1  0.45587534  0.41087742  0.87343317  1
  Al  Al29  1  0.56709233  0.52581395  0.63803717  1
  Al  Al30  1  0.11241536  0.76929645  0.32061209  1
  Al  Al31  1  0.19843335  0.88526896  0.06354155  1
  Al  Al32  1  0.88760175  0.87480518  0.56895454  1
  Al  Al33  1  0.42752091  0.76241419  0.30881579  1
  Al  Al34  1  0.09988005  0.77383708  0.82336304  1
  Al  Al35  1  0.89211086  0.88071212  0.07478282  1
  N  N36  1  0.23909026  0.19703635  0.34107244  1
  N  N37  1  0.09520129  0.08966674  0.11015164  1
  N  N38  1  0.88713498  0.20148969  0.85520628  1
  N  N39  1  0.77237358  0.07574180  0.62523635  1
  N  N40  1  0.55829673  0.20451319  0.32696318  1
  N  N41  1  0.45689830  0.10518708  0.07404763  1
  N  N42  1  0.23089058  0.18894673  0.84621530  1
  N  N43  1  0.10689860  0.09598585  0.61295555  1
  N  N44  1  0.87202324  0.20098180  0.37183268  1
  N  N45  1  0.77928921  0.09503705  0.11348796  1
  N  N46  1  0.55332432  0.20366388  0.82485423  1
  N  N47  1  0.45974747  0.10052618  0.56941934  1
  N  N48  1  0.23578588  0.54989577  0.34969996  1
  N  N49  1  0.10139025  0.43772359  0.08572988  1
  N  N50  1  0.87688415  0.52964461  0.82814919  1
  N  N51  1  0.76662760  0.45053965  0.58293711  1
  N  N52  1  0.53404029  0.54980479  0.31719940  1
  N  N53  1  0.45808991  0.40094054  0.07104756  1
  N  N54  1  0.23676815  0.55151075  0.84733818  1
  N  N55  1  0.09603675  0.44080502  0.59659691  1
  N  N56  1  0.88938160  0.53878842  0.31645675  1
  N  N57  1  0.80020163  0.41385570  0.08166623  1
  N  N58  1  0.57308720  0.50844555  0.84610016  1
  N  N59  1  0.47895638  0.40909962  0.57678021  1
  N  N60  1  0.22920394  0.85656970  0.36702430  1
  N  N61  1  0.09749460  0.78421478  0.12065679  1
  N  N62  1  0.89706215  0.88479527  0.87732467  1
  N  N63  1  0.79237434  0.75437814  0.59369880  1
  N  N64  1  0.53596347  0.87619436  0.33903327  1
  N  N65  1  0.41289832  0.77488894  0.09407971  1
  N  N66  1  0.19610454  0.88727178  0.85966477  1
  N  N67  1  0.08628333  0.77128027  0.62628182  1
  N  N68  1  0.90107059  0.88369992  0.36768034  1
  N  N69  1  0.79397772  0.75707652  0.09491452  1
  N  N70  1  0.54759172  0.88823341  0.84533843  1
  N  N71  1  0.45096925  0.73468250  0.62883884  1
