# generated using pymatgen
data_Sc4Al5N9
_symmetry_space_group_name_H-M   'P 1'
_cell_length_a   10.31693071
_cell_length_b   10.27854979
_cell_length_c   9.61667137
_cell_angle_alpha   89.82411631
_cell_angle_beta   89.74153555
_cell_angle_gamma   60.00272847
_symmetry_Int_Tables_number   1
_chemical_formula_structural   Sc4Al5N9
_chemical_formula_sum   'Sc16 Al20 N36'
_cell_volume   883.17159652
_cell_formula_units_Z   4
loop_
 _symmetry_equiv_pos_site_id
 _symmetry_equiv_pos_as_xyz
  1  'x, y, z'
loop_
 _atom_site_type_symbol
 _atom_site_label
 _atom_site_symmetry_multiplicity
 _atom_site_fract_x
 _atom_site_fract_y
 _atom_site_fract_z
 _atom_site_occupancy
  Sc  Sc0  1  0.10486558  0.08843617  0.33239492  1
  Sc  Sc1  1  0.22519103  0.19928497  0.08519540  1
  Sc  Sc2  1  0.87576035  0.20182633  0.59614332  1
  Sc  Sc3  1  0.22741629  0.20572133  0.58766831  1
  Sc  Sc4  1  0.11774181  0.43308389  0.34482640  1
  Sc  Sc5  1  0.23177855  0.54704861  0.08319759  1
  Sc  Sc6  1  0.56729040  0.52354698  0.09191127  1
  Sc  Sc7  1  0.10833306  0.43119008  0.84594430  1
  Sc  Sc8  1  0.23028955  0.54477066  0.59233392  1
  Sc  Sc9  1  0.77887936  0.42346424  0.34583234  1
  Sc  Sc10  1  0.78126476  0.76589877  0.84620284  1
  Sc  Sc11  1  0.55243556  0.87606735  0.09092185  1
  Sc  Sc12  1  0.22031498  0.86533915  0.58938860  1
  Sc  Sc13  1  0.77907873  0.76930016  0.34063238  1
  Sc  Sc14  1  0.44130599  0.75111361  0.84626572  1
  Sc  Sc15  1  0.55106656  0.87011166  0.58627868  1
  Al  Al16  1  0.77288417  0.09060071  0.82613998  1
  Al  Al17  1  0.44986246  0.09744083  0.32068023  1
  Al  Al18  1  0.56429819  0.20170668  0.07137336  1
  Al  Al19  1  0.10673955  0.09545318  0.82242855  1
  Al  Al20  1  0.77634963  0.09489049  0.31643627  1
  Al  Al21  1  0.88744836  0.20389543  0.06121280  1
  Al  Al22  1  0.44983797  0.09868977  0.82211735  1
  Al  Al23  1  0.56589028  0.19747987  0.57044438  1
  Al  Al24  1  0.77165402  0.42551446  0.81865656  1
  Al  Al25  1  0.88262833  0.54490568  0.61826747  1
  Al  Al26  1  0.44965074  0.42025557  0.32627741  1
  Al  Al27  1  0.89318052  0.53578106  0.12003337  1
  Al  Al28  1  0.46355120  0.41501714  0.81671092  1
  Al  Al29  1  0.55483302  0.53689369  0.56510339  1
  Al  Al30  1  0.11189226  0.76915770  0.31916892  1
  Al  Al31  1  0.20139413  0.88244472  0.06358487  1
  Al  Al32  1  0.88524550  0.87619475  0.56875793  1
  Al  Al33  1  0.42806355  0.76286732  0.31357858  1
  Al  Al34  1  0.10003115  0.77438449  0.82356595  1
  Al  Al35  1  0.89199932  0.88137541  0.07528165  1
  N  N36  1  0.23915349  0.19543284  0.35291832  1
  N  N37  1  0.09520995  0.08953779  0.10614567  1
  N  N38  1  0.88342990  0.20658748  0.85297688  1
  N  N39  1  0.76587466  0.07658499  0.63062423  1
  N  N40  1  0.56194764  0.19817514  0.37208262  1
  N  N41  1  0.45835794  0.10423029  0.12276935  1
  N  N42  1  0.23051232  0.18997440  0.85296823  1
  N  N43  1  0.10819058  0.09588008  0.61882559  1
  N  N44  1  0.87528666  0.19355876  0.37733916  1
  N  N45  1  0.77743790  0.09802750  0.11558211  1
  N  N46  1  0.55720031  0.20423556  0.87309289  1
  N  N47  1  0.45661605  0.10412672  0.62410359  1
  N  N48  1  0.23477668  0.55252943  0.35570304  1
  N  N49  1  0.10283662  0.43793893  0.08847580  1
  N  N50  1  0.87556801  0.53148868  0.82625074  1
  N  N51  1  0.76607779  0.44582548  0.59993370  1
  N  N52  1  0.53808901  0.54826674  0.35742714  1
  N  N53  1  0.46014971  0.40162317  0.13014327  1
  N  N54  1  0.24034770  0.54950936  0.84943915  1
  N  N55  1  0.09576750  0.44226715  0.59644304  1
  N  N56  1  0.89128840  0.54160640  0.32621339  1
  N  N57  1  0.80356500  0.41061987  0.11303987  1
  N  N58  1  0.57104213  0.51024496  0.87121862  1
  N  N59  1  0.47659693  0.40836169  0.61596171  1
  N  N60  1  0.22760715  0.85681944  0.36819378  1
  N  N61  1  0.09810722  0.78309158  0.12073528  1
  N  N62  1  0.89654846  0.88575911  0.87918869  1
  N  N63  1  0.78842189  0.75794664  0.59408058  1
  N  N64  1  0.53417618  0.87692663  0.34777948  1
  N  N65  1  0.41539542  0.76863870  0.10444071  1
  N  N66  1  0.19954433  0.88477069  0.86084529  1
  N  N67  1  0.08379130  0.77324901  0.62821786  1
  N  N68  1  0.90043263  0.88479611  0.36816933  1
  N  N69  1  0.79397532  0.75655365  0.09770648  1
  N  N70  1  0.54570946  0.88796643  0.85843382  1
  N  N71  1  0.45124996  0.73598821  0.62533135  1
