# generated using pymatgen
data_Sc4Al5N9
_symmetry_space_group_name_H-M   'P 1'
_cell_length_a   10.22314775
_cell_length_b   10.18754317
_cell_length_c   9.84948110
_cell_angle_alpha   89.94414173
_cell_angle_beta   89.89837270
_cell_angle_gamma   60.04806814
_symmetry_Int_Tables_number   1
_chemical_formula_structural   Sc4Al5N9
_chemical_formula_sum   'Sc16 Al20 N36'
_cell_volume   888.80717291
_cell_formula_units_Z   4
loop_
 _symmetry_equiv_pos_site_id
 _symmetry_equiv_pos_as_xyz
  1  'x, y, z'
loop_
 _atom_site_type_symbol
 _atom_site_label
 _atom_site_symmetry_multiplicity
 _atom_site_fract_x
 _atom_site_fract_y
 _atom_site_fract_z
 _atom_site_occupancy
  Sc  Sc0  1  0.10451675  0.08925541  0.32202146  1
  Sc  Sc1  1  0.22641656  0.19751865  0.07235087  1
  Sc  Sc2  1  0.87572448  0.20449272  0.58984223  1
  Sc  Sc3  1  0.22576677  0.20837017  0.57593166  1
  Sc  Sc4  1  0.11462899  0.43331422  0.31733879  1
  Sc  Sc5  1  0.23136276  0.54761889  0.07072981  1
  Sc  Sc6  1  0.56661263  0.52418573  0.08249934  1
  Sc  Sc7  1  0.10870388  0.43065969  0.83086985  1
  Sc  Sc8  1  0.22889466  0.54342763  0.58193782  1
  Sc  Sc9  1  0.77930228  0.42319496  0.33273873  1
  Sc  Sc10  1  0.78095319  0.76549138  0.82493545  1
  Sc  Sc11  1  0.55514782  0.87483222  0.08060707  1
  Sc  Sc12  1  0.21987971  0.86601265  0.57888706  1
  Sc  Sc13  1  0.78156692  0.76562547  0.32474479  1
  Sc  Sc14  1  0.44107250  0.75245669  0.83696634  1
  Sc  Sc15  1  0.55082317  0.87097842  0.57267590  1
  Al  Al16  1  0.77339663  0.09113956  0.81894539  1
  Al  Al17  1  0.44991624  0.09774706  0.31259237  1
  Al  Al18  1  0.56431109  0.20176441  0.06466729  1
  Al  Al19  1  0.10714533  0.09503028  0.81528069  1
  Al  Al20  1  0.77600642  0.09470115  0.31122746  1
  Al  Al21  1  0.88751497  0.20306710  0.05470552  1
  Al  Al22  1  0.44967645  0.09852028  0.81388532  1
  Al  Al23  1  0.56539491  0.19831161  0.56420111  1
  Al  Al24  1  0.77242856  0.42839447  0.81011775  1
  Al  Al25  1  0.88553426  0.54553100  0.56741947  1
  Al  Al26  1  0.44864117  0.42109702  0.31940441  1
  Al  Al27  1  0.88895831  0.53365218  0.06041322  1
  Al  Al28  1  0.46315125  0.41571380  0.80981240  1
  Al  Al29  1  0.55676127  0.53679647  0.56079805  1
  Al  Al30  1  0.11172297  0.76815567  0.31237306  1
  Al  Al31  1  0.20164117  0.88173050  0.05757254  1
  Al  Al32  1  0.88480226  0.87670544  0.56218758  1
  Al  Al33  1  0.42912336  0.76243275  0.30665237  1
  Al  Al34  1  0.10043573  0.77437910  0.81557233  1
  Al  Al35  1  0.89177931  0.87968435  0.06729917  1
  N  N36  1  0.23856819  0.19705064  0.35038269  1
  N  N37  1  0.09528626  0.08931843  0.10331558  1
  N  N38  1  0.88368870  0.20714481  0.85112288  1
  N  N39  1  0.76605503  0.07752240  0.62766156  1
  N  N40  1  0.56117629  0.19913152  0.36959634  1
  N  N41  1  0.45877176  0.10388579  0.12052404  1
  N  N42  1  0.23158227  0.18877384  0.85095631  1
  N  N43  1  0.10898819  0.09606391  0.61863613  1
  N  N44  1  0.87507443  0.19414369  0.37622013  1
  N  N45  1  0.77764529  0.09710666  0.11393161  1
  N  N46  1  0.55704347  0.20452147  0.87022421  1
  N  N47  1  0.45571891  0.10461330  0.62115529  1
  N  N48  1  0.23270891  0.55100772  0.35423134  1
  N  N49  1  0.10150487  0.43796402  0.09049700  1
  N  N50  1  0.87344532  0.53099542  0.86706253  1
  N  N51  1  0.76735980  0.44936802  0.60943522  1
  N  N52  1  0.53844431  0.54805080  0.35757777  1
  N  N53  1  0.45922510  0.40245398  0.12780717  1
  N  N54  1  0.24021511  0.55022501  0.84680058  1
  N  N55  1  0.09484266  0.44211776  0.61060441  1
  N  N56  1  0.89181274  0.53967017  0.37479302  1
  N  N57  1  0.80470575  0.41034806  0.11624373  1
  N  N58  1  0.57110688  0.51078163  0.86868048  1
  N  N59  1  0.47651882  0.40907401  0.61427124  1
  N  N60  1  0.22776678  0.85697729  0.36358434  1
  N  N61  1  0.09787487  0.78266763  0.11882255  1
  N  N62  1  0.89598784  0.88479051  0.87608854  1
  N  N63  1  0.78779124  0.75941265  0.59911063  1
  N  N64  1  0.53576001  0.87670181  0.34366852  1
  N  N65  1  0.41603789  0.76847972  0.10279630  1
  N  N66  1  0.19923364  0.88485690  0.86005835  1
  N  N67  1  0.08407193  0.77331106  0.62520530  1
  N  N68  1  0.89980091  0.88397722  0.36691960  1
  N  N69  1  0.79756878  0.75199198  0.10156208  1
  N  N70  1  0.54643878  0.88867160  0.85769283  1
  N  N71  1  0.45101299  0.73753667  0.62177509  1
