# generated using pymatgen
data_Sc4Al5N9
_symmetry_space_group_name_H-M   'P 1'
_cell_length_a   10.35978953
_cell_length_b   10.31749920
_cell_length_c   9.51703794
_cell_angle_alpha   90.23573098
_cell_angle_beta   90.00847282
_cell_angle_gamma   60.03831512
_symmetry_Int_Tables_number   1
_chemical_formula_structural   Sc4Al5N9
_chemical_formula_sum   'Sc16 Al20 N36'
_cell_volume   881.29362300
_cell_formula_units_Z   4
loop_
 _symmetry_equiv_pos_site_id
 _symmetry_equiv_pos_as_xyz
  1  'x, y, z'
loop_
 _atom_site_type_symbol
 _atom_site_label
 _atom_site_symmetry_multiplicity
 _atom_site_fract_x
 _atom_site_fract_y
 _atom_site_fract_z
 _atom_site_occupancy
  Sc  Sc0  1  0.10415846  0.08861077  0.34312885  1
  Sc  Sc1  1  0.22320759  0.20105351  0.09976476  1
  Sc  Sc2  1  0.86886773  0.21521042  0.60073824  1
  Sc  Sc3  1  0.22681864  0.20589362  0.60270962  1
  Sc  Sc4  1  0.11513883  0.43404907  0.35383847  1
  Sc  Sc5  1  0.23071712  0.54674283  0.08772900  1
  Sc  Sc6  1  0.55877937  0.52736895  0.10056665  1
  Sc  Sc7  1  0.10969748  0.43114778  0.85074964  1
  Sc  Sc8  1  0.23148356  0.54483278  0.59663970  1
  Sc  Sc9  1  0.77836394  0.42662484  0.34637650  1
  Sc  Sc10  1  0.78229535  0.76483673  0.85151082  1
  Sc  Sc11  1  0.55160912  0.87573491  0.10173475  1
  Sc  Sc12  1  0.21895067  0.86609396  0.59482166  1
  Sc  Sc13  1  0.77967742  0.76719621  0.34755244  1
  Sc  Sc14  1  0.44195127  0.74828896  0.84986217  1
  Sc  Sc15  1  0.55403734  0.86669772  0.60162523  1
  Al  Al16  1  0.77465934  0.09011142  0.82665869  1
  Al  Al17  1  0.44866751  0.09441244  0.37125353  1
  Al  Al18  1  0.56566587  0.20209862  0.07299250  1
  Al  Al19  1  0.10533044  0.09540920  0.82495666  1
  Al  Al20  1  0.77632269  0.09443402  0.31944545  1
  Al  Al21  1  0.89166322  0.19446200  0.07044920  1
  Al  Al22  1  0.44852718  0.09727437  0.87087954  1
  Al  Al23  1  0.56880344  0.19811644  0.57141451  1
  Al  Al24  1  0.78081337  0.42097630  0.88066792  1
  Al  Al25  1  0.87994047  0.54246783  0.62478836  1
  Al  Al26  1  0.44874316  0.41886733  0.32882087  1
  Al  Al27  1  0.89491316  0.53886539  0.11676075  1
  Al  Al28  1  0.46709600  0.41481839  0.81746300  1
  Al  Al29  1  0.55790349  0.53748252  0.56449400  1
  Al  Al30  1  0.11120526  0.76910579  0.32240965  1
  Al  Al31  1  0.20085960  0.88303969  0.06671501  1
  Al  Al32  1  0.88626954  0.87657650  0.57240988  1
  Al  Al33  1  0.42599504  0.76440106  0.31772741  1
  Al  Al34  1  0.10035133  0.77379977  0.82673848  1
  Al  Al35  1  0.89179039  0.88069739  0.07774087  1
  N  N36  1  0.23809113  0.19710128  0.34681373  1
  N  N37  1  0.09644175  0.08806490  0.11166332  1
  N  N38  1  0.88612546  0.20309475  0.85868102  1
  N  N39  1  0.76817468  0.07876266  0.62890995  1
  N  N40  1  0.56366649  0.19897346  0.36691470  1
  N  N41  1  0.45543434  0.10302827  0.08270505  1
  N  N42  1  0.23009992  0.18985795  0.84947920  1
  N  N43  1  0.10325439  0.09880903  0.61598822  1
  N  N44  1  0.87309523  0.19706570  0.37358159  1
  N  N45  1  0.77735306  0.09602733  0.11653235  1
  N  N46  1  0.56033855  0.20509427  0.86795972  1
  N  N47  1  0.45694622  0.10032434  0.58338443  1
  N  N48  1  0.23377706  0.55206442  0.35621228  1
  N  N49  1  0.10315285  0.43849515  0.08666455  1
  N  N50  1  0.87584137  0.52907787  0.83169577  1
  N  N51  1  0.76655045  0.45279600  0.57640432  1
  N  N52  1  0.53639851  0.54912981  0.35159682  1
  N  N53  1  0.45789605  0.40066223  0.13004325  1
  N  N54  1  0.24232626  0.54891480  0.84986337  1
  N  N55  1  0.09490097  0.44278038  0.59906307  1
  N  N56  1  0.89193860  0.54151237  0.31791271  1
  N  N57  1  0.80251948  0.41262606  0.09276144  1
  N  N58  1  0.57255463  0.50978085  0.87610256  1
  N  N59  1  0.47901728  0.40882026  0.61352469  1
  N  N60  1  0.22666532  0.85665832  0.37101952  1
  N  N61  1  0.09779991  0.78318442  0.12101183  1
  N  N62  1  0.89663394  0.88561878  0.87888957  1
  N  N63  1  0.79156527  0.75595009  0.59736981  1
  N  N64  1  0.53497955  0.87585297  0.34544421  1
  N  N65  1  0.41328391  0.77038322  0.10492946  1
  N  N66  1  0.19932026  0.88537548  0.86097597  1
  N  N67  1  0.08482731  0.77201707  0.62891052  1
  N  N68  1  0.89983072  0.88425911  0.36890413  1
  N  N69  1  0.79273672  0.75861117  0.09686952  1
  N  N70  1  0.54689218  0.88514888  0.84976278  1
  N  N71  1  0.44942924  0.73493157  0.62575439  1
