# generated using pymatgen
data_Sc4Al5N9
_symmetry_space_group_name_H-M   'P 1'
_cell_length_a   10.30354785
_cell_length_b   10.26000462
_cell_length_c   9.66054903
_cell_angle_alpha   90.06960376
_cell_angle_beta   90.13288125
_cell_angle_gamma   60.14941190
_symmetry_Int_Tables_number   1
_chemical_formula_structural   Sc4Al5N9
_chemical_formula_sum   'Sc16 Al20 N36'
_cell_volume   885.76296062
_cell_formula_units_Z   4
loop_
 _symmetry_equiv_pos_site_id
 _symmetry_equiv_pos_as_xyz
  1  'x, y, z'
loop_
 _atom_site_type_symbol
 _atom_site_label
 _atom_site_symmetry_multiplicity
 _atom_site_fract_x
 _atom_site_fract_y
 _atom_site_fract_z
 _atom_site_occupancy
  Sc  Sc0  1  0.11353036  0.08482727  0.35142039  1
  Sc  Sc1  1  0.22816571  0.20282859  0.10851451  1
  Sc  Sc2  1  0.87720886  0.20955102  0.61685605  1
  Sc  Sc3  1  0.22463309  0.20298655  0.62402932  1
  Sc  Sc4  1  0.11568319  0.42953765  0.36886745  1
  Sc  Sc5  1  0.23020444  0.54275492  0.10534137  1
  Sc  Sc6  1  0.55262719  0.53893825  0.10913193  1
  Sc  Sc7  1  0.10640990  0.43289236  0.86248443  1
  Sc  Sc8  1  0.23389474  0.54140817  0.61301107  1
  Sc  Sc9  1  0.76944766  0.43293908  0.36296056  1
  Sc  Sc10  1  0.77714014  0.76470200  0.87312141  1
  Sc  Sc11  1  0.54696277  0.87374829  0.12655084  1
  Sc  Sc12  1  0.21016664  0.87440550  0.60514443  1
  Sc  Sc13  1  0.78576667  0.76443479  0.36839768  1
  Sc  Sc14  1  0.43800072  0.76025192  0.85194994  1
  Sc  Sc15  1  0.55684143  0.87537327  0.61043989  1
  Al  Al16  1  0.77596442  0.09834369  0.88575827  1
  Al  Al17  1  0.44846208  0.10093572  0.38167557  1
  Al  Al18  1  0.56592693  0.19901288  0.13368312  1
  Al  Al19  1  0.09468703  0.10229277  0.88500116  1
  Al  Al20  1  0.77487994  0.08850954  0.38118264  1
  Al  Al21  1  0.88082112  0.20032047  0.13329660  1
  Al  Al22  1  0.45332384  0.09660610  0.88158098  1
  Al  Al23  1  0.56493215  0.20110625  0.63020664  1
  Al  Al24  1  0.78412896  0.41508878  0.88907934  1
  Al  Al25  1  0.88081835  0.54131843  0.63616836  1
  Al  Al26  1  0.45600622  0.42329072  0.38167868  1
  Al  Al27  1  0.89194874  0.53826948  0.12708933  1
  Al  Al28  1  0.45925424  0.41111975  0.87981462  1
  Al  Al29  1  0.57038880  0.52293460  0.64014540  1
  Al  Al30  1  0.11783166  0.76463640  0.32755543  1
  Al  Al31  1  0.20683323  0.87734397  0.06709037  1
  Al  Al32  1  0.88047420  0.87731726  0.63807338  1
  Al  Al33  1  0.44048986  0.74927370  0.39224526  1
  Al  Al34  1  0.10135057  0.77121623  0.83676149  1
  Al  Al35  1  0.88847212  0.88179338  0.12726161  1
  N  N36  1  0.24329798  0.19641323  0.33483052  1
  N  N37  1  0.09447402  0.09041656  0.09430714  1
  N  N38  1  0.88467748  0.20572697  0.84279165  1
  N  N39  1  0.76884780  0.07909123  0.57816608  1
  N  N40  1  0.56049702  0.20179708  0.33056454  1
  N  N41  1  0.46230392  0.09977320  0.07783296  1
  N  N42  1  0.22787483  0.18891034  0.85596619  1
  N  N43  1  0.10211249  0.10313384  0.57477873  1
  N  N44  1  0.87201089  0.19774312  0.33439588  1
  N  N45  1  0.77540510  0.09540681  0.08253822  1
  N  N46  1  0.56105077  0.20117700  0.82814408  1
  N  N47  1  0.45238584  0.11084429  0.57779357  1
  N  N48  1  0.23732085  0.54634905  0.35122888  1
  N  N49  1  0.09900956  0.43916892  0.08924622  1
  N  N50  1  0.87342683  0.52975090  0.83595900  1
  N  N51  1  0.77023106  0.44689965  0.58369307  1
  N  N52  1  0.53634622  0.54859398  0.32947136  1
  N  N53  1  0.46206078  0.39977605  0.07607243  1
  N  N54  1  0.23902739  0.54855641  0.85157141  1
  N  N55  1  0.09539042  0.43984161  0.60555850  1
  N  N56  1  0.89151945  0.53930696  0.32319081  1
  N  N57  1  0.79623263  0.41612073  0.09161851  1
  N  N58  1  0.57300594  0.51095020  0.84466682  1
  N  N59  1  0.47940655  0.40917647  0.58090702  1
  N  N60  1  0.23233946  0.85130009  0.37468419  1
  N  N61  1  0.10047169  0.77986737  0.10850905  1
  N  N62  1  0.88722841  0.88934925  0.84112043  1
  N  N63  1  0.79395582  0.75339499  0.60023039  1
  N  N64  1  0.53828250  0.87531688  0.35877989  1
  N  N65  1  0.41656319  0.77390793  0.07450738  1
  N  N66  1  0.19464345  0.89054051  0.85515900  1
  N  N67  1  0.08763296  0.76858429  0.62808917  1
  N  N68  1  0.90161919  0.88222260  0.32823593  1
  N  N69  1  0.78886998  0.75861636  0.10075653  1
  N  N70  1  0.54561207  0.89030486  0.83832862  1
  N  N71  1  0.45233899  0.73517935  0.60549614  1
