# generated using pymatgen
data_Sc4Al5N9
_symmetry_space_group_name_H-M   'P 1'
_cell_length_a   10.15767594
_cell_length_b   10.12136470
_cell_length_c   10.02174457
_cell_angle_alpha   89.94020418
_cell_angle_beta   90.05136912
_cell_angle_gamma   60.04304460
_symmetry_Int_Tables_number   1
_chemical_formula_structural   Sc4Al5N9
_chemical_formula_sum   'Sc16 Al20 N36'
_cell_volume   892.67789487
_cell_formula_units_Z   4
loop_
 _symmetry_equiv_pos_site_id
 _symmetry_equiv_pos_as_xyz
  1  'x, y, z'
loop_
 _atom_site_type_symbol
 _atom_site_label
 _atom_site_symmetry_multiplicity
 _atom_site_fract_x
 _atom_site_fract_y
 _atom_site_fract_z
 _atom_site_occupancy
  Sc  Sc0  1  0.10997193  0.09282048  0.36995901  1
  Sc  Sc1  1  0.22805156  0.20450453  0.12409521  1
  Sc  Sc2  1  0.87931451  0.20795961  0.64305340  1
  Sc  Sc3  1  0.22551424  0.19939997  0.65549073  1
  Sc  Sc4  1  0.11696003  0.42461693  0.39865845  1
  Sc  Sc5  1  0.22705118  0.54497926  0.14076634  1
  Sc  Sc6  1  0.55496487  0.53574545  0.13004934  1
  Sc  Sc7  1  0.10758507  0.43656818  0.88379764  1
  Sc  Sc8  1  0.23372498  0.54306265  0.63696804  1
  Sc  Sc9  1  0.76892604  0.43232871  0.38649653  1
  Sc  Sc10  1  0.77658355  0.76731547  0.89022558  1
  Sc  Sc11  1  0.55008692  0.87257124  0.15075545  1
  Sc  Sc12  1  0.20683536  0.87792332  0.63547752  1
  Sc  Sc13  1  0.78678932  0.76252458  0.39033415  1
  Sc  Sc14  1  0.43293851  0.76358965  0.87893943  1
  Sc  Sc15  1  0.55524584  0.87322583  0.62611302  1
  Al  Al16  1  0.77829854  0.09590897  0.90091812  1
  Al  Al17  1  0.44725396  0.10141552  0.39876619  1
  Al  Al18  1  0.56597779  0.19860762  0.14853915  1
  Al  Al19  1  0.10035336  0.09166577  0.91369716  1
  Al  Al20  1  0.77439520  0.09020769  0.39649792  1
  Al  Al21  1  0.88127330  0.20035653  0.14735730  1
  Al  Al22  1  0.45426529  0.09479161  0.90035874  1
  Al  Al23  1  0.56429831  0.20025839  0.64673517  1
  Al  Al24  1  0.78378288  0.41684927  0.90459096  1
  Al  Al25  1  0.88127371  0.54095642  0.65598875  1
  Al  Al26  1  0.45532331  0.42134508  0.40047651  1
  Al  Al27  1  0.89281247  0.53805432  0.14502684  1
  Al  Al28  1  0.45588262  0.41505175  0.89642229  1
  Al  Al29  1  0.56677994  0.52539476  0.65547321  1
  Al  Al30  1  0.10883528  0.76407134  0.39593647  1
  Al  Al31  1  0.21381489  0.86991094  0.15063809  1
  Al  Al32  1  0.88640819  0.87434456  0.65004515  1
  Al  Al33  1  0.43740216  0.75014186  0.40467705  1
  Al  Al34  1  0.10505262  0.77674491  0.90106616  1
  Al  Al35  1  0.89073994  0.87986954  0.14674873  1
  N  N36  1  0.24491295  0.19736426  0.33888235  1
  N  N37  1  0.09748030  0.08568472  0.11107839  1
  N  N38  1  0.88855557  0.20386841  0.85918192  1
  N  N39  1  0.76976754  0.07981673  0.58751314  1
  N  N40  1  0.55982572  0.20173784  0.34055225  1
  N  N41  1  0.46601272  0.09593850  0.08812329  1
  N  N42  1  0.22807119  0.18830200  0.87608839  1
  N  N43  1  0.10358469  0.10402174  0.58022635  1
  N  N44  1  0.86949320  0.19994597  0.33958321  1
  N  N45  1  0.77618769  0.09342286  0.09148345  1
  N  N46  1  0.56024196  0.20160434  0.83910712  1
  N  N47  1  0.44914336  0.11218785  0.58738806  1
  N  N48  1  0.23613419  0.54361115  0.36416146  1
  N  N49  1  0.09829421  0.44266476  0.09665627  1
  N  N50  1  0.87280470  0.53228065  0.84597092  1
  N  N51  1  0.77038361  0.44579745  0.59880679  1
  N  N52  1  0.53579681  0.54667782  0.34140579  1
  N  N53  1  0.45791072  0.40140150  0.08538418  1
  N  N54  1  0.23704827  0.55634342  0.85527253  1
  N  N55  1  0.09765688  0.43629968  0.62235447  1
  N  N56  1  0.89381148  0.53620446  0.33387719  1
  N  N57  1  0.79748000  0.41657374  0.09897098  1
  N  N58  1  0.57133109  0.51336580  0.85281767  1
  N  N59  1  0.47825836  0.40876684  0.59185395  1
  N  N60  1  0.23016154  0.85172271  0.34668816  1
  N  N61  1  0.09761782  0.78175155  0.09124017  1
  N  N62  1  0.89610669  0.88555148  0.84125901  1
  N  N63  1  0.79527704  0.75206869  0.61003580  1
  N  N64  1  0.53880620  0.87481786  0.37267541  1
  N  N65  1  0.41784629  0.77355940  0.09048781  1
  N  N66  1  0.19512918  0.89183014  0.84650928  1
  N  N67  1  0.08577537  0.77150673  0.58337499  1
  N  N68  1  0.90063749  0.88234215  0.33564094  1
  N  N69  1  0.79005012  0.75805143  0.10983408  1
  N  N70  1  0.54402996  0.89057575  0.84323426  1
  N  N71  1  0.44533274  0.73599261  0.60417784  1
