# generated using pymatgen
data_Sc4Al5N9
_symmetry_space_group_name_H-M   'P 1'
_cell_length_a   10.40662035
_cell_length_b   10.37791778
_cell_length_c   9.35030746
_cell_angle_alpha   90.21660972
_cell_angle_beta   89.96954890
_cell_angle_gamma   60.13002616
_symmetry_Int_Tables_number   1
_chemical_formula_structural   Sc4Al5N9
_chemical_formula_sum   'Sc16 Al20 N36'
_cell_volume   875.66745534
_cell_formula_units_Z   4
loop_
 _symmetry_equiv_pos_site_id
 _symmetry_equiv_pos_as_xyz
  1  'x, y, z'
loop_
 _atom_site_type_symbol
 _atom_site_label
 _atom_site_symmetry_multiplicity
 _atom_site_fract_x
 _atom_site_fract_y
 _atom_site_fract_z
 _atom_site_occupancy
  Sc  Sc0  1  0.10595434  0.08852005  0.34303695  1
  Sc  Sc1  1  0.22455179  0.20056474  0.09730098  1
  Sc  Sc2  1  0.87118365  0.21348730  0.60078394  1
  Sc  Sc3  1  0.22681512  0.20584522  0.60137134  1
  Sc  Sc4  1  0.11409443  0.43367803  0.34963334  1
  Sc  Sc5  1  0.23124215  0.54587551  0.08947834  1
  Sc  Sc6  1  0.55784341  0.52724932  0.09938897  1
  Sc  Sc7  1  0.10948337  0.43104948  0.84957101  1
  Sc  Sc8  1  0.22810736  0.54652279  0.59511582  1
  Sc  Sc9  1  0.77863629  0.42637499  0.34487091  1
  Sc  Sc10  1  0.78208311  0.76541584  0.85016351  1
  Sc  Sc11  1  0.55122791  0.87679906  0.09955634  1
  Sc  Sc12  1  0.21878773  0.86649495  0.59585433  1
  Sc  Sc13  1  0.78035658  0.76582346  0.34509910  1
  Sc  Sc14  1  0.44217212  0.74952581  0.84920805  1
  Sc  Sc15  1  0.55397518  0.86740232  0.59948403  1
  Al  Al16  1  0.77411739  0.09065635  0.82893389  1
  Al  Al17  1  0.44955841  0.09417833  0.37164836  1
  Al  Al18  1  0.56422927  0.19858844  0.12614560  1
  Al  Al19  1  0.10566851  0.09551705  0.82828472  1
  Al  Al20  1  0.78144973  0.09023822  0.32705984  1
  Al  Al21  1  0.89015628  0.19557829  0.07216396  1
  Al  Al22  1  0.45087530  0.09978553  0.86981281  1
  Al  Al23  1  0.56573256  0.19651982  0.60657585  1
  Al  Al24  1  0.77910114  0.42092496  0.87472563  1
  Al  Al25  1  0.88016287  0.54225577  0.62325037  1
  Al  Al26  1  0.44800492  0.42285597  0.33979152  1
  Al  Al27  1  0.89358091  0.53818717  0.11129539  1
  Al  Al28  1  0.46257652  0.41744668  0.81686077  1
  Al  Al29  1  0.55885954  0.53849437  0.56659324  1
  Al  Al30  1  0.11188665  0.76877737  0.32153501  1
  Al  Al31  1  0.20222415  0.88265720  0.06726837  1
  Al  Al32  1  0.88778802  0.87438002  0.57273287  1
  Al  Al33  1  0.42736872  0.76452427  0.31898400  1
  Al  Al34  1  0.10003211  0.77411074  0.82909375  1
  Al  Al35  1  0.89146965  0.88105905  0.07908468  1
  N  N36  1  0.23898499  0.19706471  0.34479347  1
  N  N37  1  0.09696667  0.08867870  0.10555483  1
  N  N38  1  0.88520774  0.20342874  0.85640461  1
  N  N39  1  0.77274717  0.07669420  0.62188542  1
  N  N40  1  0.56433377  0.19404064  0.34529461  1
  N  N41  1  0.45728463  0.10436880  0.07922650  1
  N  N42  1  0.23058185  0.19036545  0.84847263  1
  N  N43  1  0.10453399  0.09839048  0.61244845  1
  N  N44  1  0.87540240  0.19727178  0.36881857  1
  N  N45  1  0.77846535  0.09501264  0.11466136  1
  N  N46  1  0.55558974  0.20546026  0.83211133  1
  N  N47  1  0.45653565  0.09988196  0.57943263  1
  N  N48  1  0.23122519  0.55348978  0.35339624  1
  N  N49  1  0.10323500  0.43761272  0.08842749  1
  N  N50  1  0.87576718  0.53000817  0.83592910  1
  N  N51  1  0.76699811  0.45096294  0.58117983  1
  N  N52  1  0.53819575  0.55075227  0.35062693  1
  N  N53  1  0.45647030  0.40353821  0.12968615  1
  N  N54  1  0.24168341  0.54870607  0.84785480  1
  N  N55  1  0.09405534  0.44214077  0.59880517  1
  N  N56  1  0.89093363  0.54110426  0.31838914  1
  N  N57  1  0.80028308  0.41264399  0.09147276  1
  N  N58  1  0.57092527  0.51045863  0.86900775  1
  N  N59  1  0.47447324  0.41211020  0.59948750  1
  N  N60  1  0.22663232  0.85718766  0.36654328  1
  N  N61  1  0.09862810  0.78246816  0.11572111  1
  N  N62  1  0.89546678  0.88603095  0.87608700  1
  N  N63  1  0.79185181  0.75517675  0.59698710  1
  N  N64  1  0.53549729  0.87615162  0.34420069  1
  N  N65  1  0.41461899  0.77034730  0.10213705  1
  N  N66  1  0.20030453  0.88487844  0.85758367  1
  N  N67  1  0.08549322  0.77191666  0.62672774  1
  N  N68  1  0.90194724  0.88103687  0.36518727  1
  N  N69  1  0.79206275  0.75882322  0.09638038  1
  N  N70  1  0.54671055  0.88662280  0.84834021  1
  N  N71  1  0.44948136  0.73707499  0.62093324  1
