# generated using pymatgen
data_Sc4Al5N9
_symmetry_space_group_name_H-M   'P 1'
_cell_length_a   10.37772409
_cell_length_b   10.33323096
_cell_length_c   9.44397376
_cell_angle_alpha   90.15927476
_cell_angle_beta   89.93704442
_cell_angle_gamma   60.03489344
_symmetry_Int_Tables_number   1
_chemical_formula_structural   Sc4Al5N9
_chemical_formula_sum   'Sc16 Al20 N36'
_cell_volume   877.34981067
_cell_formula_units_Z   4
loop_
 _symmetry_equiv_pos_site_id
 _symmetry_equiv_pos_as_xyz
  1  'x, y, z'
loop_
 _atom_site_type_symbol
 _atom_site_label
 _atom_site_symmetry_multiplicity
 _atom_site_fract_x
 _atom_site_fract_y
 _atom_site_fract_z
 _atom_site_occupancy
  Sc  Sc0  1  0.10383097  0.08886297  0.34290950  1
  Sc  Sc1  1  0.22456580  0.19964325  0.09435076  1
  Sc  Sc2  1  0.86892355  0.21472126  0.60125123  1
  Sc  Sc3  1  0.22660154  0.20601283  0.59650143  1
  Sc  Sc4  1  0.11496205  0.43430648  0.35059279  1
  Sc  Sc5  1  0.23157614  0.54608814  0.08830916  1
  Sc  Sc6  1  0.55866604  0.52737524  0.10082447  1
  Sc  Sc7  1  0.10986509  0.43091691  0.84918481  1
  Sc  Sc8  1  0.23115590  0.54477525  0.59616627  1
  Sc  Sc9  1  0.77836943  0.42673945  0.34608391  1
  Sc  Sc10  1  0.78248728  0.76504924  0.84977739  1
  Sc  Sc11  1  0.55186549  0.87589977  0.09648182  1
  Sc  Sc12  1  0.21866303  0.86643073  0.59555164  1
  Sc  Sc13  1  0.77992004  0.76718336  0.34559557  1
  Sc  Sc14  1  0.44212615  0.74845791  0.84950868  1
  Sc  Sc15  1  0.55308206  0.86785926  0.59636342  1
  Al  Al16  1  0.77487353  0.08998607  0.82830462  1
  Al  Al17  1  0.44935806  0.09556612  0.33904011  1
  Al  Al18  1  0.56443280  0.20122717  0.07331748  1
  Al  Al19  1  0.10526379  0.09565322  0.82565213  1
  Al  Al20  1  0.77595386  0.09421504  0.32016722  1
  Al  Al21  1  0.89105857  0.19499365  0.07145577  1
  Al  Al22  1  0.44943655  0.09774751  0.83730107  1
  Al  Al23  1  0.56769974  0.19706032  0.57342534  1
  Al  Al24  1  0.78042114  0.42111061  0.87882318  1
  Al  Al25  1  0.88011156  0.54257070  0.62365804  1
  Al  Al26  1  0.44912300  0.41893202  0.33113957  1
  Al  Al27  1  0.89475978  0.53857450  0.11476263  1
  Al  Al28  1  0.46647814  0.41489206  0.81791643  1
  Al  Al29  1  0.55830746  0.53741199  0.56594645  1
  Al  Al30  1  0.11129203  0.76915647  0.32264589  1
  Al  Al31  1  0.20137341  0.88273638  0.06724045  1
  Al  Al32  1  0.88619187  0.87663440  0.57277094  1
  Al  Al33  1  0.42630462  0.76456999  0.31856860  1
  Al  Al34  1  0.10052353  0.77350104  0.82760784  1
  Al  Al35  1  0.89182905  0.88056252  0.07852698  1
  N  N36  1  0.23812307  0.19700422  0.35113881  1
  N  N37  1  0.09654444  0.08826059  0.11017160  1
  N  N38  1  0.88573958  0.20329783  0.85824507  1
  N  N39  1  0.76827938  0.07886084  0.62869370  1
  N  N40  1  0.56269419  0.19720016  0.37017133  1
  N  N41  1  0.45698986  0.10317120  0.10953623  1
  N  N42  1  0.22985804  0.18981779  0.85144766  1
  N  N43  1  0.10314227  0.09901118  0.61515299  1
  N  N44  1  0.87263797  0.19726682  0.37194349  1
  N  N45  1  0.77690607  0.09614270  0.11567794  1
  N  N46  1  0.55915165  0.20438860  0.86978546  1
  N  N47  1  0.45682553  0.10267529  0.61364053  1
  N  N48  1  0.23372377  0.55211540  0.35527097  1
  N  N49  1  0.10386937  0.43770446  0.08807042  1
  N  N50  1  0.87613028  0.52938664  0.83326937  1
  N  N51  1  0.76673033  0.45227382  0.57844081  1
  N  N52  1  0.53681949  0.54917412  0.35187428  1
  N  N53  1  0.45877015  0.40022222  0.13053927  1
  N  N54  1  0.24258684  0.54844668  0.84954737  1
  N  N55  1  0.09463527  0.44305569  0.59902207  1
  N  N56  1  0.89157660  0.54154219  0.31865020  1
  N  N57  1  0.80197893  0.41283116  0.09277397  1
  N  N58  1  0.57229800  0.50988815  0.87439487  1
  N  N59  1  0.47872270  0.40897259  0.61227999  1
  N  N60  1  0.22633806  0.85712319  0.36973485  1
  N  N61  1  0.09821948  0.78266862  0.11951580  1
  N  N62  1  0.89673856  0.88528523  0.87814356  1
  N  N63  1  0.79102415  0.75635811  0.59738410  1
  N  N64  1  0.53493424  0.87634391  0.34830360  1
  N  N65  1  0.41359652  0.77043873  0.10476785  1
  N  N66  1  0.19967076  0.88506713  0.85983193  1
  N  N67  1  0.08497183  0.77175964  0.62779785  1
  N  N68  1  0.89983321  0.88413836  0.36758179  1
  N  N69  1  0.79301311  0.75846496  0.09689556  1
  N  N70  1  0.54700214  0.88515756  0.85350633  1
  N  N71  1  0.44953872  0.73593947  0.62416383  1
