# generated using pymatgen
data_Sc4Al5N9
_symmetry_space_group_name_H-M   'P 1'
_cell_length_a   10.31564665
_cell_length_b   10.27572902
_cell_length_c   9.63285422
_cell_angle_alpha   89.90267059
_cell_angle_beta   89.94152986
_cell_angle_gamma   60.23820137
_symmetry_Int_Tables_number   1
_chemical_formula_structural   Sc4Al5N9
_chemical_formula_sum   'Sc16 Al20 N36'
_cell_volume   886.40360652
_cell_formula_units_Z   4
loop_
 _symmetry_equiv_pos_site_id
 _symmetry_equiv_pos_as_xyz
  1  'x, y, z'
loop_
 _atom_site_type_symbol
 _atom_site_label
 _atom_site_symmetry_multiplicity
 _atom_site_fract_x
 _atom_site_fract_y
 _atom_site_fract_z
 _atom_site_occupancy
  Sc  Sc0  1  0.11145124  0.08861042  0.34470942  1
  Sc  Sc1  1  0.22810317  0.20421161  0.10216710  1
  Sc  Sc2  1  0.88066889  0.20738552  0.60953719  1
  Sc  Sc3  1  0.22656448  0.20171465  0.61407470  1
  Sc  Sc4  1  0.11429059  0.43171505  0.36079050  1
  Sc  Sc5  1  0.22824380  0.54595777  0.09768859  1
  Sc  Sc6  1  0.55904327  0.52829343  0.09474290  1
  Sc  Sc7  1  0.10760944  0.43252185  0.85389507  1
  Sc  Sc8  1  0.23319587  0.54305498  0.60416538  1
  Sc  Sc9  1  0.76463820  0.43603427  0.35745584  1
  Sc  Sc10  1  0.78158423  0.76486063  0.84782510  1
  Sc  Sc11  1  0.55317911  0.87777161  0.09913732  1
  Sc  Sc12  1  0.22193404  0.86678597  0.58794602  1
  Sc  Sc13  1  0.78033045  0.76483415  0.34299274  1
  Sc  Sc14  1  0.43617113  0.75902310  0.84979616  1
  Sc  Sc15  1  0.55402815  0.86669536  0.59656421  1
  Al  Al16  1  0.77590861  0.10066600  0.87630456  1
  Al  Al17  1  0.44874363  0.09898382  0.37177041  1
  Al  Al18  1  0.56500619  0.20062362  0.12825607  1
  Al  Al19  1  0.09692788  0.10016243  0.87886666  1
  Al  Al20  1  0.77155729  0.09355370  0.37459800  1
  Al  Al21  1  0.88144217  0.20073859  0.12777112  1
  Al  Al22  1  0.45212190  0.09820115  0.87251032  1
  Al  Al23  1  0.56467936  0.19960506  0.62225059  1
  Al  Al24  1  0.78779851  0.41265414  0.88045807  1
  Al  Al25  1  0.88122386  0.53992783  0.62612078  1
  Al  Al26  1  0.45369736  0.42697411  0.37535001  1
  Al  Al27  1  0.89314953  0.53669495  0.11701725  1
  Al  Al28  1  0.45706307  0.41000152  0.87252902  1
  Al  Al29  1  0.56851038  0.52421573  0.63861216  1
  Al  Al30  1  0.11263652  0.76748603  0.31889982  1
  Al  Al31  1  0.20169802  0.87940460  0.06639310  1
  Al  Al32  1  0.88890921  0.87096429  0.56863626  1
  Al  Al33  1  0.42908713  0.76100241  0.30820714  1
  Al  Al34  1  0.09918332  0.77596061  0.82135384  1
  Al  Al35  1  0.89132807  0.87948541  0.07344084  1
  N  N36  1  0.24241955  0.19873786  0.33003640  1
  N  N37  1  0.09416888  0.09224175  0.09036140  1
  N  N38  1  0.88761927  0.20406368  0.83539020  1
  N  N39  1  0.76818820  0.08312517  0.57601069  1
  N  N40  1  0.55900146  0.20344655  0.32561087  1
  N  N41  1  0.46013463  0.10498335  0.07009590  1
  N  N42  1  0.22862429  0.18853138  0.84804077  1
  N  N43  1  0.10713792  0.09784675  0.56904594  1
  N  N44  1  0.87115074  0.19976302  0.32959731  1
  N  N45  1  0.77316697  0.09956261  0.07888736  1
  N  N46  1  0.56044619  0.20092484  0.82049579  1
  N  N47  1  0.45610010  0.10327597  0.57035276  1
  N  N48  1  0.23596272  0.54848995  0.34850621  1
  N  N49  1  0.10010018  0.43966607  0.08234141  1
  N  N50  1  0.87537638  0.52873366  0.82780832  1
  N  N51  1  0.76828749  0.44667480  0.57893717  1
  N  N52  1  0.53455882  0.54880701  0.31569346  1
  N  N53  1  0.45794688  0.39947994  0.06944293  1
  N  N54  1  0.23752568  0.55146055  0.84556368  1
  N  N55  1  0.09601949  0.43969168  0.59770203  1
  N  N56  1  0.89025459  0.53783217  0.31497735  1
  N  N57  1  0.80015713  0.41348810  0.08311502  1
  N  N58  1  0.57503338  0.50697933  0.84608626  1
  N  N59  1  0.47783921  0.41019972  0.57581971  1
  N  N60  1  0.23065169  0.85356629  0.36208790  1
  N  N61  1  0.09621693  0.78358325  0.11946715  1
  N  N62  1  0.89586385  0.88574402  0.87126252  1
  N  N63  1  0.79178849  0.75339921  0.59422815  1
  N  N64  1  0.53532893  0.87697935  0.33863085  1
  N  N65  1  0.41434882  0.77361360  0.09336921  1
  N  N66  1  0.19584656  0.88829113  0.85989166  1
  N  N67  1  0.08690345  0.77284620  0.62508207  1
  N  N68  1  0.90346370  0.87759020  0.36393865  1
  N  N69  1  0.79332196  0.75689392  0.09310351  1
  N  N70  1  0.54683550  0.88835169  0.84353295  1
  N  N71  1  0.45140555  0.73405844  0.62810476  1
