# generated using pymatgen
data_Li2GeO3
_symmetry_space_group_name_H-M   'P 1'
_cell_length_a   4.93133680
_cell_length_b   5.61054344
_cell_length_c   5.64328561
_cell_angle_alpha   60.35323564
_cell_angle_beta   90.25077840
_cell_angle_gamma   90.00040665
_symmetry_Int_Tables_number   1
_chemical_formula_structural   Li2GeO3
_chemical_formula_sum   'Li4 Ge2 O6'
_cell_volume   135.69430537
_cell_formula_units_Z   2
loop_
 _symmetry_equiv_pos_site_id
 _symmetry_equiv_pos_as_xyz
  1  'x, y, z'
loop_
 _atom_site_type_symbol
 _atom_site_label
 _atom_site_symmetry_multiplicity
 _atom_site_fract_x
 _atom_site_fract_y
 _atom_site_fract_z
 _atom_site_occupancy
  Ge  Ge0  1  0.16903541  0.81217602  0.99779603  1
  Ge  Ge1  1  0.53364885  0.17980794  0.99991808  1
  O  O2  1  0.15191680  0.14243956  0.99945720  1
  O  O3  1  0.55700471  0.85283669  0.99678952  1
  O  O4  1  0.08640304  0.83186369  0.69211072  1
  O  O5  1  0.11847246  0.52129381  0.30888512  1
  O  O6  1  0.63078554  0.46114189  0.69716892  1
  O  O7  1  0.63177129  0.15955480  0.30307778  1
  Li  Li8  1  0.03173242  0.50483404  0.65480147  1
  Li  Li9  1  0.03172193  0.16605842  0.34139804  1
  Li  Li10  1  0.61790672  0.82824798  0.65310652  1
  Li  Li11  1  0.56385188  0.47312491  0.35547400  1
