# generated using pymatgen
data_Li2GeO3
_symmetry_space_group_name_H-M   'P 1'
_cell_length_a   5.62450735
_cell_length_b   5.57530495
_cell_length_c   4.93131899
_cell_angle_alpha   89.99997508
_cell_angle_beta   89.97855258
_cell_angle_gamma   119.72040618
_symmetry_Int_Tables_number   1
_chemical_formula_structural   Li2GeO3
_chemical_formula_sum   'Li4 Ge2 O6'
_cell_volume   134.29612808
_cell_formula_units_Z   2
loop_
 _symmetry_equiv_pos_site_id
 _symmetry_equiv_pos_as_xyz
  1  'x, y, z'
loop_
 _atom_site_type_symbol
 _atom_site_label
 _atom_site_symmetry_multiplicity
 _atom_site_fract_x
 _atom_site_fract_y
 _atom_site_fract_z
 _atom_site_occupancy
  Ge  Ge0  1  -0.99996835  0.81637589  0.05710375  1
  Ge  Ge1  1  -0.00001242  0.17113444  0.54430442  1
  O  O2  1  -0.99993473  0.13207525  0.16806453  1
  O  O3  1  -0.00003163  0.85694337  0.65983002  1
  O  O4  1  -0.69250220  0.83088959  0.13184324  1
  O  O5  1  -0.30752919  0.52339657  0.13196369  1
  O  O6  1  -0.69656762  0.46341167  0.63432452  1
  O  O7  1  -0.30349309  0.15992475  0.63438115  1
  Li  Li8  1  -0.65361905  0.50899508  0.03227259  1
  Li  Li9  1  -0.34626169  0.16269112  0.03240358  1
  Li  Li10  1  -0.65078934  0.82842013  0.54883557  1
  Li  Li11  1  -0.34927405  0.47912187  0.54892397  1
