# generated using pymatgen
data_Li2GeO3
_symmetry_space_group_name_H-M   'P 1'
_cell_length_a   4.93130173
_cell_length_b   5.54091509
_cell_length_c   5.59549050
_cell_angle_alpha   60.32164424
_cell_angle_beta   90.00011510
_cell_angle_gamma   90.00003960
_symmetry_Int_Tables_number   1
_chemical_formula_structural   Li2GeO3
_chemical_formula_sum   'Li4 Ge2 O6'
_cell_volume   132.83433717
_cell_formula_units_Z   2
loop_
 _symmetry_equiv_pos_site_id
 _symmetry_equiv_pos_as_xyz
  1  'x, y, z'
loop_
 _atom_site_type_symbol
 _atom_site_label
 _atom_site_symmetry_multiplicity
 _atom_site_fract_x
 _atom_site_fract_y
 _atom_site_fract_z
 _atom_site_occupancy
  Ge  Ge0  1  0.16041581  0.81558040  0.99999502  1
  Ge  Ge1  1  0.66040468  0.17333843  0.99998527  1
  O  O2  1  0.03143628  0.12894459  0.99998954  1
  O  O3  1  0.53143701  0.85997095  0.99999602  1
  O  O4  1  0.06867269  0.82946050  0.69449539  1
  O  O5  1  0.06867122  0.52396587  0.30549055  1
  O  O6  1  0.56867348  0.46494627  0.69448988  1
  O  O7  1  0.56867435  0.15944722  0.30549836  1
  Li  Li8  1  0.17004637  0.51056763  0.65076071  1
  Li  Li9  1  0.17005029  0.16133973  0.34922970  1
  Li  Li10  1  0.67009062  0.82755986  0.65073679  1
  Li  Li11  1  0.67008811  0.47831201  0.34924442  1
