# generated using pymatgen
data_Li2GeO3
_symmetry_space_group_name_H-M   'P 1'
_cell_length_a   5.62415390
_cell_length_b   5.57513900
_cell_length_c   4.93136258
_cell_angle_alpha   90.00001344
_cell_angle_beta   89.97871500
_cell_angle_gamma   119.71755908
_symmetry_Int_Tables_number   1
_chemical_formula_structural   Li2GeO3
_chemical_formula_sum   'Li4 Ge2 O6'
_cell_volume   134.28868776
_cell_formula_units_Z   2
loop_
 _symmetry_equiv_pos_site_id
 _symmetry_equiv_pos_as_xyz
  1  'x, y, z'
loop_
 _atom_site_type_symbol
 _atom_site_label
 _atom_site_symmetry_multiplicity
 _atom_site_fract_x
 _atom_site_fract_y
 _atom_site_fract_z
 _atom_site_occupancy
  Ge  Ge0  1  0.00000314  0.81775294  0.14307200  1
  Ge  Ge1  1  -0.00002656  0.17251321  0.63055441  1
  O  O2  1  -0.99996900  0.13192159  0.02724130  1
  O  O3  1  -0.00005763  0.85686935  0.51922405  1
  O  O4  1  -0.69649064  0.82900162  0.05296361  1
  O  O5  1  -0.30344600  0.52549270  0.05302278  1
  O  O6  1  -0.69249447  0.46546885  0.55533893  1
  O  O7  1  -0.30744390  0.15800721  0.55544183  1
  Li  Li8  1  -0.65072980  0.50980012  0.13861778  1
  Li  Li9  1  -0.34921619  0.16051388  0.13874401  1
  Li  Li10  1  -0.65368956  0.82621846  0.65494610  1
  Li  Li11  1  -0.34642278  0.47981980  0.65508421  1
