# generated using pymatgen
data_Li2GeO3
_symmetry_space_group_name_H-M   'P 1'
_cell_length_a   4.93130387
_cell_length_b   5.54040370
_cell_length_c   5.59551624
_cell_angle_alpha   60.32507188
_cell_angle_beta   90.00005157
_cell_angle_gamma   90.00004243
_symmetry_Int_Tables_number   1
_chemical_formula_structural   Li2GeO3
_chemical_formula_sum   'Li4 Ge2 O6'
_cell_volume   132.82727422
_cell_formula_units_Z   2
loop_
 _symmetry_equiv_pos_site_id
 _symmetry_equiv_pos_as_xyz
  1  'x, y, z'
loop_
 _atom_site_type_symbol
 _atom_site_label
 _atom_site_symmetry_multiplicity
 _atom_site_fract_x
 _atom_site_fract_y
 _atom_site_fract_z
 _atom_site_occupancy
  Ge  Ge0  1  0.18077652  0.81562913  0.99999746  1
  Ge  Ge1  1  0.68077534  0.17327737  0.99999699  1
  O  O2  1  0.05183965  0.12903476  0.99999504  1
  O  O3  1  0.55184034  0.85987311  0.99999909  1
  O  O4  1  0.08895809  0.82953585  0.69449787  1
  O  O5  1  0.08895749  0.52403818  0.30549690  1
  O  O6  1  0.58895749  0.46486892  0.69449823  1
  O  O7  1  0.58895776  0.15937159  0.30549533  1
  Li  Li8  1  0.19019104  0.51061280  0.65077454  1
  Li  Li9  1  0.19019196  0.16139291  0.34922285  1
  Li  Li10  1  0.69019223  0.82751773  0.65075152  1
  Li  Li11  1  0.69019111  0.47827382  0.34924096  1
