# generated using pymatgen
data_Li2GeO3
_symmetry_space_group_name_H-M   'P 1'
_cell_length_a   4.93126764
_cell_length_b   5.54090500
_cell_length_c   5.59547612
_cell_angle_alpha   60.32182400
_cell_angle_beta   89.99989318
_cell_angle_gamma   90.00000889
_symmetry_Int_Tables_number   1
_chemical_formula_structural   Li2GeO3
_chemical_formula_sum   'Li4 Ge2 O6'
_cell_volume   132.83307348
_cell_formula_units_Z   2
loop_
 _symmetry_equiv_pos_site_id
 _symmetry_equiv_pos_as_xyz
  1  'x, y, z'
loop_
 _atom_site_type_symbol
 _atom_site_label
 _atom_site_symmetry_multiplicity
 _atom_site_fract_x
 _atom_site_fract_y
 _atom_site_fract_z
 _atom_site_occupancy
  Ge  Ge0  1  0.02699044  0.81556578  0.00000240  1
  Ge  Ge1  1  0.52698564  0.17332065  0.00001414  1
  O  O2  1  0.15596301  0.12892967  0.00000088  1
  O  O3  1  0.65596387  0.85996397  0.00000768  1
  O  O4  1  0.11872738  0.82945269  0.69450408  1
  O  O5  1  0.11873025  0.52395189  0.30550964  1
  O  O6  1  0.61873170  0.46494128  0.69450118  1
  O  O7  1  0.61872702  0.15944266  0.30549628  1
  Li  Li8  1  0.01732233  0.51056042  0.65077511  1
  Li  Li9  1  0.01731894  0.16133484  0.34923936  1
  Li  Li10  1  0.51733515  0.82755731  0.65074379  1
  Li  Li11  1  0.51733807  0.47830507  0.34926025  1
