# generated using pymatgen
data_Li2GeO3
_symmetry_space_group_name_H-M   'P 1'
_cell_length_a   5.64272048
_cell_length_b   5.60962988
_cell_length_c   4.93144491
_cell_angle_alpha   90.00047745
_cell_angle_beta   89.76889394
_cell_angle_gamma   119.70151401
_symmetry_Int_Tables_number   1
_chemical_formula_structural   Li2GeO3
_chemical_formula_sum   'Li4 Ge2 O6'
_cell_volume   135.58801218
_cell_formula_units_Z   2
loop_
 _symmetry_equiv_pos_site_id
 _symmetry_equiv_pos_as_xyz
  1  'x, y, z'
loop_
 _atom_site_type_symbol
 _atom_site_label
 _atom_site_symmetry_multiplicity
 _atom_site_fract_x
 _atom_site_fract_y
 _atom_site_fract_z
 _atom_site_occupancy
  Ge  Ge0  1  -0.99867566  0.81128173  0.16350990  1
  Ge  Ge1  1  -0.99991712  0.17879456  0.52910513  1
  O  O2  1  -0.99935406  0.14315393  0.14862259  1
  O  O3  1  -0.99761441  0.84902894  0.54691588  1
  O  O4  1  -0.69480125  0.83322697  0.06691472  1
  O  O5  1  -0.30581194  0.52601248  0.08535726  1
  O  O6  1  -0.69755572  0.45978393  0.62763391  1
  O  O7  1  -0.30350936  0.15649805  0.62828646  1
  Li  Li8  1  -0.65771419  0.50309111  0.03415620  1
  Li  Li9  1  -0.33936872  0.16518230  0.03406602  1
  Li  Li10  1  -0.65889752  0.82687653  0.64694693  1
  Li  Li11  1  -0.34676343  0.48044920  0.61273603  1
