# generated using pymatgen
data_Li2GeO3
_symmetry_space_group_name_H-M   'P 1'
_cell_length_a   4.93136024
_cell_length_b   5.59219739
_cell_length_c   5.63798782
_cell_angle_alpha   60.25904143
_cell_angle_beta   90.05686904
_cell_angle_gamma   90.00000267
_symmetry_Int_Tables_number   1
_chemical_formula_structural   Li2GeO3
_chemical_formula_sum   'Li4 Ge2 O6'
_cell_volume   134.99927080
_cell_formula_units_Z   2
loop_
 _symmetry_equiv_pos_site_id
 _symmetry_equiv_pos_as_xyz
  1  'x, y, z'
loop_
 _atom_site_type_symbol
 _atom_site_label
 _atom_site_symmetry_multiplicity
 _atom_site_fract_x
 _atom_site_fract_y
 _atom_site_fract_z
 _atom_site_occupancy
  Ge  Ge0  1  0.14178276  0.81707711  1.00000304  1
  Ge  Ge1  1  0.57933833  0.17394673  0.00003668  1
  O  O2  1  0.07192484  0.13429880  0.99993326  1
  O  O3  1  0.52678346  0.85152598  0.00009089  1
  O  O4  1  0.05392390  0.82802191  0.69664863  1
  O  O5  1  0.05402241  0.52472479  0.30322322  1
  O  O6  1  0.55993581  0.46881948  0.68895781  1
  O  O7  1  0.56008947  0.15784143  0.31100672  1
  Li  Li8  1  0.13080098  0.51042435  0.64926628  1
  Li  Li9  1  0.13095400  0.15966624  0.35064341  1
  Li  Li10  1  0.65725248  0.82604668  0.65503785  1
  Li  Li11  1  0.65744259  0.48098625  0.34513559  1
