# generated using pymatgen
data_Li2GeO3
_symmetry_space_group_name_H-M   'P 1'
_cell_length_a   5.63807957
_cell_length_b   5.59237034
_cell_length_c   4.93132765
_cell_angle_alpha   89.99998160
_cell_angle_beta   89.94247299
_cell_angle_gamma   119.74010524
_symmetry_Int_Tables_number   1
_chemical_formula_structural   Li2GeO3
_chemical_formula_sum   'Li4 Ge2 O6'
_cell_volume   135.00589716
_cell_formula_units_Z   2
loop_
 _symmetry_equiv_pos_site_id
 _symmetry_equiv_pos_as_xyz
  1  'x, y, z'
loop_
 _atom_site_type_symbol
 _atom_site_label
 _atom_site_symmetry_multiplicity
 _atom_site_fract_x
 _atom_site_fract_y
 _atom_site_fract_z
 _atom_site_occupancy
  Ge  Ge0  1  -0.99994357  0.81492840  0.10844662  1
  Ge  Ge1  1  -1.00000697  0.17183424  0.54556303  1
  O  O2  1  -0.99990408  0.13738822  0.16051524  1
  O  O3  1  -0.00006757  0.85459651  0.61508680  1
  O  O4  1  -0.68897125  0.83104609  0.12718202  1
  O  O5  1  -0.31104855  0.52005815  0.12735917  1
  O  O6  1  -0.69678790  0.46417103  0.63333152  1
  O  O7  1  -0.30334191  0.16089387  0.63342711  1
  Li  Li8  1  -0.65489223  0.50784545  0.02993412  1
  Li  Li9  1  -0.34492760  0.16285813  0.03011865  1
  Li  Li10  1  -0.64937329  0.82924942  0.55659219  1
  Li  Li11  1  -0.35071846  0.47851024  0.55669455  1
