# generated using pymatgen
data_Li2GeO3
_symmetry_space_group_name_H-M   'P 1'
_cell_length_a   5.59551624
_cell_length_b   5.54040370
_cell_length_c   4.93130387
_cell_angle_alpha   90.00004243
_cell_angle_beta   89.99994843
_cell_angle_gamma   119.67492812
_symmetry_Int_Tables_number   1
_chemical_formula_structural   Li2GeO3
_chemical_formula_sum   'Li4 Ge2 O6'
_cell_volume   132.82727422
_cell_formula_units_Z   2
loop_
 _symmetry_equiv_pos_site_id
 _symmetry_equiv_pos_as_xyz
  1  'x, y, z'
loop_
 _atom_site_type_symbol
 _atom_site_label
 _atom_site_symmetry_multiplicity
 _atom_site_fract_x
 _atom_site_fract_y
 _atom_site_fract_z
 _atom_site_occupancy
  Ge  Ge0  1  -0.99999746  0.81562913  0.18077652  1
  Ge  Ge1  1  -0.99999699  0.17327737  0.68077534  1
  O  O2  1  -0.99999504  0.12903476  0.05183965  1
  O  O3  1  -0.99999909  0.85987311  0.55184034  1
  O  O4  1  -0.69449787  0.82953585  0.08895809  1
  O  O5  1  -0.30549690  0.52403818  0.08895749  1
  O  O6  1  -0.69449823  0.46486892  0.58895749  1
  O  O7  1  -0.30549533  0.15937159  0.58895776  1
  Li  Li8  1  -0.65077454  0.51061280  0.19019104  1
  Li  Li9  1  -0.34922285  0.16139291  0.19019196  1
  Li  Li10  1  -0.65075152  0.82751773  0.69019223  1
  Li  Li11  1  -0.34924096  0.47827382  0.69019111  1
