# generated using pymatgen
data_Li2GeO3
_symmetry_space_group_name_H-M   'P 1'
_cell_length_a   5.64502785
_cell_length_b   5.60154915
_cell_length_c   4.93133366
_cell_angle_alpha   89.99998157
_cell_angle_beta   89.91601557
_cell_angle_gamma   119.75494143
_symmetry_Int_Tables_number   1
_chemical_formula_structural   Li2GeO3
_chemical_formula_sum   'Li4 Ge2 O6'
_cell_volume   135.37416422
_cell_formula_units_Z   2
loop_
 _symmetry_equiv_pos_site_id
 _symmetry_equiv_pos_as_xyz
  1  'x, y, z'
loop_
 _atom_site_type_symbol
 _atom_site_label
 _atom_site_symmetry_multiplicity
 _atom_site_fract_x
 _atom_site_fract_y
 _atom_site_fract_z
 _atom_site_occupancy
  Ge  Ge0  1  -0.99996115  0.81279167  0.16273863  1
  Ge  Ge1  1  -0.99999198  0.17745409  0.54078788  1
  O  O2  1  -0.99987682  0.14126826  0.15566691  1
  O  O3  1  -0.00011394  0.85239680  0.57199388  1
  O  O4  1  -0.68890583  0.83076471  0.12221885  1
  O  O5  1  -0.31102124  0.51980821  0.12241604  1
  O  O6  1  -0.69665393  0.46347594  0.63341550  1
  O  O7  1  -0.30353117  0.16007103  0.63353946  1
  Li  Li8  1  -0.65492172  0.50796152  0.02990916  1
  Li  Li9  1  -0.34485631  0.16303347  0.03012155  1
  Li  Li10  1  -0.64609047  0.82921291  0.56066348  1
  Li  Li11  1  -0.35405883  0.47514115  0.56077969  1
