# generated using pymatgen
data_Li2GeO3
_symmetry_space_group_name_H-M   'P 1'
_cell_length_a   5.64274639
_cell_length_b   5.60964638
_cell_length_c   4.93146884
_cell_angle_alpha   90.00052518
_cell_angle_beta   89.76920981
_cell_angle_gamma   119.70114882
_symmetry_Int_Tables_number   1
_chemical_formula_structural   Li2GeO3
_chemical_formula_sum   'Li4 Ge2 O6'
_cell_volume   135.59018895
_cell_formula_units_Z   2
loop_
 _symmetry_equiv_pos_site_id
 _symmetry_equiv_pos_as_xyz
  1  'x, y, z'
loop_
 _atom_site_type_symbol
 _atom_site_label
 _atom_site_symmetry_multiplicity
 _atom_site_fract_x
 _atom_site_fract_y
 _atom_site_fract_z
 _atom_site_occupancy
  Ge  Ge0  1  -0.00007955  0.81009304  0.15825940  1
  Ge  Ge1  1  -0.00133973  0.17760802  0.52383606  1
  O  O2  1  -0.00241280  0.13983122  0.14041443  1
  O  O3  1  -0.00064149  0.84575239  0.53874619  1
  O  O4  1  -0.69648660  0.83238780  0.05908023  1
  O  O5  1  -0.30243926  0.52909461  0.05974822  1
  O  O6  1  -0.69416779  0.46292965  0.60177512  1
  O  O7  1  -0.30520280  0.15567201  0.62044032  1
  Li  Li8  1  -0.65317034  0.50849191  0.07500897  1
  Li  Li9  1  -0.34110745  0.16201047  0.04041589  1
  Li  Li10  1  -0.66062547  0.82371005  0.65333126  1
  Li  Li11  1  -0.34231011  0.48579857  0.65319492  1
