# generated using pymatgen
data_Li2GeO3
_symmetry_space_group_name_H-M   'P 1'
_cell_length_a   4.93144491
_cell_length_b   5.60962988
_cell_length_c   5.64272048
_cell_angle_alpha   60.29848599
_cell_angle_beta   90.23110606
_cell_angle_gamma   90.00047745
_symmetry_Int_Tables_number   1
_chemical_formula_structural   Li2GeO3
_chemical_formula_sum   'Li4 Ge2 O6'
_cell_volume   135.58801218
_cell_formula_units_Z   2
loop_
 _symmetry_equiv_pos_site_id
 _symmetry_equiv_pos_as_xyz
  1  'x, y, z'
loop_
 _atom_site_type_symbol
 _atom_site_label
 _atom_site_symmetry_multiplicity
 _atom_site_fract_x
 _atom_site_fract_y
 _atom_site_fract_z
 _atom_site_occupancy
  Ge  Ge0  1  0.16350990  0.81128173  0.99867566  1
  Ge  Ge1  1  0.52910513  0.17879456  0.99991712  1
  O  O2  1  0.14862259  0.14315393  0.99935406  1
  O  O3  1  0.54691588  0.84902894  0.99761441  1
  O  O4  1  0.06691472  0.83322697  0.69480125  1
  O  O5  1  0.08535726  0.52601248  0.30581194  1
  O  O6  1  0.62763391  0.45978393  0.69755572  1
  O  O7  1  0.62828646  0.15649805  0.30350936  1
  Li  Li8  1  0.03415620  0.50309111  0.65771419  1
  Li  Li9  1  0.03406602  0.16518230  0.33936872  1
  Li  Li10  1  0.64694693  0.82687653  0.65889752  1
  Li  Li11  1  0.61273603  0.48044920  0.34676343  1
