# generated using pymatgen
data_Sc5Al13N18
_symmetry_space_group_name_H-M   'P 1'
_cell_length_a   10.32465687
_cell_length_b   10.27730906
_cell_length_c   8.84677723
_cell_angle_alpha   90.01157098
_cell_angle_beta   90.03199185
_cell_angle_gamma   59.73761640
_symmetry_Int_Tables_number   1
_chemical_formula_structural   Sc5Al13N18
_chemical_formula_sum   'Sc10 Al26 N36'
_cell_volume   810.80489541
_cell_formula_units_Z   2
loop_
 _symmetry_equiv_pos_site_id
 _symmetry_equiv_pos_as_xyz
  1  'x, y, z'
loop_
 _atom_site_type_symbol
 _atom_site_label
 _atom_site_symmetry_multiplicity
 _atom_site_fract_x
 _atom_site_fract_y
 _atom_site_fract_z
 _atom_site_occupancy
  Al  Al0  1  0.11655932  0.09248109  0.36848711  1
  Al  Al1  1  0.22113043  0.20131273  0.11895181  1
  Al  Al2  1  0.78148658  0.10022857  0.85052583  1
  Al  Al3  1  0.90068286  0.20241439  0.61351192  1
  Al  Al4  1  0.43333163  0.09803334  0.35467208  1
  Al  Al5  1  0.55324241  0.20785078  0.10851358  1
  Al  Al6  1  0.11686048  0.08961967  0.86233712  1
  Al  Al7  1  0.21416316  0.20334664  0.61258061  1
  Al  Al8  1  0.10859989  0.41947941  0.36140213  1
  Al  Al9  1  0.77760383  0.42803391  0.85993380  1
  Al  Al10  1  0.89485950  0.52625714  0.61187699  1
  Al  Al11  1  0.44212982  0.43079866  0.35466368  1
  Al  Al12  1  0.55857026  0.54140528  0.11297544  1
  Al  Al13  1  0.10492936  0.42049095  0.86864343  1
  Al  Al14  1  0.78385640  0.42391308  0.36668082  1
  Al  Al15  1  0.88390877  0.53474917  0.11715368  1
  Al  Al16  1  0.44990232  0.42916879  0.86898355  1
  Al  Al17  1  0.11818163  0.76371725  0.36924132  1
  Al  Al18  1  0.22899602  0.87316400  0.11864129  1
  Al  Al19  1  0.89663522  0.87564823  0.61026921  1
  Al  Al20  1  0.43712987  0.76765021  0.35842066  1
  Al  Al21  1  0.54853671  0.87201118  0.11566117  1
  Al  Al22  1  0.11840934  0.76727625  0.85691542  1
  Al  Al23  1  0.22282470  0.87874573  0.61534246  1
  Al  Al24  1  0.43857017  0.75967845  0.87376408  1
  Al  Al25  1  0.54173332  0.87589461  0.60919355  1
  Sc  Sc26  1  0.78060195  0.09905316  0.35421919  1
  Sc  Sc27  1  0.89681486  0.20947840  0.10024725  1
  Sc  Sc28  1  0.43684601  0.09743625  0.85792570  1
  Sc  Sc29  1  0.55464977  0.20356822  0.60245135  1
  Sc  Sc30  1  0.22149183  0.53710044  0.10454151  1
  Sc  Sc31  1  0.21443670  0.53890863  0.60603718  1
  Sc  Sc32  1  0.55654251  0.54531234  0.60320559  1
  Sc  Sc33  1  0.77554228  0.75647791  0.84957196  1
  Sc  Sc34  1  0.77483678  0.75912864  0.35786978  1
  Sc  Sc35  1  0.89471185  0.87026834  0.09901785  1
  N  N36  1  0.21960802  0.20340852  0.34105234  1
  N  N37  1  0.13445038  0.08152557  0.08599690  1
  N  N38  1  0.89462182  0.20497252  0.84359063  1
  N  N39  1  0.79447826  0.09178403  0.60575283  1
  N  N40  1  0.53768803  0.21214149  0.34340314  1
  N  N41  1  0.44091687  0.09764387  0.10437149  1
  N  N42  1  0.20406733  0.21203254  0.83718638  1
  N  N43  1  0.11332860  0.09197789  0.59189672  1
  N  N44  1  0.90346464  0.21137796  0.34844350  1
  N  N45  1  0.76514681  0.10455357  0.09696564  1
  N  N46  1  0.56325187  0.21373598  0.85394390  1
  N  N47  1  0.42998823  0.09025565  0.59302943  1
  N  N48  1  0.21794951  0.54122522  0.34967837  1
  N  N49  1  0.09861587  0.41680276  0.09390335  1
  N  N50  1  0.89627205  0.52104652  0.83606353  1
  N  N51  1  0.79338857  0.41667895  0.59439586  1
  N  N52  1  0.55985065  0.53913733  0.34127837  1
  N  N53  1  0.45940572  0.42408105  0.10013791  1
  N  N54  1  0.22228996  0.53309719  0.85244024  1
  N  N55  1  0.10370710  0.41483408  0.58438244  1
  N  N56  1  0.89529376  0.52219024  0.34270053  1
  N  N57  1  0.76794194  0.44470821  0.08644131  1
  N  N58  1  0.55308001  0.54168795  0.85287382  1
  N  N59  1  0.44270093  0.43170808  0.58581897  1
  N  N60  1  0.22071168  0.87433228  0.34045735  1
  N  N61  1  0.12690214  0.76978799  0.08293064  1
  N  N62  1  0.89866292  0.87922985  0.84222184  1
  N  N63  1  0.77510452  0.76205348  0.60124339  1
  N  N64  1  0.53550721  0.88291406  0.34058559  1
  N  N65  1  0.44332316  0.76080895  0.09808712  1
  N  N66  1  0.22721288  0.87237235  0.83655553  1
  N  N67  1  0.10979560  0.77769328  0.59777426  1
  N  N68  1  0.90810556  0.86262623  0.35270496  1
  N  N69  1  0.76854157  0.75342606  0.10033448  1
  N  N70  1  0.54127720  0.86323446  0.84122003  1
  N  N71  1  0.43138522  0.77909808  0.58057320  1
