# generated using pymatgen
data_Sc5Al13N18
_symmetry_space_group_name_H-M   'P 1'
_cell_length_a   9.86425232
_cell_length_b   9.81494401
_cell_length_c   10.14221891
_cell_angle_alpha   89.92383928
_cell_angle_beta   89.90340212
_cell_angle_gamma   59.83239680
_symmetry_Int_Tables_number   1
_chemical_formula_structural   Sc5Al13N18
_chemical_formula_sum   'Sc10 Al26 N36'
_cell_volume   848.94386529
_cell_formula_units_Z   2
loop_
 _symmetry_equiv_pos_site_id
 _symmetry_equiv_pos_as_xyz
  1  'x, y, z'
loop_
 _atom_site_type_symbol
 _atom_site_label
 _atom_site_symmetry_multiplicity
 _atom_site_fract_x
 _atom_site_fract_y
 _atom_site_fract_z
 _atom_site_occupancy
  Al  Al0  1  0.11488876  0.09417767  0.41039133  1
  Al  Al1  1  0.22386157  0.20022213  0.16227537  1
  Al  Al2  1  0.77721039  0.10254765  0.90878672  1
  Al  Al3  1  0.89943035  0.20240582  0.66383600  1
  Al  Al4  1  0.43262840  0.09688350  0.40562466  1
  Al  Al5  1  0.55084694  0.20775480  0.16320103  1
  Al  Al6  1  0.11750270  0.08931490  0.90455845  1
  Al  Al7  1  0.21343215  0.20361570  0.65353780  1
  Al  Al8  1  0.11036080  0.42198954  0.40616659  1
  Al  Al9  1  0.77424759  0.42955656  0.90953606  1
  Al  Al10  1  0.89507681  0.52593107  0.65880439  1
  Al  Al11  1  0.43935713  0.43243676  0.40222953  1
  Al  Al12  1  0.55768236  0.54280589  0.16011453  1
  Al  Al13  1  0.10434402  0.41943395  0.91056444  1
  Al  Al14  1  0.78704860  0.42276866  0.40755117  1
  Al  Al15  1  0.88248130  0.53613637  0.15821293  1
  Al  Al16  1  0.45180373  0.42776694  0.91758884  1
  Al  Al17  1  0.11641682  0.76246852  0.41018649  1
  Al  Al18  1  0.23166062  0.87243375  0.15886155  1
  Al  Al19  1  0.89684315  0.87717360  0.66619066  1
  Al  Al20  1  0.43697389  0.76746815  0.40442149  1
  Al  Al21  1  0.54884691  0.87274871  0.16100139  1
  Al  Al22  1  0.11930592  0.76570262  0.90795344  1
  Al  Al23  1  0.22035535  0.87902439  0.65592776  1
  Al  Al24  1  0.43873319  0.75918092  0.91301703  1
  Al  Al25  1  0.54182752  0.87594699  0.65680464  1
  Sc  Sc26  1  0.78397990  0.09718996  0.40238137  1
  Sc  Sc27  1  0.89832130  0.20856463  0.14224735  1
  Sc  Sc28  1  0.43674528  0.09956856  0.90639829  1
  Sc  Sc29  1  0.55802425  0.20186819  0.64889585  1
  Sc  Sc30  1  0.22175555  0.53579355  0.14655011  1
  Sc  Sc31  1  0.21552792  0.54003336  0.65604383  1
  Sc  Sc32  1  0.55826981  0.54385659  0.65063889  1
  Sc  Sc33  1  0.77502273  0.75639345  0.89044787  1
  Sc  Sc34  1  0.77666540  0.75842023  0.40912262  1
  Sc  Sc35  1  0.89078038  0.86943987  0.14373699  1
  N  N36  1  0.21943374  0.20498738  0.35127418  1
  N  N37  1  0.14085792  0.07958567  0.09160975  1
  N  N38  1  0.89239579  0.20595471  0.86134527  1
  N  N39  1  0.79910471  0.08872001  0.61130618  1
  N  N40  1  0.53746693  0.21242742  0.35526244  1
  N  N41  1  0.44279739  0.09752920  0.11520596  1
  N  N42  1  0.20381847  0.21260263  0.84106613  1
  N  N43  1  0.11053088  0.09339113  0.60093439  1
  N  N44  1  0.90450680  0.21187150  0.35010099  1
  N  N45  1  0.75899131  0.10724961  0.10009908  1
  N  N46  1  0.56304948  0.21573843  0.85654306  1
  N  N47  1  0.42987678  0.08892813  0.59835409  1
  N  N48  1  0.21814027  0.54061405  0.36259473  1
  N  N49  1  0.09701222  0.41377200  0.09862515  1
  N  N50  1  0.89665752  0.51624919  0.84510918  1
  N  N51  1  0.79716543  0.41478985  0.59691020  1
  N  N52  1  0.55890793  0.53968539  0.35472481  1
  N  N53  1  0.46271926  0.42159594  0.10681543  1
  N  N54  1  0.22218527  0.53435531  0.87450691  1
  N  N55  1  0.10260055  0.41715832  0.59383811  1
  N  N56  1  0.89737668  0.52270434  0.34660479  1
  N  N57  1  0.76493786  0.44773742  0.09592282  1
  N  N58  1  0.55320918  0.54035412  0.86145018  1
  N  N59  1  0.44210449  0.43195997  0.58756802  1
  N  N60  1  0.22122987  0.87394227  0.34937932  1
  N  N61  1  0.12716163  0.77193279  0.09260072  1
  N  N62  1  0.90056033  0.88188011  0.85884966  1
  N  N63  1  0.77834189  0.76214778  0.62729100  1
  N  N64  1  0.53658921  0.88151134  0.34899544  1
  N  N65  1  0.44514252  0.76075072  0.10367044  1
  N  N66  1  0.22567406  0.87059205  0.84555750  1
  N  N67  1  0.10573708  0.77905081  0.60029868  1
  N  N68  1  0.90783807  0.86061871  0.35117732  1
  N  N69  1  0.76469145  0.75287995  0.10702058  1
  N  N70  1  0.53675425  0.86593612  0.84304927  1
  N  N71  1  0.43085909  0.78034374  0.59098097  1
