# generated using pymatgen
data_Sc5Al13N18
_symmetry_space_group_name_H-M   'P 1'
_cell_length_a   9.89756464
_cell_length_b   9.84173368
_cell_length_c   10.06344618
_cell_angle_alpha   89.93300604
_cell_angle_beta   89.93252677
_cell_angle_gamma   59.83072965
_symmetry_Int_Tables_number   1
_chemical_formula_structural   Sc5Al13N18
_chemical_formula_sum   'Sc10 Al26 N36'
_cell_volume   847.48812149
_cell_formula_units_Z   2
loop_
 _symmetry_equiv_pos_site_id
 _symmetry_equiv_pos_as_xyz
  1  'x, y, z'
loop_
 _atom_site_type_symbol
 _atom_site_label
 _atom_site_symmetry_multiplicity
 _atom_site_fract_x
 _atom_site_fract_y
 _atom_site_fract_z
 _atom_site_occupancy
  Al  Al0  1  0.11480850  0.09421787  0.38342424  1
  Al  Al1  1  0.22414316  0.19999844  0.13531287  1
  Al  Al2  1  0.77676346  0.10303703  0.88267455  1
  Al  Al3  1  0.89969595  0.20184137  0.63732939  1
  Al  Al4  1  0.43205760  0.09697588  0.37992408  1
  Al  Al5  1  0.55030172  0.20776042  0.13683347  1
  Al  Al6  1  0.11823738  0.08869015  0.87821828  1
  Al  Al7  1  0.21272337  0.20382442  0.62711675  1
  Al  Al8  1  0.11017890  0.42188393  0.37912901  1
  Al  Al9  1  0.77360778  0.43027151  0.88228107  1
  Al  Al10  1  0.89508577  0.52574022  0.63159708  1
  Al  Al11  1  0.43888505  0.43258892  0.37529419  1
  Al  Al12  1  0.55773234  0.54283310  0.13404665  1
  Al  Al13  1  0.10382486  0.41926614  0.88403108  1
  Al  Al14  1  0.78774941  0.42215110  0.38096000  1
  Al  Al15  1  0.88211937  0.53629772  0.13171525  1
  Al  Al16  1  0.45254635  0.42749575  0.89015772  1
  Al  Al17  1  0.11642124  0.76235080  0.38317374  1
  Al  Al18  1  0.23194617  0.87215075  0.13246424  1
  Al  Al19  1  0.89693423  0.87749669  0.63924547  1
  Al  Al20  1  0.43664627  0.76811623  0.37761916  1
  Al  Al21  1  0.54825386  0.87343486  0.13366454  1
  Al  Al22  1  0.11994300  0.76554517  0.88080363  1
  Al  Al23  1  0.22036737  0.87903132  0.62907898  1
  Al  Al24  1  0.43890435  0.75884189  0.88627375  1
  Al  Al25  1  0.54173438  0.87580098  0.63014211  1
  Sc  Sc26  1  0.78496089  0.09676243  0.37252748  1
  Sc  Sc27  1  0.89871690  0.20916333  0.11361318  1
  Sc  Sc28  1  0.43697793  0.10016290  0.87708552  1
  Sc  Sc29  1  0.55916027  0.20169141  0.61954616  1
  Sc  Sc30  1  0.22201273  0.53539073  0.11841834  1
  Sc  Sc31  1  0.21529885  0.53976634  0.62859405  1
  Sc  Sc32  1  0.55826330  0.54392075  0.62182385  1
  Sc  Sc33  1  0.77480884  0.75637314  0.86303062  1
  Sc  Sc34  1  0.77641727  0.75909935  0.38048301  1
  Sc  Sc35  1  0.89164654  0.86890851  0.11478118  1
  N  N36  1  0.21963799  0.20481157  0.32557983  1
  N  N37  1  0.14143603  0.07903050  0.06622984  1
  N  N38  1  0.89261036  0.20574018  0.83672706  1
  N  N39  1  0.80020024  0.08828395  0.58369974  1
  N  N40  1  0.53721895  0.21208598  0.33078982  1
  N  N41  1  0.44250615  0.09812673  0.08777979  1
  N  N42  1  0.20321676  0.21266063  0.81570277  1
  N  N43  1  0.11045022  0.09332468  0.57515748  1
  N  N44  1  0.90519077  0.21207689  0.32303655  1
  N  N45  1  0.75882981  0.10760620  0.07620761  1
  N  N46  1  0.56401660  0.21584308  0.82932864  1
  N  N47  1  0.42941870  0.08931377  0.57429873  1
  N  N48  1  0.21802623  0.54042457  0.33652117  1
  N  N49  1  0.09642979  0.41379729  0.07324940  1
  N  N50  1  0.89642184  0.51647356  0.81924860  1
  N  N51  1  0.79762463  0.41397841  0.57149080  1
  N  N52  1  0.55903295  0.53970164  0.32994358  1
  N  N53  1  0.46308441  0.42144522  0.08119603  1
  N  N54  1  0.22232310  0.53388774  0.84879881  1
  N  N55  1  0.10239996  0.41687359  0.56801821  1
  N  N56  1  0.89719879  0.52273947  0.32132067  1
  N  N57  1  0.76427188  0.44855669  0.07001326  1
  N  N58  1  0.55310590  0.54051947  0.83435065  1
  N  N59  1  0.44150947  0.43232335  0.56192831  1
  N  N60  1  0.22119387  0.87385778  0.32384238  1
  N  N61  1  0.12822204  0.77132764  0.06670614  1
  N  N62  1  0.90043035  0.88211299  0.83415738  1
  N  N63  1  0.77820316  0.76244866  0.60086824  1
  N  N64  1  0.53572870  0.88241086  0.32315707  1
  N  N65  1  0.44520048  0.76052287  0.07812751  1
  N  N66  1  0.22600238  0.87051572  0.81965215  1
  N  N67  1  0.10575072  0.77900252  0.57482291  1
  N  N68  1  0.90870194  0.85994805  0.32396492  1
  N  N69  1  0.76438639  0.75317324  0.08191946  1
  N  N70  1  0.53697754  0.86554279  0.81775951  1
  N  N71  1  0.43046972  0.78092314  0.56521887  1
