# generated using pymatgen
data_Sc5Al13N18
_symmetry_space_group_name_H-M   'P 1'
_cell_length_a   10.20032111
_cell_length_b   10.14610926
_cell_length_c   9.21733664
_cell_angle_alpha   89.99011664
_cell_angle_beta   90.01121479
_cell_angle_gamma   59.75286488
_symmetry_Int_Tables_number   1
_chemical_formula_structural   Sc5Al13N18
_chemical_formula_sum   'Sc10 Al26 N36'
_cell_volume   824.06697853
_cell_formula_units_Z   2
loop_
 _symmetry_equiv_pos_site_id
 _symmetry_equiv_pos_as_xyz
  1  'x, y, z'
loop_
 _atom_site_type_symbol
 _atom_site_label
 _atom_site_symmetry_multiplicity
 _atom_site_fract_x
 _atom_site_fract_y
 _atom_site_fract_z
 _atom_site_occupancy
  Al  Al0  1  0.11492186  0.09351439  0.37553520  1
  Al  Al1  1  0.22326102  0.19986990  0.12644928  1
  Al  Al2  1  0.77851444  0.10216901  0.86322330  1
  Al  Al3  1  0.90068274  0.20125423  0.62682921  1
  Al  Al4  1  0.43177032  0.09743378  0.36901458  1
  Al  Al5  1  0.55076268  0.20688222  0.12246551  1
  Al  Al6  1  0.11934929  0.08816857  0.87050771  1
  Al  Al7  1  0.21204209  0.20411887  0.62004340  1
  Al  Al8  1  0.10885242  0.41986149  0.36846640  1
  Al  Al9  1  0.77417153  0.43106786  0.86886622  1
  Al  Al10  1  0.89574093  0.52539389  0.62007971  1
  Al  Al11  1  0.43999847  0.43167574  0.36212732  1
  Al  Al12  1  0.55914083  0.54212831  0.12555341  1
  Al  Al13  1  0.10429270  0.41971907  0.87665313  1
  Al  Al14  1  0.78754122  0.42116244  0.37539819  1
  Al  Al15  1  0.88287051  0.53482774  0.12507243  1
  Al  Al16  1  0.45224563  0.42820807  0.87985379  1
  Al  Al17  1  0.11675812  0.76414818  0.37692583  1
  Al  Al18  1  0.22978846  0.87280249  0.12565868  1
  Al  Al19  1  0.89591893  0.87689743  0.62304508  1
  Al  Al20  1  0.43604428  0.76954217  0.36628359  1
  Al  Al21  1  0.54743826  0.87408786  0.12376874  1
  Al  Al22  1  0.12047774  0.76607285  0.86551365  1
  Al  Al23  1  0.22219154  0.87920095  0.62178274  1
  Al  Al24  1  0.43925439  0.75813967  0.88023619  1
  Al  Al25  1  0.54158546  0.87477886  0.61936090  1
  Sc  Sc26  1  0.78359052  0.09775569  0.35577226  1
  Sc  Sc27  1  0.89758121  0.21040137  0.10161823  1
  Sc  Sc28  1  0.43735753  0.09889577  0.85987177  1
  Sc  Sc29  1  0.55732601  0.20338021  0.60442409  1
  Sc  Sc30  1  0.22115624  0.53711682  0.10776292  1
  Sc  Sc31  1  0.21482487  0.53854393  0.61069507  1
  Sc  Sc32  1  0.55667954  0.54499127  0.60575255  1
  Sc  Sc33  1  0.77508958  0.75590055  0.85274076  1
  Sc  Sc34  1  0.77540493  0.75987151  0.36158202  1
  Sc  Sc35  1  0.89463956  0.86937262  0.10107057  1
  N  N36  1  0.21977062  0.20323764  0.33433790  1
  N  N37  1  0.13811124  0.07990908  0.07715804  1
  N  N38  1  0.89415338  0.20520038  0.84346759  1
  N  N39  1  0.79756999  0.09044836  0.59621010  1
  N  N40  1  0.53680953  0.21099847  0.34085312  1
  N  N41  1  0.44120445  0.09808977  0.09382318  1
  N  N42  1  0.20280996  0.21274274  0.82761795  1
  N  N43  1  0.11163491  0.09257496  0.58454630  1
  N  N44  1  0.90492039  0.21170993  0.33425630  1
  N  N45  1  0.76207328  0.10634869  0.09249252  1
  N  N46  1  0.56375028  0.21544376  0.84144446  1
  N  N47  1  0.42917908  0.09006624  0.58873557  1
  N  N48  1  0.21665247  0.54154592  0.34626148  1
  N  N49  1  0.09754501  0.41545239  0.08578513  1
  N  N50  1  0.89664451  0.51932261  0.82796683  1
  N  N51  1  0.79610830  0.41407325  0.58533769  1
  N  N52  1  0.56071164  0.53954493  0.33938637  1
  N  N53  1  0.46124514  0.42317151  0.09470187  1
  N  N54  1  0.22324728  0.53243574  0.85140917  1
  N  N55  1  0.10312415  0.41464272  0.57611115  1
  N  N56  1  0.89588672  0.52170963  0.33399970  1
  N  N57  1  0.76543772  0.44778317  0.07730167  1
  N  N58  1  0.55229582  0.54142181  0.84146528  1
  N  N59  1  0.44189265  0.43226052  0.57198479  1
  N  N60  1  0.22011573  0.87441565  0.33329179  1
  N  N61  1  0.12885599  0.76995143  0.07380760  1
  N  N62  1  0.89892839  0.88059647  0.84166348  1
  N  N63  1  0.77706005  0.76243328  0.60090285  1
  N  N64  1  0.53427256  0.88424054  0.33300879  1
  N  N65  1  0.44420641  0.76040786  0.09042886  1
  N  N66  1  0.22787269  0.87165112  0.82858339  1
  N  N67  1  0.10780776  0.77892623  0.58949057  1
  N  N68  1  0.90929307  0.86129520  0.33824106  1
  N  N69  1  0.76671204  0.75355621  0.09679082  1
  N  N70  1  0.54022408  0.86246168  0.83016620  1
  N  N71  1  0.42995125  0.78086058  0.57243631  1
