# generated using pymatgen
data_Sc5Al13N18
_symmetry_space_group_name_H-M   'P 1'
_cell_length_a   10.38742746
_cell_length_b   10.34259278
_cell_length_c   8.66731636
_cell_angle_alpha   90.04499862
_cell_angle_beta   90.09101027
_cell_angle_gamma   59.73252926
_symmetry_Int_Tables_number   1
_chemical_formula_structural   Sc5Al13N18
_chemical_formula_sum   'Sc10 Al26 N36'
_cell_volume   804.22084363
_cell_formula_units_Z   2
loop_
 _symmetry_equiv_pos_site_id
 _symmetry_equiv_pos_as_xyz
  1  'x, y, z'
loop_
 _atom_site_type_symbol
 _atom_site_label
 _atom_site_symmetry_multiplicity
 _atom_site_fract_x
 _atom_site_fract_y
 _atom_site_fract_z
 _atom_site_occupancy
  Al  Al0  1  0.11853676  0.09098310  0.34850884  1
  Al  Al1  1  0.21924597  0.20317753  0.10249029  1
  Al  Al2  1  0.78210498  0.09974071  0.84867761  1
  Al  Al3  1  0.90052668  0.20351191  0.60293576  1
  Al  Al4  1  0.43369522  0.09875392  0.34619794  1
  Al  Al5  1  0.55390822  0.20879395  0.10363978  1
  Al  Al6  1  0.11397286  0.09142475  0.84457445  1
  Al  Al7  1  0.21620753  0.20185041  0.59386758  1
  Al  Al8  1  0.10813645  0.42015903  0.34828239  1
  Al  Al9  1  0.77940517  0.42527891  0.84867258  1
  Al  Al10  1  0.89329738  0.52661758  0.59911159  1
  Al  Al11  1  0.44289392  0.43037830  0.34867663  1
  Al  Al12  1  0.55701276  0.54222875  0.10344645  1
  Al  Al13  1  0.10561678  0.42038013  0.84897534  1
  Al  Al14  1  0.78171340  0.42651083  0.34976641  1
  Al  Al15  1  0.88522094  0.53479570  0.09797511  1
  Al  Al16  1  0.44938093  0.42952787  0.85839735  1
  Al  Al17  1  0.11954852  0.76307904  0.35157743  1
  Al  Al18  1  0.23064675  0.87237830  0.09742638  1
  Al  Al19  1  0.89798958  0.87558304  0.60499014  1
  Al  Al20  1  0.43731649  0.76557801  0.34627771  1
  Al  Al21  1  0.54853597  0.86994966  0.10393124  1
  Al  Al22  1  0.11683027  0.76758405  0.84820154  1
  Al  Al23  1  0.22142656  0.87889946  0.59774063  1
  Al  Al24  1  0.43894989  0.76123422  0.85320074  1
  Al  Al25  1  0.54225895  0.87736175  0.59374819  1
  Sc  Sc26  1  0.77980769  0.09916130  0.35442967  1
  Sc  Sc27  1  0.89668932  0.20859184  0.09896031  1
  Sc  Sc28  1  0.43672774  0.09679218  0.85689069  1
  Sc  Sc29  1  0.55422347  0.20326922  0.60253045  1
  Sc  Sc30  1  0.22221056  0.53513793  0.10115372  1
  Sc  Sc31  1  0.21390666  0.54083897  0.60263790  1
  Sc  Sc32  1  0.55810756  0.54395545  0.60045313  1
  Sc  Sc33  1  0.77481591  0.75785668  0.84760385  1
  Sc  Sc34  1  0.77555505  0.75764334  0.35502242  1
  Sc  Sc35  1  0.89406132  0.87059760  0.09853471  1
  N  N36  1  0.21982026  0.20477956  0.35411684  1
  N  N37  1  0.13218255  0.08197598  0.10820669  1
  N  N38  1  0.89441796  0.20446724  0.84602466  1
  N  N39  1  0.79353784  0.09226631  0.60867969  1
  N  N40  1  0.53821838  0.21310703  0.34539016  1
  N  N41  1  0.44059717  0.09783119  0.11084254  1
  N  N42  1  0.20456639  0.21043946  0.85886007  1
  N  N43  1  0.11413958  0.09236912  0.60504073  1
  N  N44  1  0.90286926  0.21175297  0.35808787  1
  N  N45  1  0.76614667  0.10393058  0.09835988  1
  N  N46  1  0.56316029  0.21273781  0.85892083  1
  N  N47  1  0.43065665  0.09030200  0.59800228  1
  N  N48  1  0.21982578  0.53893403  0.35153015  1
  N  N49  1  0.09874242  0.41826437  0.10756162  1
  N  N50  1  0.89470652  0.52212224  0.85241296  1
  N  N51  1  0.79245071  0.41752101  0.60621822  1
  N  N52  1  0.55723401  0.53974752  0.34466410  1
  N  N53  1  0.45889175  0.42420004  0.10294067  1
  N  N54  1  0.22039328  0.53608232  0.85313652  1
  N  N55  1  0.10419114  0.41466283  0.60433720  1
  N  N56  1  0.89605266  0.52222630  0.35874802  1
  N  N57  1  0.76879067  0.44327175  0.10317153  1
  N  N58  1  0.55550096  0.54101667  0.86012585  1
  N  N59  1  0.44301998  0.43146412  0.60064009  1
  N  N60  1  0.22319383  0.87296196  0.35738392  1
  N  N61  1  0.12587247  0.76908376  0.10142885  1
  N  N62  1  0.89850407  0.87893164  0.84396185  1
  N  N63  1  0.77255819  0.76243126  0.60195578  1
  N  N64  1  0.53507067  0.88184292  0.35051698  1
  N  N65  1  0.44303566  0.76010419  0.10718092  1
  N  N66  1  0.22468215  0.87377640  0.85427945  1
  N  N67  1  0.11042765  0.77746001  0.60706920  1
  N  N68  1  0.90798378  0.86260178  0.35972990  1
  N  N69  1  0.76999108  0.75305250  0.10283183  1
  N  N70  1  0.54248717  0.86480280  0.85996850  1
  N  N71  1  0.43294182  0.77815890  0.60260086  1
