# generated using pymatgen
data_Sc5Al13N18
_symmetry_space_group_name_H-M   'P 1'
_cell_length_a   10.36146110
_cell_length_b   10.31558538
_cell_length_c   8.74078655
_cell_angle_alpha   90.02235733
_cell_angle_beta   90.04534389
_cell_angle_gamma   59.73401946
_symmetry_Int_Tables_number   1
_chemical_formula_structural   Sc5Al13N18
_chemical_formula_sum   'Sc10 Al26 N36'
_cell_volume   806.91101573
_cell_formula_units_Z   2
loop_
 _symmetry_equiv_pos_site_id
 _symmetry_equiv_pos_as_xyz
  1  'x, y, z'
loop_
 _atom_site_type_symbol
 _atom_site_label
 _atom_site_symmetry_multiplicity
 _atom_site_fract_x
 _atom_site_fract_y
 _atom_site_fract_z
 _atom_site_occupancy
  Al  Al0  1  0.11712471  0.09213802  0.36405040  1
  Al  Al1  1  0.22058453  0.20195863  0.11498453  1
  Al  Al2  1  0.78191857  0.09991686  0.84933312  1
  Al  Al3  1  0.90059961  0.20283082  0.60911234  1
  Al  Al4  1  0.43361479  0.09819747  0.35131901  1
  Al  Al5  1  0.55363818  0.20836686  0.10555541  1
  Al  Al6  1  0.11589544  0.09011894  0.85855141  1
  Al  Al7  1  0.21487418  0.20286667  0.60864247  1
  Al  Al8  1  0.10855809  0.41951189  0.35841565  1
  Al  Al9  1  0.77851784  0.42692430  0.85624527  1
  Al  Al10  1  0.89419485  0.52656983  0.60802856  1
  Al  Al11  1  0.44263488  0.43060332  0.35200972  1
  Al  Al12  1  0.55799631  0.54142766  0.10880322  1
  Al  Al13  1  0.10513630  0.42072676  0.86364816  1
  Al  Al14  1  0.78272118  0.42492496  0.36109229  1
  Al  Al15  1  0.88445351  0.53479145  0.11218166  1
  Al  Al16  1  0.44941797  0.42933297  0.86370452  1
  Al  Al17  1  0.11857459  0.76353408  0.36445050  1
  Al  Al18  1  0.22932106  0.87296424  0.11474090  1
  Al  Al19  1  0.89717873  0.87559033  0.60759482  1
  Al  Al20  1  0.43737932  0.76697334  0.35570443  1
  Al  Al21  1  0.54862840  0.87130031  0.11166627  1
  Al  Al22  1  0.11783045  0.76746317  0.85451277  1
  Al  Al23  1  0.22253380  0.87870665  0.61179904  1
  Al  Al24  1  0.43855120  0.76013338  0.86933824  1
  Al  Al25  1  0.54199362  0.87635586  0.60442005  1
  Sc  Sc26  1  0.78001846  0.09917837  0.35415744  1
  Sc  Sc27  1  0.89667875  0.20914703  0.09992843  1
  Sc  Sc28  1  0.43681334  0.09710419  0.85749505  1
  Sc  Sc29  1  0.55438089  0.20341978  0.60231130  1
  Sc  Sc30  1  0.22187358  0.53649970  0.10335233  1
  Sc  Sc31  1  0.21417993  0.53953334  0.60480992  1
  Sc  Sc32  1  0.55701876  0.54503069  0.60232326  1
  Sc  Sc33  1  0.77547977  0.75680792  0.84880726  1
  Sc  Sc34  1  0.77484882  0.75877247  0.35674576  1
  Sc  Sc35  1  0.89457219  0.87038826  0.09871799  1
  N  N36  1  0.21967631  0.20373586  0.34433169  1
  N  N37  1  0.13328803  0.08201440  0.09103623  1
  N  N38  1  0.89460882  0.20483127  0.84395781  1
  N  N39  1  0.79386135  0.09203826  0.60725136  1
  N  N40  1  0.53793487  0.21261887  0.34411048  1
  N  N41  1  0.44083906  0.09761733  0.10714772  1
  N  N42  1  0.20451359  0.21150201  0.84206461  1
  N  N43  1  0.11369952  0.09193490  0.59498834  1
  N  N44  1  0.90303385  0.21139499  0.35271157  1
  N  N45  1  0.76576095  0.10416313  0.09726049  1
  N  N46  1  0.56312151  0.21323404  0.85662432  1
  N  N47  1  0.43033406  0.09029730  0.59435264  1
  N  N48  1  0.21879082  0.54055812  0.35052361  1
  N  N49  1  0.09897138  0.41725130  0.09722196  1
  N  N50  1  0.89570468  0.52157738  0.84071187  1
  N  N51  1  0.79275885  0.41726117  0.59802475  1
  N  N52  1  0.55890883  0.53922729  0.34221476  1
  N  N53  1  0.45902365  0.42417706  0.10142905  1
  N  N54  1  0.22150482  0.53404523  0.85264401  1
  N  N55  1  0.10382150  0.41503686  0.58942187  1
  N  N56  1  0.89539419  0.52236776  0.34685694  1
  N  N57  1  0.76846134  0.44382255  0.09195931  1
  N  N58  1  0.55387168  0.54151364  0.85637504  1
  N  N59  1  0.44292736  0.43155653  0.59261195  1
  N  N60  1  0.22139445  0.87406805  0.34394659  1
  N  N61  1  0.12632456  0.76954667  0.08810214  1
  N  N62  1  0.89870231  0.87893190  0.84243657  1
  N  N63  1  0.77424967  0.76202513  0.60139144  1
  N  N64  1  0.53565155  0.88249347  0.34375699  1
  N  N65  1  0.44316318  0.76067642  0.10050188  1
  N  N66  1  0.22653183  0.87266743  0.84053119  1
  N  N67  1  0.11020739  0.77745895  0.60008320  1
  N  N68  1  0.90782753  0.86282367  0.35590490  1
  N  N69  1  0.76905889  0.75340017  0.10115673  1
  N  N70  1  0.54168256  0.86377440  0.84679328  1
  N  N71  1  0.43200381  0.77853200  0.58569127  1
