# generated using pymatgen
data_Sc5Al13N18
_symmetry_space_group_name_H-M   'P 1'
_cell_length_a   10.28448143
_cell_length_b   10.23506539
_cell_length_c   8.96507451
_cell_angle_alpha   90.00359959
_cell_angle_beta   90.02317823
_cell_angle_gamma   59.74181946
_symmetry_Int_Tables_number   1
_chemical_formula_structural   Sc5Al13N18
_chemical_formula_sum   'Sc10 Al26 N36'
_cell_volume   815.12040387
_cell_formula_units_Z   2
loop_
 _symmetry_equiv_pos_site_id
 _symmetry_equiv_pos_as_xyz
  1  'x, y, z'
loop_
 _atom_site_type_symbol
 _atom_site_label
 _atom_site_symmetry_multiplicity
 _atom_site_fract_x
 _atom_site_fract_y
 _atom_site_fract_z
 _atom_site_occupancy
  Al  Al0  1  0.11595653  0.09284065  0.37151685  1
  Al  Al1  1  0.22178524  0.20075044  0.12198486  1
  Al  Al2  1  0.78073939  0.10071689  0.85307696  1
  Al  Al3  1  0.90076779  0.20203466  0.61829354  1
  Al  Al4  1  0.43287517  0.09785196  0.35910289  1
  Al  Al5  1  0.55257738  0.20737058  0.11273306  1
  Al  Al6  1  0.11780102  0.08911046  0.86545502  1
  Al  Al7  1  0.21344238  0.20369382  0.61553801  1
  Al  Al8  1  0.10864793  0.41956442  0.36391419  1
  Al  Al9  1  0.77646189  0.42916638  0.86316295  1
  Al  Al10  1  0.89532796  0.52594106  0.61499413  1
  Al  Al11  1  0.44146195  0.43105723  0.35717539  1
  Al  Al12  1  0.55895908  0.54158731  0.11753778  1
  Al  Al13  1  0.10473132  0.42021412  0.87210351  1
  Al  Al14  1  0.78512603  0.42290765  0.37063827  1
  Al  Al15  1  0.88346676  0.53473065  0.12056688  1
  Al  Al16  1  0.45064521  0.42890920  0.87365921  1
  Al  Al17  1  0.11774132  0.76388988  0.37272048  1
  Al  Al18  1  0.22902414  0.87315769  0.12149277  1
  Al  Al19  1  0.89625177  0.87585512  0.61398530  1
  Al  Al20  1  0.43678577  0.76832243  0.36106668  1
  Al  Al21  1  0.54826509  0.87273343  0.11898319  1
  Al  Al22  1  0.11908803  0.76692811  0.85957290  1
  Al  Al23  1  0.22281981  0.87887372  0.61796855  1
  Al  Al24  1  0.43875657  0.75915385  0.87670243  1
  Al  Al25  1  0.54157013  0.87546982  0.61318085  1
  Sc  Sc26  1  0.78146632  0.09876316  0.35448513  1
  Sc  Sc27  1  0.89698212  0.20979720  0.10056967  1
  Sc  Sc28  1  0.43698707  0.09786662  0.85845690  1
  Sc  Sc29  1  0.55522497  0.20367753  0.60285449  1
  Sc  Sc30  1  0.22119793  0.53737891  0.10564160  1
  Sc  Sc31  1  0.21467248  0.53855481  0.60738615  1
  Sc  Sc32  1  0.55635501  0.54533617  0.60400332  1
  Sc  Sc33  1  0.77545490  0.75623585  0.85047434  1
  Sc  Sc34  1  0.77497726  0.75940032  0.35899972  1
  Sc  Sc35  1  0.89473200  0.87008517  0.09951943  1
  N  N36  1  0.21958337  0.20325913  0.33846536  1
  N  N37  1  0.13568077  0.08098229  0.08235094  1
  N  N38  1  0.89456793  0.20509680  0.84347061  1
  N  N39  1  0.79532924  0.09145140  0.60356156  1
  N  N40  1  0.53740787  0.21168459  0.34258585  1
  N  N41  1  0.44098392  0.09772798  0.10104078  1
  N  N42  1  0.20363527  0.21238071  0.83341615  1
  N  N43  1  0.11281615  0.09213096  0.58920284  1
  N  N44  1  0.90393021  0.21145429  0.34360125  1
  N  N45  1  0.76427648  0.10507218  0.09613750  1
  N  N46  1  0.56337474  0.21431358  0.85026691  1
  N  N47  1  0.42968022  0.09019631  0.59158657  1
  N  N48  1  0.21728583  0.54156148  0.34866361  1
  N  N49  1  0.09824350  0.41635064  0.09103319  1
  N  N50  1  0.89658432  0.52047822  0.83270241  1
  N  N51  1  0.79422370  0.41588520  0.59118347  1
  N  N52  1  0.56043809  0.53921594  0.34055251  1
  N  N53  1  0.45994004  0.42389119  0.09860734  1
  N  N54  1  0.22286114  0.53257274  0.85217079  1
  N  N55  1  0.10354841  0.41469551  0.58085053  1
  N  N56  1  0.89538033  0.52199510  0.33941485  1
  N  N57  1  0.76718401  0.44574880  0.08240861  1
  N  N58  1  0.55260161  0.54168584  0.84889721  1
  N  N59  1  0.44243567  0.43190116  0.57992474  1
  N  N60  1  0.22031715  0.87443693  0.33769635  1
  N  N61  1  0.12753673  0.76992497  0.07900030  1
  N  N62  1  0.89871594  0.87957392  0.84204386  1
  N  N63  1  0.77586006  0.76213012  0.60112475  1
  N  N64  1  0.53518509  0.88333608  0.33778141  1
  N  N65  1  0.44358244  0.76076432  0.09557316  1
  N  N66  1  0.22763459  0.87212454  0.83343792  1
  N  N67  1  0.10924341  0.77803341  0.59524254  1
  N  N68  1  0.90845018  0.86229969  0.34848132  1
  N  N69  1  0.76796473  0.75346731  0.09936563  1
  N  N70  1  0.54090788  0.86283588  0.83671798  1
  N  N71  1  0.43082815  0.77969965  0.57697824  1
