# generated using pymatgen
data_Sc5Al13N18
_symmetry_space_group_name_H-M   'P 1'
_cell_length_a   10.15473298
_cell_length_b   10.09878583
_cell_length_c   9.35166368
_cell_angle_alpha   90.05111385
_cell_angle_beta   90.13338819
_cell_angle_gamma   59.77300784
_symmetry_Int_Tables_number   1
_chemical_formula_structural   Sc5Al13N18
_chemical_formula_sum   'Sc10 Al26 N36'
_cell_volume   828.62505032
_cell_formula_units_Z   2
loop_
 _symmetry_equiv_pos_site_id
 _symmetry_equiv_pos_as_xyz
  1  'x, y, z'
loop_
 _atom_site_type_symbol
 _atom_site_label
 _atom_site_symmetry_multiplicity
 _atom_site_fract_x
 _atom_site_fract_y
 _atom_site_fract_z
 _atom_site_occupancy
  Al  Al0  1  0.12364980  0.08841427  0.33186354  1
  Al  Al1  1  0.21518226  0.20488052  0.08341526  1
  Al  Al2  1  0.78785030  0.09781603  0.82636436  1
  Al  Al3  1  0.90308330  0.20473899  0.57804301  1
  Al  Al4  1  0.43317338  0.10260539  0.32357875  1
  Al  Al5  1  0.55838795  0.20844430  0.07988559  1
  Al  Al6  1  0.10940347  0.09404364  0.82599728  1
  Al  Al7  1  0.21864374  0.20047068  0.57678328  1
  Al  Al8  1  0.10833308  0.41968279  0.33051519  1
  Al  Al9  1  0.78430966  0.41952662  0.83042684  1
  Al  Al10  1  0.89424944  0.52520013  0.58176198  1
  Al  Al11  1  0.44536204  0.42867167  0.32427319  1
  Al  Al12  1  0.55736970  0.54346206  0.07885967  1
  Al  Al13  1  0.10467567  0.42026932  0.82955881  1
  Al  Al14  1  0.77812366  0.43114940  0.32868565  1
  Al  Al15  1  0.88436187  0.53448843  0.07763471  1
  Al  Al16  1  0.44683659  0.43148069  0.83917966  1
  Al  Al17  1  0.12342909  0.76150241  0.32993441  1
  Al  Al18  1  0.23242357  0.87196659  0.07634347  1
  Al  Al19  1  0.89863788  0.87229634  0.58498767  1
  Al  Al20  1  0.43740671  0.76244736  0.32757810  1
  Al  Al21  1  0.55073958  0.86591595  0.08857933  1
  Al  Al22  1  0.11319559  0.76917470  0.83015230  1
  Al  Al23  1  0.22078666  0.87921183  0.58080742  1
  Al  Al24  1  0.43773764  0.76481481  0.83026923  1
  Al  Al25  1  0.53829096  0.88162811  0.57349918  1
  Sc  Sc26  1  0.77514465  0.10119189  0.35248457  1
  Sc  Sc27  1  0.89642598  0.20672616  0.09589923  1
  Sc  Sc28  1  0.43531267  0.09560651  0.85376539  1
  Sc  Sc29  1  0.55060149  0.20292651  0.59923898  1
  Sc  Sc30  1  0.22119759  0.53503995  0.09309349  1
  Sc  Sc31  1  0.21413638  0.54120783  0.59362128  1
  Sc  Sc32  1  0.55876144  0.54317368  0.59432042  1
  Sc  Sc33  1  0.77504213  0.75968765  0.83983510  1
  Sc  Sc34  1  0.77590358  0.75630202  0.34974235  1
  Sc  Sc35  1  0.89213920  0.87306749  0.09400320  1
  N  N36  1  0.22248184  0.20460827  0.37149836  1
  N  N37  1  0.13687079  0.07840610  0.12985697  1
  N  N38  1  0.89392386  0.20256745  0.86519934  1
  N  N39  1  0.79652965  0.09142369  0.60907102  1
  N  N40  1  0.53173297  0.21636102  0.36708335  1
  N  N41  1  0.44082616  0.10071430  0.11197471  1
  N  N42  1  0.19875519  0.21219100  0.88041291  1
  N  N43  1  0.11373806  0.09332557  0.62042941  1
  N  N44  1  0.90474854  0.21359344  0.36488405  1
  N  N45  1  0.76313282  0.10537116  0.12429108  1
  N  N46  1  0.56945207  0.21019963  0.86485349  1
  N  N47  1  0.42828355  0.08866237  0.62415766  1
  N  N48  1  0.22308697  0.53642674  0.35386958  1
  N  N49  1  0.09567188  0.41789254  0.12675076  1
  N  N50  1  0.89440013  0.52119703  0.87227811  1
  N  N51  1  0.79620771  0.41479609  0.62595178  1
  N  N52  1  0.55570303  0.53863005  0.36432481  1
  N  N53  1  0.46159551  0.42311562  0.11369752  1
  N  N54  1  0.21568928  0.53931482  0.85847896  1
  N  N55  1  0.10404217  0.41265431  0.62475556  1
  N  N56  1  0.89819340  0.51912865  0.37877130  1
  N  N57  1  0.76620378  0.44640476  0.12393355  1
  N  N58  1  0.55763793  0.54152068  0.86650182  1
  N  N59  1  0.44152920  0.43261467  0.63433197  1
  N  N60  1  0.22567223  0.87107815  0.37770553  1
  N  N61  1  0.12779043  0.77024171  0.12434265  1
  N  N62  1  0.89708237  0.88219513  0.86003939  1
  N  N63  1  0.77288429  0.76334908  0.60294072  1
  N  N64  1  0.53038432  0.88574201  0.36526964  1
  N  N65  1  0.44335059  0.75819035  0.12391968  1
  N  N66  1  0.22284676  0.87443621  0.87193060  1
  N  N67  1  0.10848494  0.77984546  0.62487736  1
  N  N68  1  0.91182773  0.85967246  0.36858088  1
  N  N69  1  0.77053215  0.75200667  0.11084590  1
  N  N70  1  0.54368067  0.86161057  0.88431029  1
  N  N71  1  0.43206567  0.78156525  0.62615176  1
