# generated using pymatgen
data_Sc5Al13N18
_symmetry_space_group_name_H-M   'P 1'
_cell_length_a   10.24161683
_cell_length_b   10.19037149
_cell_length_c   9.09053066
_cell_angle_alpha   90.05827045
_cell_angle_beta   90.13384190
_cell_angle_gamma   59.75966332
_symmetry_Int_Tables_number   1
_chemical_formula_structural   Sc5Al13N18
_chemical_formula_sum   'Sc10 Al26 N36'
_cell_volume   819.63471040
_cell_formula_units_Z   2
loop_
 _symmetry_equiv_pos_site_id
 _symmetry_equiv_pos_as_xyz
  1  'x, y, z'
loop_
 _atom_site_type_symbol
 _atom_site_label
 _atom_site_symmetry_multiplicity
 _atom_site_fract_x
 _atom_site_fract_y
 _atom_site_fract_z
 _atom_site_occupancy
  Al  Al0  1  0.12205696  0.08876969  0.33584724  1
  Al  Al1  1  0.21610733  0.20440608  0.08854216  1
  Al  Al2  1  0.78528804  0.09883583  0.83608719  1
  Al  Al3  1  0.90192103  0.20420415  0.58688005  1
  Al  Al4  1  0.43322816  0.10160803  0.33010163  1
  Al  Al5  1  0.55642162  0.20836960  0.08994171  1
  Al  Al6  1  0.11103083  0.09343612  0.82950315  1
  Al  Al7  1  0.21802160  0.20086715  0.57928380  1
  Al  Al8  1  0.10784229  0.42019110  0.33459802  1
  Al  Al9  1  0.78252616  0.42126384  0.83453795  1
  Al  Al10  1  0.89388241  0.52540952  0.58676799  1
  Al  Al11  1  0.44433522  0.42965938  0.32967704  1
  Al  Al12  1  0.55710558  0.54331803  0.08655811  1
  Al  Al13  1  0.10525262  0.41977184  0.83341233  1
  Al  Al14  1  0.77947904  0.42984545  0.33333610  1
  Al  Al15  1  0.88486642  0.53449828  0.08084261  1
  Al  Al16  1  0.44797934  0.43061047  0.84420593  1
  Al  Al17  1  0.12246269  0.76204680  0.33466056  1
  Al  Al18  1  0.23202040  0.87220574  0.07951992  1
  Al  Al19  1  0.89789677  0.87378621  0.59530844  1
  Al  Al20  1  0.43678565  0.76336214  0.33115963  1
  Al  Al21  1  0.54991070  0.86707893  0.09374005  1
  Al  Al22  1  0.11449478  0.76852412  0.83462026  1
  Al  Al23  1  0.22108058  0.87895284  0.58458625  1
  Al  Al24  1  0.43847484  0.76400435  0.83466010  1
  Al  Al25  1  0.53961584  0.88042306  0.57695001  1
  Sc  Sc26  1  0.77749624  0.09999601  0.35366429  1
  Sc  Sc27  1  0.89704559  0.20725140  0.09729848  1
  Sc  Sc28  1  0.43572292  0.09587982  0.85539687  1
  Sc  Sc29  1  0.55197406  0.20305790  0.60112951  1
  Sc  Sc30  1  0.22122660  0.53502770  0.09555344  1
  Sc  Sc31  1  0.21403767  0.54121362  0.59749828  1
  Sc  Sc32  1  0.55846797  0.54342220  0.59647367  1
  Sc  Sc33  1  0.77405628  0.75948092  0.84357065  1
  Sc  Sc34  1  0.77668606  0.75626636  0.35208266  1
  Sc  Sc35  1  0.89314090  0.87186018  0.09637924  1
  N  N36  1  0.22148580  0.20486836  0.36650646  1
  N  N37  1  0.13547422  0.07900469  0.12541655  1
  N  N38  1  0.89438197  0.20303624  0.85834990  1
  N  N39  1  0.79530467  0.09192973  0.60851026  1
  N  N40  1  0.53445255  0.21536328  0.35800630  1
  N  N41  1  0.44040697  0.09999367  0.11197918  1
  N  N42  1  0.20051128  0.21149505  0.87663607  1
  N  N43  1  0.11424517  0.09308588  0.61635251  1
  N  N44  1  0.90411750  0.21313679  0.36275676  1
  N  N45  1  0.76492053  0.10456521  0.11406386  1
  N  N46  1  0.56724604  0.21062563  0.86284701  1
  N  N47  1  0.42914088  0.08935751  0.61562337  1
  N  N48  1  0.22258778  0.53686515  0.35284938  1
  N  N49  1  0.09626098  0.41837795  0.12246716  1
  N  N50  1  0.89448387  0.52144647  0.86674663  1
  N  N51  1  0.79453739  0.41582855  0.62118032  1
  N  N52  1  0.55573319  0.53904386  0.35767463  1
  N  N53  1  0.46030270  0.42376335  0.10954027  1
  N  N54  1  0.21631350  0.53876618  0.85601554  1
  N  N55  1  0.10443004  0.41272610  0.62008974  1
  N  N56  1  0.89757203  0.52020457  0.37524303  1
  N  N57  1  0.76739570  0.44537618  0.11911621  1
  N  N58  1  0.55735838  0.54160021  0.86467408  1
  N  N59  1  0.44211420  0.43214676  0.62723143  1
  N  N60  1  0.22512738  0.87149153  0.37390581  1
  N  N61  1  0.12757097  0.76975352  0.11855443  1
  N  N62  1  0.89728969  0.88102335  0.85280855  1
  N  N63  1  0.77191162  0.76370256  0.60271639  1
  N  N64  1  0.53204302  0.88418381  0.36004903  1
  N  N65  1  0.44275258  0.75882418  0.12001154  1
  N  N66  1  0.22328544  0.87451674  0.86754960  1
  N  N67  1  0.10935967  0.77898420  0.62043085  1
  N  N68  1  0.91076335  0.86043837  0.36451153  1
  N  N69  1  0.77087429  0.75195371  0.10740776  1
  N  N70  1  0.54296177  0.86316982  0.88002757  1
  N  N71  1  0.43268848  0.78073182  0.62147344  1
