# generated using pymatgen
data_Sc5Al13N18
_symmetry_space_group_name_H-M   'P 1'
_cell_length_a   9.86731086
_cell_length_b   9.81756203
_cell_length_c   10.13292949
_cell_angle_alpha   90.02643602
_cell_angle_beta   90.08762005
_cell_angle_gamma   59.83662355
_symmetry_Int_Tables_number   1
_chemical_formula_structural   Sc5Al13N18
_chemical_formula_sum   'Sc10 Al26 N36'
_cell_volume   848.69227706
_cell_formula_units_Z   2
loop_
 _symmetry_equiv_pos_site_id
 _symmetry_equiv_pos_as_xyz
  1  'x, y, z'
loop_
 _atom_site_type_symbol
 _atom_site_label
 _atom_site_symmetry_multiplicity
 _atom_site_fract_x
 _atom_site_fract_y
 _atom_site_fract_z
 _atom_site_occupancy
  Al  Al0  1  0.12223969  0.09025270  0.31063483  1
  Al  Al1  1  0.21756987  0.20351543  0.06001347  1
  Al  Al2  1  0.78611720  0.09772094  0.79829217  1
  Al  Al3  1  0.90183718  0.20545359  0.55662482  1
  Al  Al4  1  0.43328748  0.10124031  0.30129418  1
  Al  Al5  1  0.55902066  0.20829910  0.05408557  1
  Al  Al6  1  0.10878950  0.09376449  0.80342574  1
  Al  Al7  1  0.21791749  0.20152457  0.55624637  1
  Al  Al8  1  0.10993064  0.41884151  0.30532339  1
  Al  Al9  1  0.78270984  0.42150961  0.80715056  1
  Al  Al10  1  0.89478976  0.52614300  0.55559485  1
  Al  Al11  1  0.44644534  0.42793242  0.29845500  1
  Al  Al12  1  0.55796150  0.54279498  0.05634128  1
  Al  Al13  1  0.10504936  0.42291603  0.80864620  1
  Al  Al14  1  0.78005322  0.42915483  0.30530477  1
  Al  Al15  1  0.88353810  0.53584916  0.05742640  1
  Al  Al16  1  0.44473443  0.43266230  0.81372352  1
  Al  Al17  1  0.12171355  0.76268715  0.30620054  1
  Al  Al18  1  0.23125096  0.87263241  0.05676763  1
  Al  Al19  1  0.89865693  0.87214019  0.55688207  1
  Al  Al20  1  0.43853141  0.76286440  0.30354769  1
  Al  Al21  1  0.55237915  0.86656597  0.06162299  1
  Al  Al22  1  0.11373130  0.76621334  0.80499616  1
  Al  Al23  1  0.22070511  0.87892007  0.55858368  1
  Al  Al24  1  0.43796107  0.76313190  0.80997385  1
  Al  Al25  1  0.53900465  0.88019596  0.55205263  1
  Sc  Sc26  1  0.77657721  0.10042863  0.32323252  1
  Sc  Sc27  1  0.89599749  0.20655122  0.06260657  1
  Sc  Sc28  1  0.43588827  0.09649083  0.82503178  1
  Sc  Sc29  1  0.55016148  0.20320810  0.56760080  1
  Sc  Sc30  1  0.22197596  0.53575727  0.06924033  1
  Sc  Sc31  1  0.21471712  0.54132093  0.55840202  1
  Sc  Sc32  1  0.55840690  0.54330007  0.56410930  1
  Sc  Sc33  1  0.77627645  0.75735586  0.80417307  1
  Sc  Sc34  1  0.77582834  0.75724272  0.32479331  1
  Sc  Sc35  1  0.88906145  0.87333095  0.05992412  1
  N  N36  1  0.22287159  0.20528216  0.36547476  1
  N  N37  1  0.13578420  0.08016460  0.12357363  1
  N  N38  1  0.89184637  0.20297651  0.85239504  1
  N  N39  1  0.79577129  0.09084912  0.60270939  1
  N  N40  1  0.53088677  0.21669559  0.35903489  1
  N  N41  1  0.44273184  0.09865672  0.10341040  1
  N  N42  1  0.19769870  0.21293765  0.87280715  1
  N  N43  1  0.11347224  0.09332617  0.61338216  1
  N  N44  1  0.90480108  0.21404382  0.36360169  1
  N  N45  1  0.76325042  0.10461649  0.11718151  1
  N  N46  1  0.56938240  0.21212740  0.85996500  1
  N  N47  1  0.42893200  0.08757786  0.61633710  1
  N  N48  1  0.22347010  0.53640119  0.33961923  1
  N  N49  1  0.09652834  0.41647776  0.11849365  1
  N  N50  1  0.89395925  0.52205108  0.86862945  1
  N  N51  1  0.79592192  0.41754280  0.61938795  1
  N  N52  1  0.55639153  0.53845156  0.35350142  1
  N  N53  1  0.46366856  0.42150805  0.10915048  1
  N  N54  1  0.21679323  0.53960787  0.85321277  1
  N  N55  1  0.10356234  0.41526226  0.61941445  1
  N  N56  1  0.90080611  0.51691165  0.36962935  1
  N  N57  1  0.76731889  0.44479228  0.11780452  1
  N  N58  1  0.55713080  0.54060070  0.86123136  1
  N  N59  1  0.44039116  0.43334301  0.62824791  1
  N  N60  1  0.22631886  0.87046032  0.36905006  1
  N  N61  1  0.12310681  0.77393395  0.11994410  1
  N  N62  1  0.89570583  0.88151582  0.84994348  1
  N  N63  1  0.77417456  0.76167612  0.58740313  1
  N  N64  1  0.52870811  0.88625933  0.36251839  1
  N  N65  1  0.44411200  0.75941255  0.11465459  1
  N  N66  1  0.22149836  0.87379906  0.86588509  1
  N  N67  1  0.10824939  0.77851642  0.61747879  1
  N  N68  1  0.91392862  0.85974982  0.36812253  1
  N  N69  1  0.76967300  0.75242271  0.10880548  1
  N  N70  1  0.54700713  0.85955379  0.87525644  1
  N  N71  1  0.43225881  0.78069934  0.62150779  1
