# generated using pymatgen
data_Sc5Al13N18
_symmetry_space_group_name_H-M   'P 1'
_cell_length_a   9.86491126
_cell_length_b   9.81541189
_cell_length_c   10.13983105
_cell_angle_alpha   90.02628488
_cell_angle_beta   90.08420077
_cell_angle_gamma   59.82984999
_symmetry_Int_Tables_number   1
_chemical_formula_structural   Sc5Al13N18
_chemical_formula_sum   'Sc10 Al26 N36'
_cell_volume   848.81959584
_cell_formula_units_Z   2
loop_
 _symmetry_equiv_pos_site_id
 _symmetry_equiv_pos_as_xyz
  1  'x, y, z'
loop_
 _atom_site_type_symbol
 _atom_site_label
 _atom_site_symmetry_multiplicity
 _atom_site_fract_x
 _atom_site_fract_y
 _atom_site_fract_z
 _atom_site_occupancy
  Al  Al0  1  0.12216485  0.09032356  0.29973406  1
  Al  Al1  1  0.21764473  0.20347905  0.04911347  1
  Al  Al2  1  0.78599634  0.09774887  0.78734321  1
  Al  Al3  1  0.90175857  0.20547763  0.54581477  1
  Al  Al4  1  0.43333620  0.10115090  0.29037480  1
  Al  Al5  1  0.55900235  0.20822758  0.04318095  1
  Al  Al6  1  0.10880252  0.09376183  0.79245437  1
  Al  Al7  1  0.21788614  0.20156001  0.54525464  1
  Al  Al8  1  0.10999862  0.41887605  0.29435997  1
  Al  Al9  1  0.78260801  0.42162137  0.79614837  1
  Al  Al10  1  0.89476171  0.52622213  0.54460072  1
  Al  Al11  1  0.44646049  0.42791667  0.28743426  1
  Al  Al12  1  0.55798651  0.54277543  0.04546540  1
  Al  Al13  1  0.10503377  0.42291876  0.79771256  1
  Al  Al14  1  0.78013313  0.42910830  0.29437364  1
  Al  Al15  1  0.88356563  0.53586014  0.04650401  1
  Al  Al16  1  0.44479980  0.43258655  0.80275346  1
  Al  Al17  1  0.12172878  0.76266309  0.29530659  1
  Al  Al18  1  0.23120685  0.87266055  0.04588808  1
  Al  Al19  1  0.89864060  0.87218963  0.54597337  1
  Al  Al20  1  0.43855950  0.76286792  0.29256285  1
  Al  Al21  1  0.55236644  0.86663108  0.05063001  1
  Al  Al22  1  0.11376561  0.76618891  0.79396285  1
  Al  Al23  1  0.22074211  0.87893083  0.54763285  1
  Al  Al24  1  0.43796566  0.76311063  0.79909217  1
  Al  Al25  1  0.53910357  0.88011209  0.54108914  1
  Sc  Sc26  1  0.77676093  0.10036929  0.31196946  1
  Sc  Sc27  1  0.89600986  0.20661063  0.05134246  1
  Sc  Sc28  1  0.43587108  0.09653476  0.81382409  1
  Sc  Sc29  1  0.55025131  0.20315513  0.55632939  1
  Sc  Sc30  1  0.22201932  0.53576336  0.05815760  1
  Sc  Sc31  1  0.21476732  0.54127685  0.54745214  1
  Sc  Sc32  1  0.55835084  0.54331487  0.55299181  1
  Sc  Sc33  1  0.77625251  0.75732155  0.79311999  1
  Sc  Sc34  1  0.77589816  0.75728188  0.31372281  1
  Sc  Sc35  1  0.88912872  0.87325908  0.04871713  1
  N  N36  1  0.22287486  0.20530059  0.35459548  1
  N  N37  1  0.13568512  0.08024593  0.11274804  1
  N  N38  1  0.89178494  0.20303058  0.84131716  1
  N  N39  1  0.79573226  0.09086276  0.59199755  1
  N  N40  1  0.53107050  0.21658061  0.34793790  1
  N  N41  1  0.44275385  0.09859304  0.09266728  1
  N  N42  1  0.19771634  0.21291311  0.86198889  1
  N  N43  1  0.11348910  0.09334375  0.60253016  1
  N  N44  1  0.90477420  0.21407000  0.35294260  1
  N  N45  1  0.76340311  0.10455389  0.10607530  1
  N  N46  1  0.56931184  0.21210842  0.84924034  1
  N  N47  1  0.42898694  0.08759564  0.60527919  1
  N  N48  1  0.22352653  0.53637254  0.32882519  1
  N  N49  1  0.09660316  0.41650351  0.10762931  1
  N  N50  1  0.89393510  0.52204807  0.85781003  1
  N  N51  1  0.79582071  0.41770077  0.60850461  1
  N  N52  1  0.55639825  0.53843466  0.34252292  1
  N  N53  1  0.46368518  0.42148225  0.09829621  1
  N  N54  1  0.21681512  0.53959627  0.84229068  1
  N  N55  1  0.10353428  0.41529676  0.60857759  1
  N  N56  1  0.90084167  0.51693759  0.35874431  1
  N  N57  1  0.76739463  0.44474701  0.10698359  1
  N  N58  1  0.55710461  0.54059041  0.85046445  1
  N  N59  1  0.44050662  0.43322441  0.61738671  1
  N  N60  1  0.22633884  0.87047252  0.35818112  1
  N  N61  1  0.12309261  0.77392684  0.10915160  1
  N  N62  1  0.89570377  0.88145136  0.83892243  1
  N  N63  1  0.77419927  0.76168803  0.57652593  1
  N  N64  1  0.52878479  0.88615806  0.35168440  1
  N  N65  1  0.44411129  0.75945606  0.10377227  1
  N  N66  1  0.22144858  0.87380841  0.85506747  1
  N  N67  1  0.10831882  0.77849334  0.60658382  1
  N  N68  1  0.91395529  0.85978984  0.35738009  1
  N  N69  1  0.76969156  0.75246923  0.09791052  1
  N  N70  1  0.54696939  0.85962522  0.86437294  1
  N  N71  1  0.43230831  0.78067157  0.61070448  1
