# generated using pymatgen
data_Sc5Al13N18
_symmetry_space_group_name_H-M   'P 1'
_cell_length_a   10.32205293
_cell_length_b   10.27518991
_cell_length_c   8.85117480
_cell_angle_alpha   90.05763255
_cell_angle_beta   90.12340155
_cell_angle_gamma   59.74603935
_symmetry_Int_Tables_number   1
_chemical_formula_structural   Sc5Al13N18
_chemical_formula_sum   'Sc10 Al26 N36'
_cell_volume   810.90389941
_cell_formula_units_Z   2
loop_
 _symmetry_equiv_pos_site_id
 _symmetry_equiv_pos_as_xyz
  1  'x, y, z'
loop_
 _atom_site_type_symbol
 _atom_site_label
 _atom_site_symmetry_multiplicity
 _atom_site_fract_x
 _atom_site_fract_y
 _atom_site_fract_z
 _atom_site_occupancy
  Al  Al0  1  0.12026907  0.08952921  0.34063895  1
  Al  Al1  1  0.21755611  0.20376706  0.09455965  1
  Al  Al2  1  0.78302816  0.09949624  0.84520500  1
  Al  Al3  1  0.90090599  0.20373717  0.59658622  1
  Al  Al4  1  0.43342307  0.10017662  0.33857334  1
  Al  Al5  1  0.55464766  0.20864292  0.09963429  1
  Al  Al6  1  0.11270292  0.09255847  0.83477618  1
  Al  Al7  1  0.21710098  0.20138044  0.58366722  1
  Al  Al8  1  0.10761852  0.42049472  0.33965889  1
  Al  Al9  1  0.78060943  0.42335400  0.84042257  1
  Al  Al10  1  0.89356167  0.52582307  0.59224736  1
  Al  Al11  1  0.44323143  0.43031067  0.33978246  1
  Al  Al12  1  0.55678365  0.54285378  0.09613296  1
  Al  Al13  1  0.10575687  0.41966890  0.83902948  1
  Al  Al14  1  0.78095546  0.42814451  0.33985801  1
  Al  Al15  1  0.88522819  0.53468781  0.08631115  1
  Al  Al16  1  0.44890613  0.42994587  0.85093310  1
  Al  Al17  1  0.12115352  0.76262897  0.34116608  1
  Al  Al18  1  0.23146936  0.87236100  0.08477858  1
  Al  Al19  1  0.89776462  0.87506164  0.60230517  1
  Al  Al20  1  0.43658947  0.76455773  0.33621677  1
  Al  Al21  1  0.54906525  0.86853989  0.09846767  1
  Al  Al22  1  0.11569718  0.76790785  0.84046629  1
  Al  Al23  1  0.22123174  0.87883046  0.58927841  1
  Al  Al24  1  0.43899141  0.76277529  0.84099831  1
  Al  Al25  1  0.54112565  0.87886116  0.58286665  1
  Sc  Sc26  1  0.77941977  0.09924725  0.35437739  1
  Sc  Sc27  1  0.89725841  0.20786787  0.09809721  1
  Sc  Sc28  1  0.43621598  0.09638737  0.85647472  1
  Sc  Sc29  1  0.55358265  0.20292520  0.60238601  1
  Sc  Sc30  1  0.22186488  0.53485474  0.09829679  1
  Sc  Sc31  1  0.21371184  0.54129728  0.60031291  1
  Sc  Sc32  1  0.55844811  0.54374574  0.59830578  1
  Sc  Sc33  1  0.77382865  0.75904118  0.84591264  1
  Sc  Sc34  1  0.77670899  0.75654976  0.35366282  1
  Sc  Sc35  1  0.89380706  0.87092588  0.09782809  1
  N  N36  1  0.22039380  0.20508812  0.36092706  1
  N  N37  1  0.13379122  0.08013636  0.11918518  1
  N  N38  1  0.89452816  0.20359257  0.85106168  1
  N  N39  1  0.79432692  0.09207832  0.60828931  1
  N  N40  1  0.53691832  0.21412355  0.34978043  1
  N  N41  1  0.44036534  0.09891323  0.11201196  1
  N  N42  1  0.20259074  0.21076863  0.87081371  1
  N  N43  1  0.11445494  0.09280432  0.61173751  1
  N  N44  1  0.90348902  0.21249141  0.36049231  1
  N  N45  1  0.76581460  0.10416835  0.10406939  1
  N  N46  1  0.56483564  0.21166500  0.86028115  1
  N  N47  1  0.42995163  0.08996116  0.60581493  1
  N  N48  1  0.22129472  0.53770761  0.35210473  1
  N  N49  1  0.09728583  0.41862573  0.11667602  1
  N  N50  1  0.89454686  0.52186730  0.86061998  1
  N  N51  1  0.79319091  0.41678172  0.61493543  1
  N  N52  1  0.55618808  0.53957204  0.35011191  1
  N  N53  1  0.45935105  0.42406166  0.10565256  1
  N  N54  1  0.21815504  0.53765144  0.85417465  1
  N  N55  1  0.10458103  0.41330391  0.61434659  1
  N  N56  1  0.89691260  0.52128509  0.36964086  1
  N  N57  1  0.76844851  0.44417870  0.11254008  1
  N  N58  1  0.55662829  0.54137185  0.86246501  1
  N  N59  1  0.44265025  0.43174581  0.61412462  1
  N  N60  1  0.22437356  0.87206960  0.36839290  1
  N  N61  1  0.12690594  0.76935737  0.11152256  1
  N  N62  1  0.89773733  0.87993603  0.84748913  1
  N  N63  1  0.77155804  0.76359520  0.60242189  1
  N  N64  1  0.53368340  0.88259102  0.35544906  1
  N  N65  1  0.44251801  0.75958051  0.11485147  1
  N  N66  1  0.22377999  0.87439272  0.86251730  1
  N  N67  1  0.10990186  0.77820520  0.61495063  1
  N  N68  1  0.90947941  0.86145910  0.36146290  1
  N  N69  1  0.77083508  0.75220433  0.10490289  1
  N  N70  1  0.54263207  0.86443607  0.87283090  1
  N  N71  1  0.43302820  0.77957717  0.61520725  1
