# generated using pymatgen
data_Sc5Al13N18
_symmetry_space_group_name_H-M   'P 1'
_cell_length_a   9.86739377
_cell_length_b   9.81762085
_cell_length_c   10.13273783
_cell_angle_alpha   90.02642158
_cell_angle_beta   90.08767516
_cell_angle_gamma   59.83669303
_symmetry_Int_Tables_number   1
_chemical_formula_structural   Sc5Al13N18
_chemical_formula_sum   'Sc10 Al26 N36'
_cell_volume   848.68903731
_cell_formula_units_Z   2
loop_
 _symmetry_equiv_pos_site_id
 _symmetry_equiv_pos_as_xyz
  1  'x, y, z'
loop_
 _atom_site_type_symbol
 _atom_site_label
 _atom_site_symmetry_multiplicity
 _atom_site_fract_x
 _atom_site_fract_y
 _atom_site_fract_z
 _atom_site_occupancy
  Al  Al0  1  0.12223695  0.09025082  0.31444690  1
  Al  Al1  1  0.21756294  0.20351674  0.06382548  1
  Al  Al2  1  0.78611534  0.09772093  0.80210302  1
  Al  Al3  1  0.90183451  0.20545265  0.56042950  1
  Al  Al4  1  0.43328112  0.10124267  0.30510193  1
  Al  Al5  1  0.55901589  0.20830146  0.05789605  1
  Al  Al6  1  0.10878415  0.09376568  0.80723912  1
  Al  Al7  1  0.21791319  0.20152420  0.56005540  1
  Al  Al8  1  0.10992322  0.41884227  0.30913075  1
  Al  Al9  1  0.78270774  0.42150715  0.81095702  1
  Al  Al10  1  0.89478509  0.52614287  0.55940174  1
  Al  Al11  1  0.44644001  0.42793333  0.30226439  1
  Al  Al12  1  0.55795624  0.54279586  0.06014807  1
  Al  Al13  1  0.10504479  0.42291603  0.81245317  1
  Al  Al14  1  0.78004599  0.42915754  0.30911250  1
  Al  Al15  1  0.88353203  0.53584952  0.06123036  1
  Al  Al16  1  0.44472872  0.43266333  0.81752917  1
  Al  Al17  1  0.12170889  0.76268784  0.31000434  1
  Al  Al18  1  0.23124799  0.87263217  0.06057418  1
  Al  Al19  1  0.89865285  0.87213969  0.56068551  1
  Al  Al20  1  0.43852548  0.76286458  0.30736168  1
  Al  Al21  1  0.55237336  0.86656535  0.06543625  1
  Al  Al22  1  0.11372546  0.76621423  0.80880624  1
  Al  Al23  1  0.22069930  0.87892012  0.56239416  1
  Al  Al24  1  0.43795644  0.76313302  0.81378440  1
  Al  Al25  1  0.53899803  0.88019811  0.55586501  1
  Sc  Sc26  1  0.77656791  0.10043142  0.32704552  1
  Sc  Sc27  1  0.89599363  0.20655099  0.06642563  1
  Sc  Sc28  1  0.43588286  0.09649152  0.82884835  1
  Sc  Sc29  1  0.55015650  0.20320696  0.57141625  1
  Sc  Sc30  1  0.22197113  0.53575630  0.07305187  1
  Sc  Sc31  1  0.21471114  0.54132182  0.56221009  1
  Sc  Sc32  1  0.55840305  0.54330018  0.56792310  1
  Sc  Sc33  1  0.77627109  0.75735934  0.80798611  1
  Sc  Sc34  1  0.77582032  0.75724344  0.32860154  1
  Sc  Sc35  1  0.88905626  0.87333232  0.06373892  1
  N  N36  1  0.22286625  0.20528292  0.36928118  1
  N  N37  1  0.13578274  0.08016202  0.12738246  1
  N  N38  1  0.89184266  0.20297659  0.85620863  1
  N  N39  1  0.79576848  0.09084868  0.60651233  1
  N  N40  1  0.53087826  0.21669778  0.36284525  1
  N  N41  1  0.44272606  0.09865928  0.10721558  1
  N  N42  1  0.19769282  0.21293925  0.87661567  1
  N  N43  1  0.11346685  0.09332659  0.61719006  1
  N  N44  1  0.90479667  0.21404390  0.36740234  1
  N  N45  1  0.76324287  0.10461865  0.12099129  1
  N  N46  1  0.56937890  0.21212808  0.86376898  1
  N  N47  1  0.42892511  0.08757866  0.62014891  1
  N  N48  1  0.22346370  0.53640227  0.34342236  1
  N  N49  1  0.09652034  0.41647895  0.12229886  1
  N  N50  1  0.89395441  0.52205192  0.87243134  1
  N  N51  1  0.79591977  0.41753955  0.62319172  1
  N  N52  1  0.55638664  0.53845176  0.35731172  1
  N  N53  1  0.46366362  0.42150968  0.11295656  1
  N  N54  1  0.21678866  0.53960759  0.85701891  1
  N  N55  1  0.10355750  0.41526208  0.62321842  1
  N  N56  1  0.90079960  0.51691299  0.37343381  1
  N  N57  1  0.76731195  0.44479509  0.12160933  1
  N  N58  1  0.55712660  0.54060076  0.86503433  1
  N  N59  1  0.44038443  0.43334445  0.63205113  1
  N  N60  1  0.22631294  0.87045961  0.37285790  1
  N  N61  1  0.12310394  0.77393356  0.12374590  1
  N  N62  1  0.89570198  0.88151753  0.85375437  1
  N  N63  1  0.77416929  0.76167736  0.59120996  1
  N  N64  1  0.52870103  0.88626215  0.36632577  1
  N  N65  1  0.44410695  0.75941163  0.11846426  1
  N  N66  1  0.22149462  0.87379910  0.86969080  1
  N  N67  1  0.10824249  0.77851713  0.62128499  1
  N  N68  1  0.91392275  0.85974966  0.37192122  1
  N  N69  1  0.76966767  0.75242239  0.11261011  1
  N  N70  1  0.54700190  0.85955366  0.87906619  1
  N  N71  1  0.43225278  0.78070047  0.62531492  1
