# generated using pymatgen
data_Sc5Al13N18
_symmetry_space_group_name_H-M   'P 1'
_cell_length_a   10.19921239
_cell_length_b   10.14561100
_cell_length_c   9.21837970
_cell_angle_alpha   90.05541271
_cell_angle_beta   90.13496113
_cell_angle_gamma   59.76617940
_symmetry_Int_Tables_number   1
_chemical_formula_structural   Sc5Al13N18
_chemical_formula_sum   'Sc10 Al26 N36'
_cell_volume   824.13956395
_cell_formula_units_Z   2
loop_
 _symmetry_equiv_pos_site_id
 _symmetry_equiv_pos_as_xyz
  1  'x, y, z'
loop_
 _atom_site_type_symbol
 _atom_site_label
 _atom_site_symmetry_multiplicity
 _atom_site_fract_x
 _atom_site_fract_y
 _atom_site_fract_z
 _atom_site_occupancy
  Al  Al0  1  0.12290954  0.08854689  0.33376759  1
  Al  Al1  1  0.21556407  0.20467800  0.08585917  1
  Al  Al2  1  0.78661945  0.09834597  0.83093367  1
  Al  Al3  1  0.90252309  0.20448422  0.58210784  1
  Al  Al4  1  0.43319452  0.10218487  0.32653094  1
  Al  Al5  1  0.55744462  0.20836243  0.08461053  1
  Al  Al6  1  0.11016989  0.09378144  0.82760927  1
  Al  Al7  1  0.21838405  0.20064151  0.57790620  1
  Al  Al8  1  0.10807808  0.41994837  0.33249458  1
  Al  Al9  1  0.78348733  0.42030848  0.83233118  1
  Al  Al10  1  0.89406156  0.52527981  0.58420916  1
  Al  Al11  1  0.44488877  0.42916533  0.32659618  1
  Al  Al12  1  0.55725845  0.54342822  0.08237331  1
  Al  Al13  1  0.10495035  0.41997926  0.83133564  1
  Al  Al14  1  0.77873297  0.43057730  0.33085453  1
  Al  Al15  1  0.88462456  0.53445943  0.07907625  1
  Al  Al16  1  0.44742329  0.43103279  0.84164108  1
  Al  Al17  1  0.12299150  0.76175768  0.33214971  1
  Al  Al18  1  0.23223892  0.87208962  0.07778018  1
  Al  Al19  1  0.89821710  0.87301800  0.59023170  1
  Al  Al20  1  0.43707642  0.76284120  0.32927722  1
  Al  Al21  1  0.55033599  0.86644126  0.09120431  1
  Al  Al22  1  0.11382746  0.76888637  0.83224974  1
  Al  Al23  1  0.22094934  0.87907819  0.58260694  1
  Al  Al24  1  0.43810189  0.76448281  0.83228512  1
  Al  Al25  1  0.53890676  0.88109317  0.57502110  1
  Sc  Sc26  1  0.77627453  0.10058348  0.35314118  1
  Sc  Sc27  1  0.89675036  0.20697064  0.09673764  1
  Sc  Sc28  1  0.43549580  0.09569713  0.85465923  1
  Sc  Sc29  1  0.55120555  0.20303883  0.60026084  1
  Sc  Sc30  1  0.22113759  0.53505977  0.09433948  1
  Sc  Sc31  1  0.21411820  0.54119167  0.59575277  1
  Sc  Sc32  1  0.55858145  0.54328366  0.59550792  1
  Sc  Sc33  1  0.77449470  0.75960808  0.84192644  1
  Sc  Sc34  1  0.77634963  0.75625693  0.35102029  1
  Sc  Sc35  1  0.89266386  0.87247204  0.09531488  1
  N  N36  1  0.22202292  0.20472568  0.36907833  1
  N  N37  1  0.13622017  0.07865066  0.12777979  1
  N  N38  1  0.89418220  0.20279295  0.86200392  1
  N  N39  1  0.79591320  0.09172456  0.60876823  1
  N  N40  1  0.53307015  0.21589988  0.36270977  1
  N  N41  1  0.44058251  0.10042791  0.11191324  1
  N  N42  1  0.19958708  0.21184784  0.87865984  1
  N  N43  1  0.11400295  0.09321427  0.61844042  1
  N  N44  1  0.90443624  0.21338972  0.36380276  1
  N  N45  1  0.76410066  0.10492954  0.11943461  1
  N  N46  1  0.56842978  0.21032739  0.86392036  1
  N  N47  1  0.42870543  0.08900836  0.62015231  1
  N  N48  1  0.22290769  0.53661015  0.35332263  1
  N  N49  1  0.09592335  0.41815000  0.12473437  1
  N  N50  1  0.89444602  0.52129003  0.86957015  1
  N  N51  1  0.79537040  0.41528409  0.62369287  1
  N  N52  1  0.55567885  0.53881501  0.36122698  1
  N  N53  1  0.46093644  0.42346529  0.11154167  1
  N  N54  1  0.21588572  0.53909278  0.85715713  1
  N  N55  1  0.10424927  0.41263636  0.62249251  1
  N  N56  1  0.89787896  0.51966123  0.37714771  1
  N  N57  1  0.76677522  0.44593267  0.12167203  1
  N  N58  1  0.55754352  0.54159480  0.86556550  1
  N  N59  1  0.44182286  0.43237186  0.63127877  1
  N  N60  1  0.22542168  0.87127192  0.37592826  1
  N  N61  1  0.12773053  0.76998480  0.12157024  1
  N  N62  1  0.89716331  0.88161290  0.85633934  1
  N  N63  1  0.77235474  0.76355306  0.60282699  1
  N  N64  1  0.53120124  0.88500011  0.36258717  1
  N  N65  1  0.44303055  0.75846345  0.12208352  1
  N  N66  1  0.22306049  0.87449886  0.86979894  1
  N  N67  1  0.10896917  0.77941544  0.62274351  1
  N  N68  1  0.91131352  0.86002512  0.36653879  1
  N  N69  1  0.77073670  0.75196020  0.10897706  1
  N  N70  1  0.54326602  0.86240912  0.88242216  1
  N  N71  1  0.43239581  0.78119293  0.62391034  1
