# generated using pymatgen
data_Sc5Al13N18
_symmetry_space_group_name_H-M   'P 1'
_cell_length_a   10.35907962
_cell_length_b   10.31356591
_cell_length_c   8.74555590
_cell_angle_alpha   90.05288727
_cell_angle_beta   90.11197019
_cell_angle_gamma   59.73832110
_symmetry_Int_Tables_number   1
_chemical_formula_structural   Sc5Al13N18
_chemical_formula_sum   'Sc10 Al26 N36'
_cell_volume   807.04178532
_cell_formula_units_Z   2
loop_
 _symmetry_equiv_pos_site_id
 _symmetry_equiv_pos_as_xyz
  1  'x, y, z'
loop_
 _atom_site_type_symbol
 _atom_site_label
 _atom_site_symmetry_multiplicity
 _atom_site_fract_x
 _atom_site_fract_y
 _atom_site_fract_z
 _atom_site_occupancy
  Al  Al0  1  0.11941190  0.09014678  0.34371563  1
  Al  Al1  1  0.21838166  0.20346306  0.09797891  1
  Al  Al2  1  0.78238765  0.09966812  0.84762697  1
  Al  Al3  1  0.90063405  0.20361841  0.60021845  1
  Al  Al4  1  0.43357370  0.09942272  0.34270391  1
  Al  Al5  1  0.55411871  0.20878236  0.10255186  1
  Al  Al6  1  0.11336106  0.09204195  0.83873113  1
  Al  Al7  1  0.21664885  0.20160943  0.58758782  1
  Al  Al8  1  0.10777275  0.42045027  0.34322241  1
  Al  Al9  1  0.77988176  0.42435233  0.84436561  1
  Al  Al10  1  0.89340470  0.52618192  0.59532782  1
  Al  Al11  1  0.44289380  0.43039194  0.34588439  1
  Al  Al12  1  0.55677360  0.54256065  0.10043892  1
  Al  Al13  1  0.10580883  0.41988485  0.84315065  1
  Al  Al14  1  0.78143618  0.42730028  0.34439457  1
  Al  Al15  1  0.88529185  0.53477412  0.09105050  1
  Al  Al16  1  0.44925603  0.42970119  0.85555470  1
  Al  Al17  1  0.12035735  0.76287214  0.34569626  1
  Al  Al18  1  0.23111609  0.87237997  0.08941676  1
  Al  Al19  1  0.89790542  0.87541791  0.60400118  1
  Al  Al20  1  0.43685842  0.76507251  0.34022424  1
  Al  Al21  1  0.54872755  0.86926057  0.10086024  1
  Al  Al22  1  0.11626846  0.76771342  0.84410443  1
  Al  Al23  1  0.22127794  0.87886047  0.59243329  1
  Al  Al24  1  0.43902424  0.76206280  0.84572853  1
  Al  Al25  1  0.54179765  0.87808104  0.58757159  1
  Sc  Sc26  1  0.77979207  0.09914540  0.35449334  1
  Sc  Sc27  1  0.89705060  0.20820115  0.09849602  1
  Sc  Sc28  1  0.43646890  0.09663077  0.85675841  1
  Sc  Sc29  1  0.55406997  0.20300835  0.60261295  1
  Sc  Sc30  1  0.22217506  0.53486863  0.09986667  1
  Sc  Sc31  1  0.21368727  0.54119434  0.60154186  1
  Sc  Sc32  1  0.55838817  0.54384150  0.59935727  1
  Sc  Sc33  1  0.77418555  0.75857059  0.84680192  1
  Sc  Sc34  1  0.77625660  0.75697354  0.35431613  1
  Sc  Sc35  1  0.89395416  0.87071048  0.09826455  1
  N  N36  1  0.22000286  0.20504259  0.35788195  1
  N  N37  1  0.13290868  0.08099771  0.11471576  1
  N  N38  1  0.89448588  0.20399465  0.84819894  1
  N  N39  1  0.79391387  0.09215917  0.60849503  1
  N  N40  1  0.53778115  0.21349841  0.34705512  1
  N  N41  1  0.44046591  0.09834303  0.11166636  1
  N  N42  1  0.20366801  0.21047369  0.86606624  1
  N  N43  1  0.11436278  0.09261806  0.60894490  1
  N  N44  1  0.90318234  0.21210758  0.35936738  1
  N  N45  1  0.76599488  0.10405291  0.10060119  1
  N  N46  1  0.56383110  0.21230677  0.85929186  1
  N  N47  1  0.43032624  0.09017937  0.60143957  1
  N  N48  1  0.22038623  0.53831649  0.35180296  1
  N  N49  1  0.09800940  0.41854330  0.11270604  1
  N  N50  1  0.89459302  0.52205502  0.85703678  1
  N  N51  1  0.79274486  0.41717309  0.61086778  1
  N  N52  1  0.55665480  0.53977206  0.34691793  1
  N  N53  1  0.45908265  0.42411942  0.10380725  1
  N  N54  1  0.21948823  0.53684903  0.85353962  1
  N  N55  1  0.10446432  0.41389543  0.61030457  1
  N  N56  1  0.89651441  0.52179515  0.36505919  1
  N  N57  1  0.76871407  0.44363583  0.10817314  1
  N  N58  1  0.55607415  0.54115650  0.86117552  1
  N  N59  1  0.44285883  0.43157840  0.60558199  1
  N  N60  1  0.22387017  0.87246206  0.36406278  1
  N  N61  1  0.12638440  0.76919339  0.10708839  1
  N  N62  1  0.89809491  0.87940832  0.84558210  1
  N  N63  1  0.77184509  0.76313944  0.60221793  1
  N  N64  1  0.53441028  0.88203846  0.35324039  1
  N  N65  1  0.44268598  0.75987285  0.11147331  1
  N  N66  1  0.22411538  0.87419837  0.85933747  1
  N  N67  1  0.11017372  0.77781811  0.61142905  1
  N  N68  1  0.90871549  0.86205359  0.36059076  1
  N  N69  1  0.77052932  0.75256678  0.10383959  1
  N  N70  1  0.54257811  0.86479821  0.86728465  1
  N  N71  1  0.43303584  0.77885680  0.61036704  1
