# generated using pymatgen
data_Sc5Al13N18
_symmetry_space_group_name_H-M   'P 1'
_cell_length_a   9.86768735
_cell_length_b   9.81777931
_cell_length_c   10.13297854
_cell_angle_alpha   89.92460292
_cell_angle_beta   89.91245397
_cell_angle_gamma   59.84091385
_symmetry_Int_Tables_number   1
_chemical_formula_structural   Sc5Al13N18
_chemical_formula_sum   'Sc10 Al26 N36'
_cell_volume   848.78436879
_cell_formula_units_Z   2
loop_
 _symmetry_equiv_pos_site_id
 _symmetry_equiv_pos_as_xyz
  1  'x, y, z'
loop_
 _atom_site_type_symbol
 _atom_site_label
 _atom_site_symmetry_multiplicity
 _atom_site_fract_x
 _atom_site_fract_y
 _atom_site_fract_z
 _atom_site_occupancy
  Al  Al0  1  0.11490146  0.09416433  0.40674044  1
  Al  Al1  1  0.22393641  0.20015103  0.15864998  1
  Al  Al2  1  0.77717071  0.10261075  0.90525794  1
  Al  Al3  1  0.89950047  0.20231565  0.66025591  1
  Al  Al4  1  0.43257694  0.09690297  0.40214052  1
  Al  Al5  1  0.55080796  0.20777201  0.15966750  1
  Al  Al6  1  0.11765844  0.08919537  0.90098923  1
  Al  Al7  1  0.21336048  0.20365950  0.64993841  1
  Al  Al8  1  0.11034454  0.42200189  0.40247206  1
  Al  Al9  1  0.77414947  0.42965073  0.90584947  1
  Al  Al10  1  0.89509166  0.52586908  0.65511913  1
  Al  Al11  1  0.43921870  0.43250518  0.39856979  1
  Al  Al12  1  0.55768522  0.54280578  0.15661230  1
  Al  Al13  1  0.10422942  0.41935937  0.90701671  1
  Al  Al14  1  0.78715454  0.42265614  0.40392923  1
  Al  Al15  1  0.88238406  0.53617355  0.15462860  1
  Al  Al16  1  0.45195564  0.42773414  0.91389575  1
  Al  Al17  1  0.11642711  0.76236321  0.40650606  1
  Al  Al18  1  0.23171011  0.87236401  0.15531078  1
  Al  Al19  1  0.89686191  0.87721785  0.66253300  1
  Al  Al20  1  0.43692298  0.76756786  0.40080289  1
  Al  Al21  1  0.54877647  0.87283539  0.15728591  1
  Al  Al22  1  0.11933487  0.76574216  0.90433322  1
  Al  Al23  1  0.22034755  0.87900634  0.65227629  1
  Al  Al24  1  0.43874984  0.75915349  0.90939777  1
  Al  Al25  1  0.54177045  0.87598945  0.65323219  1
  Sc  Sc26  1  0.78416241  0.09710527  0.39834124  1
  Sc  Sc27  1  0.89844170  0.20862705  0.13833574  1
  Sc  Sc28  1  0.43680477  0.09971295  0.90245598  1
  Sc  Sc29  1  0.55819635  0.20190793  0.64487662  1
  Sc  Sc30  1  0.22177499  0.53571093  0.14259157  1
  Sc  Sc31  1  0.21547572  0.54000193  0.65252842  1
  Sc  Sc32  1  0.55826378  0.54389016  0.64670737  1
  Sc  Sc33  1  0.77498675  0.75639098  0.88667928  1
  Sc  Sc34  1  0.77659748  0.75848844  0.40535708  1
  Sc  Sc35  1  0.89085120  0.86935762  0.13987818  1
  N  N36  1  0.21948244  0.20496447  0.34778835  1
  N  N37  1  0.14101570  0.07944162  0.08814149  1
  N  N38  1  0.89246642  0.20592023  0.85800746  1
  N  N39  1  0.79928728  0.08864593  0.60752236  1
  N  N40  1  0.53746062  0.21241229  0.35195439  1
  N  N41  1  0.44278172  0.09762409  0.11149259  1
  N  N42  1  0.20376627  0.21261423  0.83759043  1
  N  N43  1  0.11053685  0.09337008  0.59742059  1
  N  N44  1  0.90464096  0.21189027  0.34637228  1
  N  N45  1  0.75898253  0.10728554  0.09683482  1
  N  N46  1  0.56321764  0.21581011  0.85278528  1
  N  N47  1  0.42983186  0.08900788  0.59505591  1
  N  N48  1  0.21810968  0.54057726  0.35888317  1
  N  N49  1  0.09687179  0.41370230  0.09518580  1
  N  N50  1  0.89662584  0.51625945  0.84157257  1
  N  N51  1  0.79723377  0.41464060  0.59342413  1
  N  N52  1  0.55891267  0.53970420  0.35136603  1
  N  N53  1  0.46279467  0.42155591  0.10331984  1
  N  N54  1  0.22217809  0.53429993  0.87118336  1
  N  N55  1  0.10257651  0.41715059  0.59030258  1
  N  N56  1  0.89732935  0.52273460  0.34315841  1
  N  N57  1  0.76481344  0.44783341  0.09239214  1
  N  N58  1  0.55319529  0.54041614  0.85772802  1
  N  N59  1  0.44189743  0.43210647  0.58406603  1
  N  N60  1  0.22121894  0.87391155  0.34591727  1
  N  N61  1  0.12722936  0.77189490  0.08910712  1
  N  N62  1  0.90053179  0.88194137  0.85545392  1
  N  N63  1  0.77829015  0.76217850  0.62377126  1
  N  N64  1  0.53647815  0.88164866  0.34546131  1
  N  N65  1  0.44514385  0.76069521  0.10019396  1
  N  N66  1  0.22571441  0.87056650  0.84201855  1
  N  N67  1  0.10574240  0.77897496  0.59681451  1
  N  N68  1  0.90791770  0.86049181  0.34751776  1
  N  N69  1  0.76462255  0.75289588  0.10351663  1
  N  N70  1  0.53673182  0.86597083  0.83962715  1
  N  N71  1  0.43079461  0.78045239  0.58747629  1
