# generated using pymatgen
data_Sc5Al13N18
_symmetry_space_group_name_H-M   'P 1'
_cell_length_a   10.05923905
_cell_length_b   9.99832394
_cell_length_c   9.63204178
_cell_angle_alpha   89.96515336
_cell_angle_beta   89.98637697
_cell_angle_gamma   59.77980549
_symmetry_Int_Tables_number   1
_chemical_formula_structural   Sc5Al13N18
_chemical_formula_sum   'Sc10 Al26 N36'
_cell_volume   837.09227337
_cell_formula_units_Z   2
loop_
 _symmetry_equiv_pos_site_id
 _symmetry_equiv_pos_as_xyz
  1  'x, y, z'
loop_
 _atom_site_type_symbol
 _atom_site_label
 _atom_site_symmetry_multiplicity
 _atom_site_fract_x
 _atom_site_fract_y
 _atom_site_fract_z
 _atom_site_occupancy
  Al  Al0  1  0.11429715  0.09417238  0.37971693  1
  Al  Al1  1  0.22469507  0.19936594  0.13117632  1
  Al  Al2  1  0.77568617  0.10406628  0.87857035  1
  Al  Al3  1  0.90012334  0.20052989  0.63449391  1
  Al  Al4  1  0.43075138  0.09703733  0.37879753  1
  Al  Al5  1  0.54879076  0.20730227  0.13289416  1
  Al  Al6  1  0.12006276  0.08743898  0.87578005  1
  Al  Al7  1  0.21089208  0.20427542  0.62476134  1
  Al  Al8  1  0.10943138  0.42060737  0.37449332  1
  Al  Al9  1  0.77223013  0.43214069  0.87620370  1
  Al  Al10  1  0.89550405  0.52511754  0.62632766  1
  Al  Al11  1  0.43836973  0.43249341  0.36983000  1
  Al  Al12  1  0.55843509  0.54274354  0.13260669  1
  Al  Al13  1  0.10353713  0.41923112  0.88101263  1
  Al  Al14  1  0.78953856  0.42012431  0.37899860  1
  Al  Al15  1  0.88223929  0.53545653  0.12923944  1
  Al  Al16  1  0.45366360  0.42734249  0.88495579  1
  Al  Al17  1  0.11592113  0.76369432  0.38020626  1
  Al  Al18  1  0.23150183  0.87207132  0.12995995  1
  Al  Al19  1  0.89621154  0.87849979  0.63374495  1
  Al  Al20  1  0.43551015  0.77022454  0.37312135  1
  Al  Al21  1  0.54668503  0.87503222  0.12868944  1
  Al  Al22  1  0.12148278  0.76529835  0.87415799  1
  Al  Al23  1  0.22085674  0.87943145  0.62585427  1
  Al  Al24  1  0.43954549  0.75751762  0.88339708  1
  Al  Al25  1  0.54194931  0.87451290  0.62603464  1
  Sc  Sc26  1  0.78588631  0.09644768  0.36004341  1
  Sc  Sc27  1  0.89876259  0.21075733  0.10516296  1
  Sc  Sc28  1  0.43757046  0.10029282  0.86469741  1
  Sc  Sc29  1  0.56041547  0.20205669  0.60886093  1
  Sc  Sc30  1  0.22191444  0.53576312  0.11187041  1
  Sc  Sc31  1  0.21459761  0.53925561  0.61852028  1
  Sc  Sc32  1  0.55777158  0.54432822  0.61087268  1
  Sc  Sc33  1  0.77467704  0.75585592  0.85735916  1
  Sc  Sc34  1  0.77589562  0.76025388  0.36827182  1
  Sc  Sc35  1  0.89403784  0.86826969  0.10505939  1
  N  N36  1  0.22010097  0.20372441  0.32928603  1
  N  N37  1  0.14111798  0.07862483  0.07123225  1
  N  N38  1  0.89313522  0.20519524  0.84221065  1
  N  N39  1  0.80087603  0.08855494  0.58457433  1
  N  N40  1  0.53622297  0.21097593  0.33749095  1
  N  N41  1  0.44171005  0.09879766  0.08649670  1
  N  N42  1  0.20195579  0.21284740  0.82097460  1
  N  N43  1  0.11034107  0.09312354  0.57891285  1
  N  N44  1  0.90610996  0.21215526  0.32457715  1
  N  N45  1  0.75925381  0.10794091  0.08599872  1
  N  N46  1  0.56507668  0.21613096  0.83109765  1
  N  N47  1  0.42873681  0.08991930  0.58374877  1
  N  N48  1  0.21693260  0.54084084  0.34137662  1
  N  N49  1  0.09648155  0.41433425  0.07864106  1
  N  N50  1  0.89621986  0.51769499  0.82277441  1
  N  N51  1  0.79822438  0.41231086  0.57747762  1
  N  N52  1  0.55992621  0.53982886  0.33631574  1
  N  N53  1  0.46296515  0.42188816  0.08710786  1
  N  N54  1  0.22282265  0.53297800  0.84984131  1
  N  N55  1  0.10240483  0.41521649  0.57129154  1
  N  N56  1  0.89679588  0.52181838  0.32697301  1
  N  N57  1  0.76348808  0.44977082  0.07275523  1
  N  N58  1  0.55257965  0.54094184  0.83424045  1
  N  N59  1  0.44114553  0.43257469  0.56575709  1
  N  N60  1  0.22052379  0.87413202  0.32793303  1
  N  N61  1  0.13023212  0.76989342  0.06929825  1
  N  N62  1  0.89932714  0.88236304  0.84001004  1
  N  N63  1  0.77799242  0.76284012  0.60044186  1
  N  N64  1  0.53345087  0.88483155  0.32702055  1
  N  N65  1  0.44501021  0.75997719  0.08319984  1
  N  N66  1  0.22728078  0.87093528  0.82305505  1
  N  N67  1  0.10591858  0.77982733  0.58092333  1
  N  N68  1  0.91028765  0.85959450  0.32593990  1
  N  N69  1  0.76492877  0.75361161  0.09040143  1
  N  N70  1  0.53891678  0.86306660  0.82322941  1
  N  N71  1  0.42940948  0.78201639  0.56824616  1
