# generated using pymatgen
data_Sc5Al13N18
_symmetry_space_group_name_H-M   'P 1'
_cell_length_a   10.00579287
_cell_length_b   9.94507133
_cell_length_c   9.77915082
_cell_angle_alpha   90.03433143
_cell_angle_beta   90.11388675
_cell_angle_gamma   59.80023534
_symmetry_Int_Tables_number   1
_chemical_formula_structural   Sc5Al13N18
_chemical_formula_sum   'Sc10 Al26 N36'
_cell_volume   841.03203797
_cell_formula_units_Z   2
loop_
 _symmetry_equiv_pos_site_id
 _symmetry_equiv_pos_as_xyz
  1  'x, y, z'
loop_
 _atom_site_type_symbol
 _atom_site_label
 _atom_site_symmetry_multiplicity
 _atom_site_fract_x
 _atom_site_fract_y
 _atom_site_fract_z
 _atom_site_occupancy
  Al  Al0  1  0.12433272  0.08873820  0.32762376  1
  Al  Al1  1  0.21536306  0.20479195  0.07789945  1
  Al  Al2  1  0.78923996  0.09699408  0.81746886  1
  Al  Al3  1  0.90371814  0.20525251  0.57146678  1
  Al  Al4  1  0.43303239  0.10266713  0.31835363  1
  Al  Al5  1  0.55979614  0.20879840  0.07146601  1
  Al  Al6  1  0.10824791  0.09425860  0.82211276  1
  Al  Al7  1  0.21870171  0.20051612  0.57418745  1
  Al  Al8  1  0.10899906  0.41901099  0.32509401  1
  Al  Al9  1  0.78494693  0.41916185  0.82597882  1
  Al  Al10  1  0.89475073  0.52537906  0.57540445  1
  Al  Al11  1  0.44613091  0.42773565  0.31905653  1
  Al  Al12  1  0.55754520  0.54321572  0.07282820  1
  Al  Al13  1  0.10441949  0.42165875  0.82577155  1
  Al  Al14  1  0.77795820  0.43126950  0.32361180  1
  Al  Al15  1  0.88359833  0.53515021  0.07456262  1
  Al  Al16  1  0.44526332  0.43263793  0.83262593  1
  Al  Al17  1  0.12357237  0.76146268  0.32465481  1
  Al  Al18  1  0.23255903  0.87184450  0.07336363  1
  Al  Al19  1  0.89949583  0.87117513  0.57427921  1
  Al  Al20  1  0.43822237  0.76224354  0.32295845  1
  Al  Al21  1  0.55185389  0.86535546  0.08127501  1
  Al  Al22  1  0.11260028  0.76856241  0.82494452  1
  Al  Al23  1  0.22039771  0.87930282  0.57655670  1
  Al  Al24  1  0.43736431  0.76448297  0.82633398  1
  Al  Al25  1  0.53753069  0.88190707  0.57035309  1
  Sc  Sc26  1  0.77378313  0.10203109  0.34837317  1
  Sc  Sc27  1  0.89574404  0.20623542  0.08978078  1
  Sc  Sc28  1  0.43526144  0.09588374  0.84916740  1
  Sc  Sc29  1  0.54976855  0.20254371  0.59365520  1
  Sc  Sc30  1  0.22177572  0.53496427  0.08880783  1
  Sc  Sc31  1  0.21422664  0.54133950  0.58390409  1
  Sc  Sc32  1  0.55925600  0.54296727  0.58806839  1
  Sc  Sc33  1  0.77649383  0.75929140  0.83011649  1
  Sc  Sc34  1  0.77484004  0.75677678  0.34492980  1
  Sc  Sc35  1  0.89039428  0.87409630  0.08717487  1
  N  N36  1  0.22308054  0.20463591  0.37775352  1
  N  N37  1  0.13766327  0.07850409  0.13527658  1
  N  N38  1  0.89298171  0.20234480  0.87042803  1
  N  N39  1  0.79739444  0.09068481  0.61177569  1
  N  N40  1  0.52912539  0.21713925  0.37553741  1
  N  N41  1  0.44173109  0.10036331  0.11399872  1
  N  N42  1  0.19714180  0.21308049  0.88507144  1
  N  N43  1  0.11323359  0.09342692  0.62582399  1
  N  N44  1  0.90542411  0.21391782  0.37042448  1
  N  N45  1  0.76112235  0.10613280  0.13365139  1
  N  N46  1  0.57083145  0.21086593  0.86894406  1
  N  N47  1  0.42762680  0.08777293  0.63217360  1
  N  N48  1  0.22322309  0.53621928  0.35544586  1
  N  N49  1  0.09546537  0.41710636  0.13168256  1
  N  N50  1  0.89420408  0.52152751  0.87959689  1
  N  N51  1  0.79765809  0.41471830  0.63175154  1
  N  N52  1  0.55607225  0.53833766  0.36972005  1
  N  N53  1  0.46315059  0.42212726  0.12065372  1
  N  N54  1  0.21607805  0.53953199  0.86398026  1
  N  N55  1  0.10357487  0.41354019  0.63098547  1
  N  N56  1  0.89932478  0.51773411  0.38289046  1
  N  N57  1  0.76562139  0.44670721  0.12966033  1
  N  N58  1  0.55753116  0.54099332  0.87106522  1
  N  N59  1  0.44066552  0.43339074  0.64043874  1
  N  N60  1  0.22616193  0.87059280  0.38215347  1
  N  N61  1  0.12676907  0.77154258  0.13130250  1
  N  N62  1  0.89680076  0.88303537  0.86745215  1
  N  N63  1  0.77411888  0.76257282  0.60335694  1
  N  N64  1  0.52847725  0.88705593  0.37340948  1
  N  N65  1  0.44417391  0.75828345  0.12826370  1
  N  N66  1  0.22234208  0.87403367  0.87770461  1
  N  N67  1  0.10739872  0.78018393  0.63035703  1
  N  N68  1  0.91318490  0.85906464  0.37538951  1
  N  N69  1  0.76974770  0.75223218  0.11847721  1
  N  N70  1  0.54563093  0.85944221  0.88831330  1
  N  N71  1  0.43143311  0.78174008  0.63243071  1
