# generated using pymatgen
data_Sc5Al13N18
_symmetry_space_group_name_H-M   'P 1'
_cell_length_a   9.89632887
_cell_length_b   9.84156879
_cell_length_c   10.06449960
_cell_angle_alpha   90.02618092
_cell_angle_beta   90.09359381
_cell_angle_gamma   59.82806055
_symmetry_Int_Tables_number   1
_chemical_formula_structural   Sc5Al13N18
_chemical_formula_sum   'Sc10 Al26 N36'
_cell_volume   847.43343280
_cell_formula_units_Z   2
loop_
 _symmetry_equiv_pos_site_id
 _symmetry_equiv_pos_as_xyz
  1  'x, y, z'
loop_
 _atom_site_type_symbol
 _atom_site_label
 _atom_site_symmetry_multiplicity
 _atom_site_fract_x
 _atom_site_fract_y
 _atom_site_fract_z
 _atom_site_occupancy
  Al  Al0  1  0.12280107  0.08984955  0.32606424  1
  Al  Al1  1  0.21692643  0.20389345  0.07561633  1
  Al  Al2  1  0.78706761  0.09752024  0.81413451  1
  Al  Al3  1  0.90242882  0.20542816  0.57144702  1
  Al  Al4  1  0.43309282  0.10164470  0.31681435  1
  Al  Al5  1  0.55928331  0.20847601  0.06958117  1
  Al  Al6  1  0.10862058  0.09390057  0.81938640  1
  Al  Al7  1  0.21809695  0.20125217  0.57211495  1
  Al  Al8  1  0.10960063  0.41885270  0.32143437  1
  Al  Al9  1  0.78332753  0.42093772  0.82315312  1
  Al  Al10  1  0.89481745  0.52595411  0.57170280  1
  Al  Al11  1  0.44634697  0.42781487  0.31487200  1
  Al  Al12  1  0.55783296  0.54287672  0.07167272  1
  Al  Al13  1  0.10489588  0.42274962  0.82416157  1
  Al  Al14  1  0.77952614  0.42968575  0.32102049  1
  Al  Al15  1  0.88344938  0.53578365  0.07296103  1
  Al  Al16  1  0.44477508  0.43275622  0.82957136  1
  Al  Al17  1  0.12214565  0.76241912  0.32192834  1
  Al  Al18  1  0.23166954  0.87238680  0.07213982  1
  Al  Al19  1  0.89896661  0.87179686  0.57220618  1
  Al  Al20  1  0.43844901  0.76273050  0.31962516  1
  Al  Al21  1  0.55233231  0.86618958  0.07759393  1
  Al  Al22  1  0.11350438  0.76670522  0.82126222  1
  Al  Al23  1  0.22058018  0.87897206  0.57431333  1
  Al  Al24  1  0.43787257  0.76335427  0.82525967  1
  Al  Al25  1  0.53848737  0.88065648  0.56801240  1
  Sc  Sc26  1  0.77562884  0.10095691  0.34116102  1
  Sc  Sc27  1  0.89584102  0.20634886  0.08066496  1
  Sc  Sc28  1  0.43572470  0.09635183  0.84255571  1
  Sc  Sc29  1  0.54991262  0.20297479  0.58554076  1
  Sc  Sc30  1  0.22195932  0.53549703  0.08542697  1
  Sc  Sc31  1  0.21462474  0.54132536  0.57547184  1
  Sc  Sc32  1  0.55875162  0.54309584  0.58115704  1
  Sc  Sc33  1  0.77646005  0.75794920  0.82147394  1
  Sc  Sc34  1  0.77538799  0.75721030  0.34108419  1
  Sc  Sc35  1  0.88924235  0.87364896  0.07797432  1
  N  N36  1  0.22287338  0.20511735  0.38029849  1
  N  N37  1  0.13635488  0.07970709  0.13814160  1
  N  N38  1  0.89213821  0.20279562  0.86870653  1
  N  N39  1  0.79627482  0.09078910  0.61639174  1
  N  N40  1  0.53004510  0.21692138  0.37524903  1
  N  N41  1  0.44246340  0.09910652  0.11746163  1
  N  N42  1  0.19739323  0.21311013  0.88749806  1
  N  N43  1  0.11337363  0.09332419  0.62820011  1
  N  N44  1  0.90506823  0.21401375  0.37696238  1
  N  N45  1  0.76243206  0.10509629  0.13352704  1
  N  N46  1  0.56992294  0.21184958  0.87380416  1
  N  N47  1  0.42844032  0.08753143  0.63236372  1
  N  N48  1  0.22334923  0.53635665  0.35501011  1
  N  N49  1  0.09613306  0.41662409  0.13345489  1
  N  N50  1  0.89401808  0.52204730  0.88310210  1
  N  N51  1  0.79653299  0.41675774  0.63422759  1
  N  N52  1  0.55634004  0.53836921  0.36920526  1
  N  N53  1  0.46360460  0.42161296  0.12388232  1
  N  N54  1  0.21670898  0.53954871  0.86777903  1
  N  N55  1  0.10355202  0.41492224  0.63401623  1
  N  N56  1  0.90041720  0.51706919  0.38459011  1
  N  N57  1  0.76682943  0.44532943  0.13241004  1
  N  N58  1  0.55725128  0.54062977  0.87539127  1
  N  N59  1  0.44033191  0.43349627  0.64301098  1
  N  N60  1  0.22627321  0.87043898  0.38396258  1
  N  N61  1  0.12402335  0.77341320  0.13447523  1
  N  N62  1  0.89605397  0.88200915  0.86622884  1
  N  N63  1  0.77414771  0.76191079  0.60285192  1
  N  N64  1  0.52841386  0.88660379  0.37714883  1
  N  N65  1  0.44418284  0.75914456  0.12969765  1
  N  N66  1  0.22180779  0.87378897  0.88050620  1
  N  N67  1  0.10794316  0.77891525  0.63244139  1
  N  N68  1  0.91383905  0.85944805  0.38169719  1
  N  N69  1  0.76957501  0.75239805  0.12322409  1
  N  N70  1  0.54688113  0.85925051  0.89009877  1
  N  N71  1  0.43197719  0.78088715  0.63592437  1
