# generated using pymatgen
data_Sc5Al13N18
_symmetry_space_group_name_H-M   'P 1'
_cell_length_a   9.86783794
_cell_length_b   9.81792997
_cell_length_c   10.13176062
_cell_angle_alpha   90.02641150
_cell_angle_beta   90.08783519
_cell_angle_gamma   59.83668999
_symmetry_Int_Tables_number   1
_chemical_formula_structural   Sc5Al13N18
_chemical_formula_sum   'Sc10 Al26 N36'
_cell_volume   848.67207782
_cell_formula_units_Z   2
loop_
 _symmetry_equiv_pos_site_id
 _symmetry_equiv_pos_as_xyz
  1  'x, y, z'
loop_
 _atom_site_type_symbol
 _atom_site_label
 _atom_site_symmetry_multiplicity
 _atom_site_fract_x
 _atom_site_fract_y
 _atom_site_fract_z
 _atom_site_occupancy
  Al  Al0  1  0.12224035  0.09024507  0.31836493  1
  Al  Al1  1  0.21754600  0.20352469  0.06774559  1
  Al  Al2  1  0.78612777  0.09771784  0.80602871  1
  Al  Al3  1  0.90184017  0.20545356  0.56434247  1
  Al  Al4  1  0.43327024  0.10125143  0.30902683  1
  Al  Al5  1  0.55901650  0.20830425  0.06181672  1
  Al  Al6  1  0.10877740  0.09376742  0.81116603  1
  Al  Al7  1  0.21791013  0.20152125  0.56398691  1
  Al  Al8  1  0.10991087  0.41884256  0.31306398  1
  Al  Al9  1  0.78271375  0.42149963  0.81489270  1
  Al  Al10  1  0.89478094  0.52614018  0.56333712  1
  Al  Al11  1  0.44643402  0.42793083  0.30620306  1
  Al  Al12  1  0.55794968  0.54279702  0.06406877  1
  Al  Al13  1  0.10503759  0.42291718  0.81637879  1
  Al  Al14  1  0.78003330  0.42916532  0.31303843  1
  Al  Al15  1  0.88352407  0.53585138  0.06515802  1
  Al  Al16  1  0.44472405  0.43266662  0.82146170  1
  Al  Al17  1  0.12170850  0.76268599  0.31393255  1
  Al  Al18  1  0.23124973  0.87262826  0.06449514  1
  Al  Al19  1  0.89865395  0.87213368  0.56460940  1
  Al  Al20  1  0.43851859  0.76286312  0.31128988  1
  Al  Al21  1  0.55236851  0.86655972  0.06936327  1
  Al  Al22  1  0.11371941  0.76621976  0.81274326  1
  Al  Al23  1  0.22069256  0.87891968  0.56631996  1
  Al  Al24  1  0.43795136  0.76313545  0.81770089  1
  Al  Al25  1  0.53898097  0.88020722  0.55979382  1
  Sc  Sc26  1  0.77654546  0.10044089  0.33101443  1
  Sc  Sc27  1  0.89598511  0.20654534  0.07038726  1
  Sc  Sc28  1  0.43587525  0.09649025  0.83280582  1
  Sc  Sc29  1  0.55014528  0.20320419  0.57538234  1
  Sc  Sc30  1  0.22196580  0.53575274  0.07698993  1
  Sc  Sc31  1  0.21470627  0.54132157  0.56615207  1
  Sc  Sc32  1  0.55840598  0.54329447  0.57186924  1
  Sc  Sc33  1  0.77626952  0.75737045  0.81193240  1
  Sc  Sc34  1  0.77580579  0.75724523  0.33254288  1
  Sc  Sc35  1  0.88905140  0.87333854  0.06770275  1
  N  N36  1  0.22285967  0.20528112  0.37319668  1
  N  N37  1  0.13578646  0.08015594  0.13128953  1
  N  N38  1  0.89184441  0.20297288  0.86014547  1
  N  N39  1  0.79577158  0.09084912  0.61040675  1
  N  N40  1  0.53085607  0.21670322  0.36678732  1
  N  N41  1  0.44271514  0.09866850  0.11111449  1
  N  N42  1  0.19768186  0.21294373  0.88052459  1
  N  N43  1  0.11346050  0.09332587  0.62110265  1
  N  N44  1  0.90479718  0.21404335  0.37129411  1
  N  N45  1  0.76322244  0.10462659  0.12493642  1
  N  N46  1  0.56938613  0.21212312  0.86766635  1
  N  N47  1  0.42891003  0.08757795  0.62408578  1
  N  N48  1  0.22345640  0.53640199  0.34734126  1
  N  N49  1  0.09650716  0.41648171  0.12621585  1
  N  N50  1  0.89395074  0.52205564  0.87634299  1
  N  N51  1  0.79592583  0.41752745  0.62711002  1
  N  N52  1  0.55638159  0.53845025  0.36123845  1
  N  N53  1  0.46365860  0.42151082  0.11687018  1
  N  N54  1  0.21678459  0.53960620  0.86093475  1
  N  N55  1  0.10355228  0.41526001  0.62713108  1
  N  N56  1  0.90078787  0.51691554  0.37735229  1
  N  N57  1  0.76729952  0.44480257  0.12551944  1
  N  N58  1  0.55712518  0.54060110  0.86893919  1
  N  N59  1  0.44037623  0.43334981  0.63596784  1
  N  N60  1  0.22630754  0.87045925  0.37677227  1
  N  N61  1  0.12311045  0.77392881  0.12765684  1
  N  N62  1  0.89570400  0.88152564  0.85769181  1
  N  N63  1  0.77416137  0.76168287  0.59513157  1
  N  N64  1  0.52868771  0.88627006  0.37023717  1
  N  N65  1  0.44410304  0.75940829  0.12237901  1
  N  N66  1  0.22149693  0.87379815  0.87360078  1
  N  N67  1  0.10823347  0.77852155  0.62520279  1
  N  N68  1  0.91391747  0.85974413  0.37582091  1
  N  N69  1  0.76965824  0.75242403  0.11652392  1
  N  N70  1  0.54699768  0.85954704  0.88297770  1
  N  N71  1  0.43224311  0.78070155  0.62922053  1
