# generated using pymatgen
data_Gd2Al7N9
_symmetry_space_group_name_H-M   'P 1'
_cell_length_a   9.77375027
_cell_length_b   9.76177010
_cell_length_c   11.23857578
_cell_angle_alpha   89.45992612
_cell_angle_beta   88.34774473
_cell_angle_gamma   59.99167260
_symmetry_Int_Tables_number   1
_chemical_formula_structural   Gd2Al7N9
_chemical_formula_sum   'Gd8 Al28 N36'
_cell_volume   928.12707614
_cell_formula_units_Z   4
loop_
 _symmetry_equiv_pos_site_id
 _symmetry_equiv_pos_as_xyz
  1  'x, y, z'
loop_
 _atom_site_type_symbol
 _atom_site_label
 _atom_site_symmetry_multiplicity
 _atom_site_fract_x
 _atom_site_fract_y
 _atom_site_fract_z
 _atom_site_occupancy
  Al  Al0  1  0.13544153  0.08215996  0.42626880  1
  Al  Al1  1  0.76434950  0.09994809  0.79464822  1
  Al  Al2  1  0.89652042  0.20445454  0.57333767  1
  Al  Al3  1  0.45426795  0.09716531  0.34301270  1
  Al  Al4  1  0.23851353  0.20175285  0.61074426  1
  Al  Al5  1  0.86180835  0.21175310  0.03121706  1
  Al  Al6  1  0.45251293  0.09824025  0.78492585  1
  Al  Al7  1  0.55897243  0.20091010  0.55841147  1
  Al  Al8  1  0.13369419  0.42973600  0.42148499  1
  Al  Al9  1  0.76993459  0.42678516  0.80814964  1
  Al  Al10  1  0.89486217  0.53549660  0.57924081  1
  Al  Al11  1  0.44989226  0.43750753  0.31586366  1
  Al  Al12  1  0.54176300  0.53396844  0.04182873  1
  Al  Al13  1  0.10355442  0.43622752  0.79655757  1
  Al  Al14  1  0.22326007  0.54721043  0.63322703  1
  Al  Al15  1  0.88584492  0.52915648  0.02477965  1
  Al  Al16  1  0.44294161  0.41761641  0.79878665  1
  Al  Al17  1  0.13700136  0.75680834  0.41086322  1
  Al  Al18  1  0.20497082  0.87478885  0.05963481  1
  Al  Al19  1  0.76812669  0.76513272  0.85925828  1
  Al  Al20  1  0.89582569  0.87663632  0.57713762  1
  Al  Al21  1  0.44231120  0.78042260  0.40109493  1
  Al  Al22  1  0.11205586  0.75434158  0.85853526  1
  Al  Al23  1  0.23355627  0.86401249  0.63591909  1
  Al  Al24  1  0.78579038  0.76206613  0.41592528  1
  Al  Al25  1  0.87555228  0.88882324  0.01978505  1
  Al  Al26  1  0.44353955  0.75542559  0.86416281  1
  Al  Al27  1  0.56447709  0.86453220  0.63167129  1
  Gd  Gd28  1  0.17207739  0.19658904  0.18032995  1
  Gd  Gd29  1  0.52584952  0.21115728  0.05457251  1
  Gd  Gd30  1  0.10762806  0.10222489  0.84127077  1
  Gd  Gd31  1  0.80506324  0.08099425  0.30652164  1
  Gd  Gd32  1  0.16937145  0.57456297  0.15597408  1
  Gd  Gd33  1  0.79824347  0.44059745  0.29600012  1
  Gd  Gd34  1  0.56975051  0.52234358  0.56669852  1
  Gd  Gd35  1  0.56476567  0.83514536  0.14769769  1
  N  N36  1  0.23662942  0.20433260  0.39894268  1
  N  N37  1  0.08676715  0.08860780  0.04747464  1
  N  N38  1  0.84413334  0.22069376  0.86211052  1
  N  N39  1  0.77951296  0.09953119  0.61885197  1
  N  N40  1  0.54960935  0.22118707  0.38513044  1
  N  N41  1  0.43064290  0.09383129  0.17158623  1
  N  N42  1  0.23604445  0.22356695  0.78892491  1
  N  N43  1  0.12049860  0.08636843  0.59969636  1
  N  N44  1  0.91578793  0.20791866  0.39805868  1
  N  N45  1  0.78323587  0.08470120  0.09874664  1
  N  N46  1  0.54885937  0.20169534  0.84779693  1
  N  N47  1  0.46516396  0.08450875  0.61231018  1
  N  N48  1  0.23092362  0.54202049  0.36107093  1
  N  N49  1  0.07012100  0.42967312  0.10576940  1
  N  N50  1  0.88929907  0.53056086  0.85106980  1
  N  N51  1  0.81414077  0.40949053  0.63979581  1
  N  N52  1  0.54683818  0.55648588  0.36500297  1
  N  N53  1  0.44315487  0.44688253  0.14047936  1
  N  N54  1  0.21266406  0.54525659  0.80729880  1
  N  N55  1  0.11608666  0.43488965  0.60038325  1
  N  N56  1  0.91094650  0.54173377  0.40650473  1
  N  N57  1  0.76112193  0.43637830  0.08111028  1
  N  N58  1  0.54899951  0.52825016  0.85597011  1
  N  N59  1  0.44043892  0.40489068  0.62911915  1
  N  N60  1  0.22921542  0.88100739  0.35525958  1
  N  N61  1  0.09463285  0.77651512  0.02899109  1
  N  N62  1  0.88034340  0.88165709  0.84203940  1
  N  N63  1  0.78209502  0.76133184  0.59215527  1
  N  N64  1  0.57880012  0.86380426  0.35649436  1
  N  N65  1  0.42049680  0.75974852  0.03656795  1
  N  N66  1  0.23894202  0.84031780  0.80406184  1
  N  N67  1  0.12554375  0.76002113  0.58353920  1
  N  N68  1  0.91269317  0.85445756  0.40036592  1
  N  N69  1  0.78291205  0.75893668  0.03416136  1
  N  N70  1  0.55262881  0.86559489  0.80763681  1
  N  N71  1  0.43974581  0.78515591  0.57307935  1
