# generated using pymatgen
data_Gd2Al7N9
_symmetry_space_group_name_H-M   'P 1'
_cell_length_a   9.86441158
_cell_length_b   9.77287049
_cell_length_c   11.01479698
_cell_angle_alpha   89.23242559
_cell_angle_beta   89.27783054
_cell_angle_gamma   59.67466595
_symmetry_Int_Tables_number   1
_chemical_formula_structural   Gd2Al7N9
_chemical_formula_sum   'Gd8 Al28 N36'
_cell_volume   916.47040806
_cell_formula_units_Z   4
loop_
 _symmetry_equiv_pos_site_id
 _symmetry_equiv_pos_as_xyz
  1  'x, y, z'
loop_
 _atom_site_type_symbol
 _atom_site_label
 _atom_site_symmetry_multiplicity
 _atom_site_fract_x
 _atom_site_fract_y
 _atom_site_fract_z
 _atom_site_occupancy
  Al  Al0  1  0.12346538  0.08537514  0.41098714  1
  Al  Al1  1  0.77152474  0.09638410  0.79153503  1
  Al  Al2  1  0.89472011  0.20684103  0.57185540  1
  Al  Al3  1  0.44794197  0.10229501  0.34012493  1
  Al  Al4  1  0.23246138  0.21239137  0.56792831  1
  Al  Al5  1  0.86706747  0.20342545  0.03006125  1
  Al  Al6  1  0.44449702  0.10477949  0.80017951  1
  Al  Al7  1  0.55039200  0.20708393  0.56467135  1
  Al  Al8  1  0.10008195  0.44620450  0.34070999  1
  Al  Al9  1  0.77688976  0.42580796  0.81231092  1
  Al  Al10  1  0.90576352  0.52980805  0.58553111  1
  Al  Al11  1  0.44258181  0.44183066  0.31158864  1
  Al  Al12  1  0.55076607  0.52969732  0.03969643  1
  Al  Al13  1  0.12035032  0.42432871  0.81428672  1
  Al  Al14  1  0.21945469  0.54324784  0.63836907  1
  Al  Al15  1  0.88298018  0.53017978  0.04155052  1
  Al  Al16  1  0.45022317  0.41967135  0.80001693  1
  Al  Al17  1  0.12794696  0.75533746  0.39688008  1
  Al  Al18  1  0.21031546  0.86860040  0.07339221  1
  Al  Al19  1  0.77584815  0.75966463  0.85941515  1
  Al  Al20  1  0.89617629  0.87543592  0.57634136  1
  Al  Al21  1  0.43393371  0.78371285  0.39772664  1
  Al  Al22  1  0.11575625  0.75937039  0.85815405  1
  Al  Al23  1  0.23217298  0.86484134  0.63083763  1
  Al  Al24  1  0.77823487  0.76396207  0.42043989  1
  Al  Al25  1  0.88361445  0.88263927  0.02373156  1
  Al  Al26  1  0.44374738  0.75939858  0.86544101  1
  Al  Al27  1  0.55841872  0.87203090  0.63502248  1
  Gd  Gd28  1  0.19193820  0.18918257  0.13968629  1
  Gd  Gd29  1  0.54134608  0.19914738  0.04615076  1
  Gd  Gd30  1  0.11198588  0.11034674  0.83308536  1
  Gd  Gd31  1  0.78828010  0.08677293  0.30996945  1
  Gd  Gd32  1  0.19828753  0.54265948  0.11376515  1
  Gd  Gd33  1  0.79446968  0.43969876  0.29619114  1
  Gd  Gd34  1  0.56864027  0.52743768  0.56984527  1
  Gd  Gd35  1  0.57160971  0.83348754  0.14915862  1
  N  N36  1  0.22447329  0.21291707  0.38708414  1
  N  N37  1  0.08573596  0.07838265  0.04227496  1
  N  N38  1  0.85074370  0.21645651  0.85965574  1
  N  N39  1  0.77900619  0.09978799  0.61507014  1
  N  N40  1  0.53537920  0.22787135  0.38912044  1
  N  N41  1  0.44401826  0.09110441  0.16886499  1
  N  N42  1  0.25273202  0.22506866  0.88646494  1
  N  N43  1  0.12158123  0.09041384  0.59242667  1
  N  N44  1  0.90575472  0.20828455  0.39604814  1
  N  N45  1  0.79144635  0.07768440  0.09989090  1
  N  N46  1  0.56021184  0.20001900  0.83920316  1
  N  N47  1  0.44370884  0.09916272  0.62215333  1
  N  N48  1  0.21835885  0.55043778  0.32764308  1
  N  N49  1  0.03369041  0.44786431  0.17022466  1
  N  N50  1  0.90225846  0.52138946  0.86493006  1
  N  N51  1  0.81600874  0.40975077  0.64152949  1
  N  N52  1  0.53757842  0.56058069  0.36352993  1
  N  N53  1  0.46201043  0.43218457  0.13312760  1
  N  N54  1  0.22211228  0.54409008  0.82067893  1
  N  N55  1  0.11838429  0.42107680  0.63437532  1
  N  N56  1  0.90380001  0.54393505  0.41389473  1
  N  N57  1  0.76687343  0.42805069  0.08093991  1
  N  N58  1  0.55544082  0.53105048  0.85432544  1
  N  N59  1  0.43602341  0.41327702  0.62847517  1
  N  N60  1  0.22168805  0.88303770  0.34252139  1
  N  N61  1  0.09997817  0.77497981  0.03298350  1
  N  N62  1  0.88647057  0.87708857  0.84198016  1
  N  N63  1  0.77928283  0.76381909  0.59904354  1
  N  N64  1  0.56980216  0.86927806  0.36089212  1
  N  N65  1  0.42357386  0.75723958  0.04099314  1
  N  N66  1  0.23895627  0.84583846  0.80238722  1
  N  N67  1  0.12719177  0.75492800  0.57786306  1
  N  N68  1  0.90427335  0.85494129  0.39918700  1
  N  N69  1  0.79007782  0.75624948  0.03863290  1
  N  N70  1  0.55522755  0.86651232  0.81302917  1
  N  N71  1  0.43601472  0.79085939  0.57238405  1
