# generated using pymatgen
data_Gd2Al7N9
_symmetry_space_group_name_H-M   'P 1'
_cell_length_a   9.76483273
_cell_length_b   9.77034697
_cell_length_c   11.24349406
_cell_angle_alpha   89.61741605
_cell_angle_beta   88.68059057
_cell_angle_gamma   59.93674845
_symmetry_Int_Tables_number   1
_chemical_formula_structural   Gd2Al7N9
_chemical_formula_sum   'Gd8 Al28 N36'
_cell_volume   928.12732506
_cell_formula_units_Z   4
loop_
 _symmetry_equiv_pos_site_id
 _symmetry_equiv_pos_as_xyz
  1  'x, y, z'
loop_
 _atom_site_type_symbol
 _atom_site_label
 _atom_site_symmetry_multiplicity
 _atom_site_fract_x
 _atom_site_fract_y
 _atom_site_fract_z
 _atom_site_occupancy
  Al  Al0  1  0.13399308  0.08330285  0.42396776  1
  Al  Al1  1  0.76485428  0.10000490  0.79485946  1
  Al  Al2  1  0.89596820  0.20373160  0.57330814  1
  Al  Al3  1  0.45149266  0.09732654  0.34185158  1
  Al  Al4  1  0.23437546  0.20641223  0.61553693  1
  Al  Al5  1  0.86347325  0.21127761  0.03196917  1
  Al  Al6  1  0.45278557  0.09844466  0.78560865  1
  Al  Al7  1  0.55689580  0.20137412  0.55919056  1
  Al  Al8  1  0.13341780  0.42854941  0.41945319  1
  Al  Al9  1  0.77119975  0.42668939  0.80715094  1
  Al  Al10  1  0.89753281  0.53315906  0.57946333  1
  Al  Al11  1  0.44762669  0.43714822  0.31667150  1
  Al  Al12  1  0.54462775  0.53385915  0.04223259  1
  Al  Al13  1  0.10835852  0.43411024  0.82713268  1
  Al  Al14  1  0.21952617  0.54386009  0.63636803  1
  Al  Al15  1  0.88622550  0.53039111  0.02383861  1
  Al  Al16  1  0.44433205  0.41752841  0.79954301  1
  Al  Al17  1  0.13581300  0.75470235  0.41066319  1
  Al  Al18  1  0.20717393  0.87559332  0.06359207  1
  Al  Al19  1  0.76842409  0.76580187  0.85952413  1
  Al  Al20  1  0.89549282  0.87554488  0.57686859  1
  Al  Al21  1  0.43983215  0.78088967  0.40158655  1
  Al  Al22  1  0.11282989  0.75602515  0.85898657  1
  Al  Al23  1  0.23255158  0.86425569  0.63492256  1
  Al  Al24  1  0.78412785  0.76116048  0.41563323  1
  Al  Al25  1  0.87668884  0.88985663  0.02027928  1
  Al  Al26  1  0.44404201  0.75569302  0.86455396  1
  Al  Al27  1  0.56364676  0.86514500  0.63157748  1
  Gd  Gd28  1  0.17162329  0.20531449  0.17398403  1
  Gd  Gd29  1  0.52569573  0.21210313  0.05425976  1
  Gd  Gd30  1  0.10864207  0.10098880  0.84185553  1
  Gd  Gd31  1  0.80323943  0.07968134  0.30743626  1
  Gd  Gd32  1  0.17242538  0.57417308  0.15093098  1
  Gd  Gd33  1  0.79149785  0.43878383  0.29986087  1
  Gd  Gd34  1  0.56668598  0.52385007  0.56919666  1
  Gd  Gd35  1  0.56662149  0.83540498  0.14799623  1
  N  N36  1  0.23275548  0.20486651  0.39021642  1
  N  N37  1  0.08837800  0.08847856  0.04822483  1
  N  N38  1  0.84492802  0.22114361  0.86282940  1
  N  N39  1  0.77910481  0.09864225  0.61959530  1
  N  N40  1  0.54713957  0.22098627  0.38563626  1
  N  N41  1  0.43113590  0.09337523  0.16949701  1
  N  N42  1  0.23520746  0.22558930  0.79159426  1
  N  N43  1  0.12073698  0.08720716  0.59920554  1
  N  N44  1  0.91270216  0.20641684  0.39955744  1
  N  N45  1  0.78377503  0.08571037  0.09895797  1
  N  N46  1  0.54968278  0.20174725  0.84840059  1
  N  N47  1  0.46234405  0.08575202  0.61333391  1
  N  N48  1  0.22814763  0.54187917  0.35663630  1
  N  N49  1  0.09138786  0.42346264  0.07399330  1
  N  N50  1  0.88619186  0.53315711  0.85113301  1
  N  N51  1  0.81383283  0.40917066  0.63915312  1
  N  N52  1  0.54258157  0.55658370  0.36807184  1
  N  N53  1  0.44594116  0.44744199  0.14040591  1
  N  N54  1  0.21337474  0.54559535  0.81020933  1
  N  N55  1  0.11884882  0.43201214  0.59191363  1
  N  N56  1  0.90873952  0.54135066  0.40264279  1
  N  N57  1  0.76605723  0.43608019  0.08402755  1
  N  N58  1  0.55067097  0.52817623  0.85689566  1
  N  N59  1  0.43897786  0.40487417  0.63087328  1
  N  N60  1  0.22658919  0.88009135  0.35544344  1
  N  N61  1  0.09616506  0.77914073  0.02923256  1
  N  N62  1  0.88061104  0.88208902  0.84307133  1
  N  N63  1  0.78177764  0.75989971  0.59165012  1
  N  N64  1  0.57603252  0.86423401  0.35644690  1
  N  N65  1  0.42242589  0.75940641  0.03700684  1
  N  N66  1  0.23969224  0.84012171  0.80312607  1
  N  N67  1  0.12574185  0.75737083  0.58406433  1
  N  N68  1  0.91089493  0.85360368  0.40092726  1
  N  N69  1  0.78615838  0.75837245  0.03582506  1
  N  N70  1  0.55263625  0.86632516  0.80823220  1
  N  N71  1  0.43865323  0.78620562  0.57320975  1
