# generated using pymatgen
data_Gd2Al7N9
_symmetry_space_group_name_H-M   'P 1'
_cell_length_a   9.81616939
_cell_length_b   9.74070998
_cell_length_c   11.20134062
_cell_angle_alpha   88.95829760
_cell_angle_beta   88.74746514
_cell_angle_gamma   60.00578889
_symmetry_Int_Tables_number   1
_chemical_formula_structural   Gd2Al7N9
_chemical_formula_sum   'Gd8 Al28 N36'
_cell_volume   927.34130794
_cell_formula_units_Z   4
loop_
 _symmetry_equiv_pos_site_id
 _symmetry_equiv_pos_as_xyz
  1  'x, y, z'
loop_
 _atom_site_type_symbol
 _atom_site_label
 _atom_site_symmetry_multiplicity
 _atom_site_fract_x
 _atom_site_fract_y
 _atom_site_fract_z
 _atom_site_occupancy
  Al  Al0  1  0.13060008  0.08780532  0.42874101  1
  Al  Al1  1  0.76591707  0.09705943  0.79386970  1
  Al  Al2  1  0.89485286  0.20751362  0.57524413  1
  Al  Al3  1  0.45005159  0.10377467  0.34334087  1
  Al  Al4  1  0.23684749  0.20761597  0.60990966  1
  Al  Al5  1  0.86683146  0.20574465  0.02988994  1
  Al  Al6  1  0.45413279  0.09575705  0.78604953  1
  Al  Al7  1  0.55606163  0.20428629  0.55928039  1
  Al  Al8  1  0.12026418  0.43780454  0.39360851  1
  Al  Al9  1  0.77231645  0.42602599  0.81116883  1
  Al  Al10  1  0.89712855  0.53660371  0.57933249  1
  Al  Al11  1  0.44749210  0.44278465  0.31251690  1
  Al  Al12  1  0.54682592  0.53000661  0.03971400  1
  Al  Al13  1  0.10570802  0.43390966  0.79431812  1
  Al  Al14  1  0.22251942  0.54721833  0.63333292  1
  Al  Al15  1  0.88546583  0.52505155  0.03646276  1
  Al  Al16  1  0.44598959  0.41677117  0.79856627  1
  Al  Al17  1  0.13145537  0.76182642  0.40412724  1
  Al  Al18  1  0.21013058  0.87001005  0.05459393  1
  Al  Al19  1  0.77279474  0.75971654  0.86235030  1
  Al  Al20  1  0.89599728  0.87758006  0.57606443  1
  Al  Al21  1  0.43727114  0.78589989  0.39972726  1
  Al  Al22  1  0.11409517  0.75230301  0.85782481  1
  Al  Al23  1  0.23488146  0.86269016  0.63448856  1
  Al  Al24  1  0.77985943  0.76814822  0.41704865  1
  Al  Al25  1  0.88191702  0.88259604  0.02230216  1
  Al  Al26  1  0.44630624  0.75437839  0.86314897  1
  Al  Al27  1  0.56469998  0.86559241  0.63158894  1
  Gd  Gd28  1  0.17575951  0.17984376  0.18234329  1
  Gd  Gd29  1  0.53884627  0.20262653  0.05218768  1
  Gd  Gd30  1  0.10565863  0.10237369  0.83505879  1
  Gd  Gd31  1  0.79837067  0.08815098  0.30897605  1
  Gd  Gd32  1  0.18406001  0.55385067  0.13979677  1
  Gd  Gd33  1  0.79991629  0.44239693  0.29329247  1
  Gd  Gd34  1  0.57161636  0.52319089  0.56450454  1
  Gd  Gd35  1  0.56534400  0.83778356  0.14823301  1
  N  N36  1  0.23145673  0.21006394  0.39694468  1
  N  N37  1  0.09059856  0.08414058  0.04144106  1
  N  N38  1  0.84368615  0.21811926  0.86166030  1
  N  N39  1  0.77892025  0.10069898  0.61838748  1
  N  N40  1  0.54348493  0.22812926  0.38592092  1
  N  N41  1  0.42920537  0.09928164  0.16977747  1
  N  N42  1  0.23980703  0.22038222  0.79403146  1
  N  N43  1  0.12003500  0.08838050  0.60094799  1
  N  N44  1  0.91200093  0.21222902  0.40025303  1
  N  N45  1  0.79243167  0.07668163  0.10104862  1
  N  N46  1  0.55250344  0.19860933  0.84600941  1
  N  N47  1  0.46237042  0.08728826  0.61258069  1
  N  N48  1  0.22310067  0.55073422  0.34459495  1
  N  N49  1  0.03951801  0.43593190  0.15378576  1
  N  N50  1  0.89747417  0.52319244  0.86069836  1
  N  N51  1  0.81503322  0.41159860  0.64253992  1
  N  N52  1  0.54160661  0.56336101  0.36156291  1
  N  N53  1  0.45359712  0.43722506  0.13676542  1
  N  N54  1  0.21686524  0.54167753  0.81131333  1
  N  N55  1  0.11299210  0.43785244  0.60822799  1
  N  N56  1  0.90216603  0.54844663  0.40939743  1
  N  N57  1  0.76276222  0.42837320  0.07986826  1
  N  N58  1  0.55177818  0.52742855  0.85563776  1
  N  N59  1  0.43938150  0.40866833  0.62839145  1
  N  N60  1  0.22345960  0.89042747  0.35313929  1
  N  N61  1  0.09960094  0.77126534  0.02892467  1
  N  N62  1  0.88344027  0.87765095  0.84314619  1
  N  N63  1  0.78096077  0.76404776  0.59328812  1
  N  N64  1  0.57280739  0.87115598  0.35746486  1
  N  N65  1  0.42509670  0.75703847  0.03659906  1
  N  N66  1  0.24072289  0.83858379  0.80387152  1
  N  N67  1  0.12664816  0.75971664  0.57972910  1
  N  N68  1  0.90754096  0.85948401  0.40074315  1
  N  N69  1  0.78606705  0.75579769  0.03786516  1
  N  N70  1  0.55742559  0.86193836  0.80819283  1
  N  N71  1  0.43922145  0.78639877  0.57271203  1
