# generated using pymatgen
data_Gd2Al7N9
_symmetry_space_group_name_H-M   'P 1'
_cell_length_a   9.76510480
_cell_length_b   9.82111325
_cell_length_c   10.99319219
_cell_angle_alpha   89.48251097
_cell_angle_beta   89.19559449
_cell_angle_gamma   60.05990776
_symmetry_Int_Tables_number   1
_chemical_formula_structural   Gd2Al7N9
_chemical_formula_sum   'Gd8 Al28 N36'
_cell_volume   913.50293085
_cell_formula_units_Z   4
loop_
 _symmetry_equiv_pos_site_id
 _symmetry_equiv_pos_as_xyz
  1  'x, y, z'
loop_
 _atom_site_type_symbol
 _atom_site_label
 _atom_site_symmetry_multiplicity
 _atom_site_fract_x
 _atom_site_fract_y
 _atom_site_fract_z
 _atom_site_occupancy
  Al  Al0  1  0.12865934  0.08733839  0.42734743  1
  Al  Al1  1  0.77059058  0.09653849  0.81519259  1
  Al  Al2  1  0.89721163  0.20317846  0.59159116  1
  Al  Al3  1  0.44350090  0.09695145  0.42384249  1
  Al  Al4  1  0.23424720  0.20710976  0.65168139  1
  Al  Al5  1  0.87325023  0.20695053  0.06321782  1
  Al  Al6  1  0.44619619  0.08716105  0.88328513  1
  Al  Al7  1  0.55525151  0.20999038  0.58766219  1
  Al  Al8  1  0.12491212  0.42741999  0.43311878  1
  Al  Al9  1  0.77496276  0.42125357  0.82937425  1
  Al  Al10  1  0.89729580  0.53233740  0.60933957  1
  Al  Al11  1  0.43774114  0.44222247  0.33959809  1
  Al  Al12  1  0.54210506  0.54122981  0.07096161  1
  Al  Al13  1  0.11973113  0.42288278  0.88349508  1
  Al  Al14  1  0.21457958  0.54178725  0.65907127  1
  Al  Al15  1  0.88073574  0.52941226  0.03931457  1
  Al  Al16  1  0.44450473  0.41760025  0.82119143  1
  Al  Al17  1  0.12799398  0.75242018  0.42406622  1
  Al  Al18  1  0.21106547  0.87466595  0.14026586  1
  Al  Al19  1  0.77815665  0.76046078  0.87178807  1
  Al  Al20  1  0.89453041  0.87381139  0.59816699  1
  Al  Al21  1  0.43467610  0.78306967  0.40893697  1
  Al  Al22  1  0.12362962  0.75223397  0.88554016  1
  Al  Al23  1  0.22962401  0.86918773  0.65179284  1
  Al  Al24  1  0.77646305  0.76185419  0.43388606  1
  Al  Al25  1  0.88629013  0.88587200  0.04356551  1
  Al  Al26  1  0.44420051  0.75417022  0.89236784  1
  Al  Al27  1  0.55205857  0.88059276  0.65475160  1
  Gd  Gd28  1  0.21019259  0.20280891  0.16480640  1
  Gd  Gd29  1  0.54776451  0.22595154  0.06801504  1
  Gd  Gd30  1  0.11899541  0.08533711  0.88002569  1
  Gd  Gd31  1  0.79082661  0.08195804  0.33497961  1
  Gd  Gd32  1  0.16654937  0.57160394  0.16186320  1
  Gd  Gd33  1  0.78639412  0.43481389  0.32292009  1
  Gd  Gd34  1  0.55687774  0.53990153  0.59578863  1
  Gd  Gd35  1  0.57226271  0.85332559  0.15119472  1
  N  N36  1  0.22576572  0.20783665  0.38052703  1
  N  N37  1  0.09134787  0.08617666  0.09068644  1
  N  N38  1  0.85373211  0.21488639  0.88862036  1
  N  N39  1  0.78022625  0.09690067  0.63867902  1
  N  N40  1  0.53615485  0.22979104  0.40663973  1
  N  N41  1  0.43512802  0.08138056  0.06034390  1
  N  N42  1  0.24078753  0.21682922  0.82286361  1
  N  N43  1  0.12288551  0.08890345  0.61183188  1
  N  N44  1  0.90896887  0.20243019  0.41778534  1
  N  N45  1  0.79408944  0.07725074  0.12573996  1
  N  N46  1  0.55543040  0.20031743  0.86303306  1
  N  N47  1  0.45169402  0.09110099  0.59875287  1
  N  N48  1  0.21710313  0.54357202  0.37062956  1
  N  N49  1  0.09823382  0.41938859  0.05740774  1
  N  N50  1  0.88574359  0.53289126  0.86345722  1
  N  N51  1  0.80945135  0.40705901  0.65702630  1
  N  N52  1  0.53450031  0.56022881  0.39034673  1
  N  N53  1  0.43547805  0.45867882  0.16307039  1
  N  N54  1  0.21494292  0.54159678  0.83752825  1
  N  N55  1  0.12055781  0.42572582  0.60676991  1
  N  N56  1  0.90050958  0.54532922  0.41896567  1
  N  N57  1  0.76818851  0.43289228  0.10672366  1
  N  N58  1  0.55289039  0.52661754  0.88212809  1
  N  N59  1  0.43517473  0.41214213  0.65089914  1
  N  N60  1  0.22017921  0.87846979  0.34317647  1
  N  N61  1  0.10508934  0.78658241  0.05977659  1
  N  N62  1  0.88917189  0.87877513  0.86358327  1
  N  N63  1  0.77516897  0.76192589  0.61583591  1
  N  N64  1  0.56482409  0.87860961  0.36572972  1
  N  N65  1  0.42232191  0.76198463  0.06945029  1
  N  N66  1  0.24628718  0.83426359  0.82044987  1
  N  N67  1  0.12664605  0.75637576  0.60072464  1
  N  N68  1  0.90486047  0.85146806  0.42059816  1
  N  N69  1  0.80508947  0.74651528  0.05694976  1
  N  N70  1  0.55276603  0.86657468  0.83266589  1
  N  N71  1  0.42988611  0.80139946  0.58348937  1
