# generated using pymatgen
data_Gd2Al7N9
_symmetry_space_group_name_H-M   'P 1'
_cell_length_a   9.88120016
_cell_length_b   9.78952134
_cell_length_c   10.91898833
_cell_angle_alpha   89.67200578
_cell_angle_beta   89.38665993
_cell_angle_gamma   59.62220707
_symmetry_Int_Tables_number   1
_chemical_formula_structural   Gd2Al7N9
_chemical_formula_sum   'Gd8 Al28 N36'
_cell_volume   911.15726635
_cell_formula_units_Z   4
loop_
 _symmetry_equiv_pos_site_id
 _symmetry_equiv_pos_as_xyz
  1  'x, y, z'
loop_
 _atom_site_type_symbol
 _atom_site_label
 _atom_site_symmetry_multiplicity
 _atom_site_fract_x
 _atom_site_fract_y
 _atom_site_fract_z
 _atom_site_occupancy
  Al  Al0  1  0.12531295  0.08358710  0.39822524  1
  Al  Al1  1  0.77052065  0.09687483  0.79281719  1
  Al  Al2  1  0.89628959  0.20283626  0.56871718  1
  Al  Al3  1  0.44289358  0.10247648  0.33712794  1
  Al  Al4  1  0.23175898  0.20969419  0.56613285  1
  Al  Al5  1  0.87303219  0.20609940  0.03642630  1
  Al  Al6  1  0.44453651  0.10375612  0.79993561  1
  Al  Al7  1  0.54769469  0.20654776  0.56547959  1
  Al  Al8  1  0.10179786  0.43836488  0.33656728  1
  Al  Al9  1  0.77519584  0.42628528  0.81615613  1
  Al  Al10  1  0.90587374  0.52625881  0.58580514  1
  Al  Al11  1  0.44251026  0.43821444  0.31339156  1
  Al  Al12  1  0.54721825  0.53545089  0.04285901  1
  Al  Al13  1  0.11575427  0.42813298  0.81250594  1
  Al  Al14  1  0.21885236  0.54281936  0.63811907  1
  Al  Al15  1  0.88080076  0.53629339  0.04268440  1
  Al  Al16  1  0.44787262  0.42152454  0.80307225  1
  Al  Al17  1  0.12583391  0.75003590  0.39486602  1
  Al  Al18  1  0.20868320  0.87743351  0.11203101  1
  Al  Al19  1  0.77605688  0.76257450  0.85953688  1
  Al  Al20  1  0.89564365  0.87226159  0.57729821  1
  Al  Al21  1  0.43543910  0.77748901  0.39260829  1
  Al  Al22  1  0.11907674  0.76213282  0.86553091  1
  Al  Al23  1  0.23227603  0.86194636  0.62867217  1
  Al  Al24  1  0.77779344  0.75911284  0.41962707  1
  Al  Al25  1  0.88722107  0.88549007  0.02783636  1
  Al  Al26  1  0.43850992  0.76366985  0.87153575  1
  Al  Al27  1  0.55586200  0.87125742  0.63419144  1
  Gd  Gd28  1  0.20824188  0.20920727  0.08829455  1
  Gd  Gd29  1  0.55274782  0.19933064  0.04976374  1
  Gd  Gd30  1  0.10647616  0.10792371  0.82549824  1
  Gd  Gd31  1  0.78544231  0.08365256  0.31543238  1
  Gd  Gd32  1  0.19711398  0.55072213  0.11480886  1
  Gd  Gd33  1  0.79745559  0.43360172  0.29438395  1
  Gd  Gd34  1  0.56872328  0.52668083  0.57292512  1
  Gd  Gd35  1  0.57339788  0.83498140  0.14738751  1
  N  N36  1  0.22461605  0.21062120  0.38781208  1
  N  N37  1  0.09032101  0.08276525  0.05287962  1
  N  N38  1  0.84976071  0.21608228  0.86446984  1
  N  N39  1  0.77831376  0.09795188  0.61459901  1
  N  N40  1  0.53166136  0.22645851  0.38961503  1
  N  N41  1  0.44752874  0.09112768  0.16524119  1
  N  N42  1  0.24740247  0.22509309  0.87989673  1
  N  N43  1  0.12249619  0.08561487  0.58870878  1
  N  N44  1  0.90748751  0.20259106  0.39396536  1
  N  N45  1  0.79790885  0.08040637  0.10603355  1
  N  N46  1  0.55804878  0.20092766  0.84103924  1
  N  N47  1  0.44260821  0.09785733  0.62250181  1
  N  N48  1  0.21900748  0.54496736  0.32915080  1
  N  N49  1  0.03521836  0.44929953  0.16613009  1
  N  N50  1  0.90009237  0.52389438  0.86480288  1
  N  N51  1  0.81805961  0.40465948  0.64308921  1
  N  N52  1  0.54026950  0.55407912  0.36497673  1
  N  N53  1  0.46077386  0.43504600  0.13415717  1
  N  N54  1  0.21958273  0.54572664  0.82540837  1
  N  N55  1  0.11832700  0.42019660  0.63432549  1
  N  N56  1  0.90496047  0.53924618  0.41305089  1
  N  N57  1  0.76376338  0.43514015  0.07956376  1
  N  N58  1  0.55266214  0.53396520  0.85577069  1
  N  N59  1  0.43498481  0.41320416  0.63015918  1
  N  N60  1  0.22190213  0.87651377  0.32284925  1
  N  N61  1  0.10224084  0.78569120  0.04180624  1
  N  N62  1  0.88875922  0.87871354  0.84405946  1
  N  N63  1  0.77806224  0.76101326  0.60063165  1
  N  N64  1  0.56862913  0.86693952  0.35961918  1
  N  N65  1  0.41817038  0.76180634  0.04783843  1
  N  N66  1  0.23890163  0.84552462  0.80064628  1
  N  N67  1  0.12746339  0.75305152  0.57564717  1
  N  N68  1  0.90393039  0.84913110  0.39900382  1
  N  N69  1  0.79318499  0.76019899  0.03934152  1
  N  N70  1  0.55306109  0.86778768  0.81534499  1
  N  N71  1  0.43368176  0.79067685  0.56806662  1
