# generated using pymatgen
data_Gd2Al7N9
_symmetry_space_group_name_H-M   'P 1'
_cell_length_a   9.74098135
_cell_length_b   9.79406884
_cell_length_c   11.12428202
_cell_angle_alpha   90.44200637
_cell_angle_beta   89.97722795
_cell_angle_gamma   59.89333886
_symmetry_Int_Tables_number   1
_chemical_formula_structural   Gd2Al7N9
_chemical_formula_sum   'Gd8 Al28 N36'
_cell_volume   918.08417425
_cell_formula_units_Z   4
loop_
 _symmetry_equiv_pos_site_id
 _symmetry_equiv_pos_as_xyz
  1  'x, y, z'
loop_
 _atom_site_type_symbol
 _atom_site_label
 _atom_site_symmetry_multiplicity
 _atom_site_fract_x
 _atom_site_fract_y
 _atom_site_fract_z
 _atom_site_occupancy
  Al  Al0  1  0.12699104  0.08163396  0.41218277  1
  Al  Al1  1  0.77413226  0.09801212  0.79557216  1
  Al  Al2  1  0.89459302  0.20092217  0.57105784  1
  Al  Al3  1  0.44415258  0.09730625  0.34422550  1
  Al  Al4  1  0.22587613  0.20892655  0.62146881  1
  Al  Al5  1  0.86976201  0.21150364  0.03887799  1
  Al  Al6  1  0.45424997  0.09996858  0.78515456  1
  Al  Al7  1  0.55254145  0.20392132  0.56257604  1
  Al  Al8  1  0.12645469  0.42668364  0.41490789  1
  Al  Al9  1  0.77998240  0.42291001  0.80664626  1
  Al  Al10  1  0.89698640  0.53031143  0.58229125  1
  Al  Al11  1  0.44049213  0.43424362  0.31762337  1
  Al  Al12  1  0.54887333  0.53706493  0.04508623  1
  Al  Al13  1  0.11923480  0.42850150  0.86193444  1
  Al  Al14  1  0.21447351  0.54182404  0.64214350  1
  Al  Al15  1  0.88434314  0.53513478  0.01929548  1
  Al  Al16  1  0.44760094  0.41886435  0.80215927  1
  Al  Al17  1  0.12837651  0.74819143  0.40254065  1
  Al  Al18  1  0.21210002  0.87861444  0.11647538  1
  Al  Al19  1  0.77476929  0.76544911  0.85535683  1
  Al  Al20  1  0.89464099  0.87305372  0.57532483  1
  Al  Al21  1  0.43262465  0.77840774  0.39368230  1
  Al  Al22  1  0.12196324  0.75781613  0.86579352  1
  Al  Al23  1  0.22775876  0.86809359  0.63375975  1
  Al  Al24  1  0.77816202  0.75718339  0.41432618  1
  Al  Al25  1  0.88466615  0.89155331  0.02247939  1
  Al  Al26  1  0.44629746  0.75656629  0.87051927  1
  Al  Al27  1  0.55777789  0.86864903  0.62842693  1
  Gd  Gd28  1  0.17320130  0.22816424  0.16718994  1
  Gd  Gd29  1  0.53071645  0.21275623  0.05081735  1
  Gd  Gd30  1  0.12758840  0.08958547  0.86526788  1
  Gd  Gd31  1  0.79049199  0.07748347  0.30889044  1
  Gd  Gd32  1  0.18009802  0.57069985  0.13496640  1
  Gd  Gd33  1  0.77959528  0.43293087  0.30336323  1
  Gd  Gd34  1  0.55633888  0.53297662  0.57563273  1
  Gd  Gd35  1  0.57487226  0.84136432  0.14464708  1
  N  N36  1  0.22242365  0.20460702  0.37822348  1
  N  N37  1  0.09188195  0.08922009  0.07093263  1
  N  N38  1  0.86072964  0.21641757  0.86581100  1
  N  N39  1  0.77961438  0.09563497  0.61943700  1
  N  N40  1  0.53701631  0.22294661  0.38854799  1
  N  N41  1  0.43356564  0.09837707  0.16617649  1
  N  N42  1  0.23490767  0.22621531  0.79585377  1
  N  N43  1  0.11995253  0.08575042  0.59042779  1
  N  N44  1  0.90512956  0.19930861  0.39717981  1
  N  N45  1  0.78623323  0.08860036  0.09959767  1
  N  N46  1  0.55731891  0.20122665  0.84562906  1
  N  N47  1  0.45645899  0.08860003  0.61162130  1
  N  N48  1  0.21738195  0.53811152  0.34296276  1
  N  N49  1  0.10642884  0.42051794  0.03390314  1
  N  N50  1  0.88539947  0.53742539  0.84669430  1
  N  N51  1  0.81114053  0.40691707  0.63593418  1
  N  N52  1  0.53091039  0.55505249  0.37304757  1
  N  N53  1  0.45255175  0.44675818  0.13914434  1
  N  N54  1  0.21656519  0.54541436  0.81797054  1
  N  N55  1  0.11920555  0.42938096  0.58500289  1
  N  N56  1  0.90088945  0.53890087  0.39805095  1
  N  N57  1  0.77448466  0.43787975  0.08784583  1
  N  N58  1  0.55746260  0.52777466  0.86034638  1
  N  N59  1  0.43550450  0.40718900  0.63309511  1
  N  N60  1  0.21927880  0.87501253  0.32554673  1
  N  N61  1  0.10404005  0.79092549  0.03855687  1
  N  N62  1  0.88818680  0.88113294  0.84480414  1
  N  N63  1  0.77864124  0.75826353  0.59175056  1
  N  N64  1  0.56783965  0.86427802  0.35439103  1
  N  N65  1  0.42244168  0.76272103  0.04626935  1
  N  N66  1  0.24497605  0.83817699  0.80064004  1
  N  N67  1  0.12742045  0.75320773  0.57850843  1
  N  N68  1  0.90414300  0.84929538  0.39869002  1
  N  N69  1  0.79947244  0.75652393  0.03783406  1
  N  N70  1  0.55296010  0.86851649  0.80973902  1
  N  N71  1  0.42845759  0.79524258  0.56539633  1
