# generated using pymatgen
data_Gd2Al7N9
_symmetry_space_group_name_H-M   'P 1'
_cell_length_a   9.73923872
_cell_length_b   9.78721860
_cell_length_c   11.18919324
_cell_angle_alpha   90.22594763
_cell_angle_beta   89.76909711
_cell_angle_gamma   59.86237758
_symmetry_Int_Tables_number   1
_chemical_formula_structural   Gd2Al7N9
_chemical_formula_sum   'Gd8 Al28 N36'
_cell_volume   922.35031591
_cell_formula_units_Z   4
loop_
 _symmetry_equiv_pos_site_id
 _symmetry_equiv_pos_as_xyz
  1  'x, y, z'
loop_
 _atom_site_type_symbol
 _atom_site_label
 _atom_site_symmetry_multiplicity
 _atom_site_fract_x
 _atom_site_fract_y
 _atom_site_fract_z
 _atom_site_occupancy
  Al  Al0  1  0.12836771  0.08324553  0.41550514  1
  Al  Al1  1  0.77090824  0.09870306  0.79537477  1
  Al  Al2  1  0.89459252  0.20177118  0.57253260  1
  Al  Al3  1  0.44425356  0.09840821  0.34016611  1
  Al  Al4  1  0.22706278  0.21016825  0.62412367  1
  Al  Al5  1  0.86918005  0.21095660  0.03610352  1
  Al  Al6  1  0.45396541  0.09935488  0.78708307  1
  Al  Al7  1  0.55218539  0.20280538  0.56169371  1
  Al  Al8  1  0.12793150  0.42651296  0.41449690  1
  Al  Al9  1  0.77764565  0.42503190  0.80665542  1
  Al  Al10  1  0.89750659  0.53053523  0.58067121  1
  Al  Al11  1  0.44160467  0.43526065  0.31786953  1
  Al  Al12  1  0.54956046  0.53535996  0.04403735  1
  Al  Al13  1  0.11930041  0.42858659  0.86460618  1
  Al  Al14  1  0.21457544  0.54062169  0.64229041  1
  Al  Al15  1  0.88409657  0.53496135  0.02052811  1
  Al  Al16  1  0.44691173  0.41810863  0.80200727  1
  Al  Al17  1  0.13001632  0.74981736  0.40529265  1
  Al  Al18  1  0.21284229  0.87757191  0.09869341  1
  Al  Al19  1  0.77395190  0.76505414  0.85703131  1
  Al  Al20  1  0.89465292  0.87326249  0.57565490  1
  Al  Al21  1  0.43321058  0.77991257  0.39645769  1
  Al  Al22  1  0.12034195  0.75661841  0.86337446  1
  Al  Al23  1  0.22938125  0.86620951  0.63351029  1
  Al  Al24  1  0.77802811  0.75908987  0.41478378  1
  Al  Al25  1  0.88364691  0.89130535  0.02188660  1
  Al  Al26  1  0.44600976  0.75614702  0.86877823  1
  Al  Al27  1  0.55913184  0.86779289  0.63052904  1
  Gd  Gd28  1  0.17202944  0.22416469  0.16475680  1
  Gd  Gd29  1  0.53134934  0.21259698  0.05221212  1
  Gd  Gd30  1  0.12076915  0.09275816  0.85517644  1
  Gd  Gd31  1  0.79426316  0.07792042  0.30955648  1
  Gd  Gd32  1  0.17937388  0.57133043  0.13842547  1
  Gd  Gd33  1  0.78106272  0.43423569  0.30381682  1
  Gd  Gd34  1  0.55796073  0.53024563  0.57428926  1
  Gd  Gd35  1  0.57363250  0.83998429  0.14542803  1
  N  N36  1  0.22253321  0.20572642  0.37533781  1
  N  N37  1  0.09313409  0.08816135  0.06085912  1
  N  N38  1  0.85472355  0.21881193  0.86489212  1
  N  N39  1  0.77899246  0.09609777  0.62005864  1
  N  N40  1  0.53844239  0.22203294  0.38757338  1
  N  N41  1  0.43263507  0.09761911  0.16507316  1
  N  N42  1  0.23470221  0.22750177  0.79722970  1
  N  N43  1  0.12058886  0.08694439  0.59405717  1
  N  N44  1  0.90571441  0.20177813  0.39982788  1
  N  N45  1  0.78792916  0.08736615  0.10027409  1
  N  N46  1  0.55544956  0.20112864  0.84801013  1
  N  N47  1  0.45682647  0.08827534  0.61446599  1
  N  N48  1  0.21886302  0.53967674  0.34501100  1
  N  N49  1  0.10644021  0.42179281  0.03647857  1
  N  N50  1  0.88526243  0.53665781  0.84929865  1
  N  N51  1  0.81154452  0.40806453  0.63716728  1
  N  N52  1  0.53248138  0.55570801  0.37294104  1
  N  N53  1  0.45192774  0.44736681  0.13973259  1
  N  N54  1  0.21575647  0.54453755  0.81673046  1
  N  N55  1  0.12000019  0.42850877  0.58389829  1
  N  N56  1  0.90150472  0.54035944  0.39844231  1
  N  N57  1  0.77503978  0.43622031  0.08814246  1
  N  N58  1  0.55603525  0.52760988  0.86033135  1
  N  N59  1  0.43607710  0.40560578  0.63360944  1
  N  N60  1  0.21910891  0.87720591  0.33726613  1
  N  N61  1  0.10356875  0.78700492  0.03506709  1
  N  N62  1  0.88632227  0.88165056  0.84519100  1
  N  N63  1  0.77902437  0.75847066  0.59143850  1
  N  N64  1  0.56826254  0.86523849  0.35388908  1
  N  N65  1  0.42458906  0.76095825  0.04313937  1
  N  N66  1  0.24437707  0.83749035  0.80029175  1
  N  N67  1  0.12710943  0.75283111  0.58048440  1
  N  N68  1  0.90492188  0.85063918  0.40014378  1
  N  N69  1  0.79746282  0.75713339  0.03845049  1
  N  N70  1  0.55341152  0.86757934  0.81017983  1
  N  N71  1  0.43172822  0.79263127  0.56784322  1
