# generated using pymatgen
data_Gd2Al7N9
_symmetry_space_group_name_H-M   'P 1'
_cell_length_a   9.92314549
_cell_length_b   9.88292866
_cell_length_c   10.48455928
_cell_angle_alpha   89.19585462
_cell_angle_beta   88.84840785
_cell_angle_gamma   60.21457727
_symmetry_Int_Tables_number   1
_chemical_formula_structural   Gd2Al7N9
_chemical_formula_sum   'Gd8 Al28 N36'
_cell_volume   892.19206539
_cell_formula_units_Z   4
loop_
 _symmetry_equiv_pos_site_id
 _symmetry_equiv_pos_as_xyz
  1  'x, y, z'
loop_
 _atom_site_type_symbol
 _atom_site_label
 _atom_site_symmetry_multiplicity
 _atom_site_fract_x
 _atom_site_fract_y
 _atom_site_fract_z
 _atom_site_occupancy
  Al  Al0  1  0.12146580  0.09462254  0.38512045  1
  Al  Al1  1  0.77046000  0.09216142  0.78583239  1
  Al  Al2  1  0.89267694  0.20922719  0.55997398  1
  Al  Al3  1  0.44289256  0.10174101  0.32368127  1
  Al  Al4  1  0.22913462  0.21419826  0.55663974  1
  Al  Al5  1  0.87786850  0.20163131  0.02632320  1
  Al  Al6  1  0.44633727  0.09333448  0.78579250  1
  Al  Al7  1  0.54572054  0.20879299  0.55752472  1
  Al  Al8  1  0.10636713  0.43714185  0.31945352  1
  Al  Al9  1  0.78024590  0.42708535  0.81095283  1
  Al  Al10  1  0.89936301  0.53944958  0.56292517  1
  Al  Al11  1  0.44015423  0.43867394  0.31090937  1
  Al  Al12  1  0.55272416  0.53329497  0.03216026  1
  Al  Al13  1  0.11632163  0.43066566  0.79301782  1
  Al  Al14  1  0.21821403  0.53981518  0.54679045  1
  Al  Al15  1  0.88970817  0.54157787  0.04218233  1
  Al  Al16  1  0.43187727  0.42168626  0.78869832  1
  Al  Al17  1  0.11505176  0.76613025  0.30839095  1
  Al  Al18  1  0.20875970  0.86472654  0.03394031  1
  Al  Al19  1  0.77838170  0.76234227  0.79784070  1
  Al  Al20  1  0.89432194  0.86414869  0.55495706  1
  Al  Al21  1  0.44142242  0.76989109  0.36289226  1
  Al  Al22  1  0.10962441  0.74957576  0.79220289  1
  Al  Al23  1  0.22095638  0.86725682  0.56192184  1
  Al  Al24  1  0.79893850  0.75402620  0.31169477  1
  Al  Al25  1  0.89697062  0.87154299  0.04995801  1
  Al  Al26  1  0.44118991  0.75711868  0.82701465  1
  Al  Al27  1  0.56036239  0.87664099  0.56043543  1
  Gd  Gd28  1  0.21195278  0.20256823  0.07128970  1
  Gd  Gd29  1  0.55683447  0.20414638  0.04107513  1
  Gd  Gd30  1  0.10769341  0.09367972  0.80689433  1
  Gd  Gd31  1  0.78184375  0.09288012  0.31276363  1
  Gd  Gd32  1  0.21553930  0.54488665  0.06726276  1
  Gd  Gd33  1  0.78467884  0.44014403  0.28565638  1
  Gd  Gd34  1  0.56419104  0.53378914  0.58023127  1
  Gd  Gd35  1  0.56161085  0.85776709  0.06572593  1
  N  N36  1  0.22406078  0.21298075  0.37051539  1
  N  N37  1  0.08985483  0.07903997  0.04119133  1
  N  N38  1  0.84949287  0.21569380  0.84805602  1
  N  N39  1  0.78002613  0.09238549  0.59856125  1
  N  N40  1  0.52864335  0.22724687  0.37609438  1
  N  N41  1  0.44888601  0.09043994  0.14806791  1
  N  N42  1  0.24016761  0.22078061  0.84951073  1
  N  N43  1  0.11773277  0.09240166  0.57881372  1
  N  N44  1  0.90863208  0.20928708  0.37858165  1
  N  N45  1  0.79693822  0.08178585  0.09821446  1
  N  N46  1  0.55423337  0.20027051  0.82287521  1
  N  N47  1  0.44448743  0.09280223  0.60273739  1
  N  N48  1  0.22168935  0.54488520  0.35703246  1
  N  N49  1  0.06837198  0.44078320  0.14253783  1
  N  N50  1  0.89514957  0.54178813  0.85700798  1
  N  N51  1  0.81968918  0.41119054  0.62759820  1
  N  N52  1  0.53661072  0.55521137  0.36334344  1
  N  N53  1  0.46487209  0.43431984  0.12938737  1
  N  N54  1  0.21887226  0.53731759  0.84693233  1
  N  N55  1  0.11440645  0.43037196  0.60838978  1
  N  N56  1  0.90050559  0.55285292  0.38445482  1
  N  N57  1  0.77288953  0.43143124  0.06371443  1
  N  N58  1  0.55252005  0.52983560  0.83611598  1
  N  N59  1  0.42166520  0.41889901  0.61006139  1
  N  N60  1  0.22250188  0.87352173  0.37214168  1
  N  N61  1  0.09550988  0.78912452  0.12618583  1
  N  N62  1  0.88881740  0.86952599  0.85602729  1
  N  N63  1  0.77934738  0.76187457  0.61523479  1
  N  N64  1  0.56660895  0.87054538  0.36832075  1
  N  N65  1  0.42233521  0.74437555  0.05372210  1
  N  N66  1  0.22586147  0.83786067  0.84688231  1
  N  N67  1  0.11044468  0.75750183  0.60819615  1
  N  N68  1  0.90957989  0.84671004  0.37590167  1
  N  N69  1  0.81247934  0.74472542  0.12251801  1
  N  N70  1  0.55483720  0.87414298  0.84139004  1
  N  N71  1  0.43071085  0.79063492  0.60170762  1
