# generated using pymatgen
data_Gd2Al7N9
_symmetry_space_group_name_H-M   'P 1'
_cell_length_a   9.73644910
_cell_length_b   9.80031773
_cell_length_c   11.07929340
_cell_angle_alpha   89.91057408
_cell_angle_beta   89.65590468
_cell_angle_gamma   60.00650592
_symmetry_Int_Tables_number   1
_chemical_formula_structural   Gd2Al7N9
_chemical_formula_sum   'Gd8 Al28 N36'
_cell_volume   915.59514945
_cell_formula_units_Z   4
loop_
 _symmetry_equiv_pos_site_id
 _symmetry_equiv_pos_as_xyz
  1  'x, y, z'
loop_
 _atom_site_type_symbol
 _atom_site_label
 _atom_site_symmetry_multiplicity
 _atom_site_fract_x
 _atom_site_fract_y
 _atom_site_fract_z
 _atom_site_occupancy
  Al  Al0  1  0.12607464  0.08510377  0.40729663  1
  Al  Al1  1  0.77802116  0.09511557  0.79535621  1
  Al  Al2  1  0.89720407  0.20184319  0.57073395  1
  Al  Al3  1  0.44320815  0.09450776  0.40943012  1
  Al  Al4  1  0.22743739  0.20846108  0.62825890  1
  Al  Al5  1  0.87056843  0.20936221  0.04429662  1
  Al  Al6  1  0.44977353  0.09039546  0.83640755  1
  Al  Al7  1  0.55618097  0.20919685  0.57095365  1
  Al  Al8  1  0.12583453  0.42675539  0.41304475  1
  Al  Al9  1  0.78094513  0.41946408  0.80818319  1
  Al  Al10  1  0.89687000  0.53150933  0.58236951  1
  Al  Al11  1  0.43835445  0.43829770  0.31972608  1
  Al  Al12  1  0.54454402  0.53918164  0.05054496  1
  Al  Al13  1  0.11889271  0.42588849  0.86363348  1
  Al  Al14  1  0.21337024  0.54284362  0.64062519  1
  Al  Al15  1  0.88177723  0.53108514  0.02071068  1
  Al  Al16  1  0.44624695  0.42051267  0.80038005  1
  Al  Al17  1  0.12738080  0.75070179  0.40313734  1
  Al  Al18  1  0.21040174  0.87665137  0.12427717  1
  Al  Al19  1  0.77768013  0.76124439  0.85520290  1
  Al  Al20  1  0.89436858  0.87373252  0.57559696  1
  Al  Al21  1  0.43338665  0.78086439  0.39044279  1
  Al  Al22  1  0.12259847  0.75563358  0.86647275  1
  Al  Al23  1  0.22781946  0.87048615  0.63323916  1
  Al  Al24  1  0.77581371  0.76107849  0.41301409  1
  Al  Al25  1  0.88454351  0.88828794  0.02391776  1
  Al  Al26  1  0.44590958  0.75293378  0.87221125  1
  Al  Al27  1  0.55505079  0.87439513  0.63206132  1
  Gd  Gd28  1  0.20559105  0.21006884  0.15354968  1
  Gd  Gd29  1  0.54036714  0.22330233  0.04266138  1
  Gd  Gd30  1  0.13148659  0.08339500  0.87559382  1
  Gd  Gd31  1  0.78581430  0.08198740  0.31213631  1
  Gd  Gd32  1  0.17214204  0.57221867  0.13831806  1
  Gd  Gd33  1  0.78446903  0.43303867  0.30201591  1
  Gd  Gd34  1  0.55817632  0.53668409  0.57409714  1
  Gd  Gd35  1  0.56999302  0.85313428  0.13466064  1
  N  N36  1  0.22545392  0.20534284  0.36750291  1
  N  N37  1  0.08752801  0.09033966  0.08179939  1
  N  N38  1  0.86434289  0.21195278  0.86911468  1
  N  N39  1  0.78225399  0.09569362  0.62020037  1
  N  N40  1  0.53473775  0.22811394  0.39219480  1
  N  N41  1  0.42709333  0.08169275  0.04918414  1
  N  N42  1  0.23725887  0.22127485  0.79789800  1
  N  N43  1  0.12235722  0.08718272  0.58759390  1
  N  N44  1  0.90493831  0.20104365  0.39741152  1
  N  N45  1  0.78794402  0.08183884  0.10323983  1
  N  N46  1  0.55940499  0.20076894  0.83834953  1
  N  N47  1  0.45221464  0.08970661  0.58586574  1
  N  N48  1  0.21591009  0.54186353  0.34649934  1
  N  N49  1  0.10130088  0.42011495  0.03626992  1
  N  N50  1  0.88567303  0.53456432  0.84668453  1
  N  N51  1  0.81181245  0.40631963  0.63682343  1
  N  N52  1  0.53357773  0.55791713  0.37089133  1
  N  N53  1  0.44221274  0.45289004  0.14364858  1
  N  N54  1  0.21573681  0.54362629  0.81814641  1
  N  N55  1  0.12010358  0.42744742  0.58480373  1
  N  N56  1  0.89954626  0.54308577  0.39907105  1
  N  N57  1  0.76958704  0.43492990  0.08775145  1
  N  N58  1  0.55713804  0.52520265  0.86208920  1
  N  N59  1  0.43452555  0.41299715  0.63220641  1
  N  N60  1  0.21967270  0.87575301  0.32307221  1
  N  N61  1  0.10419924  0.79074427  0.03948100  1
  N  N62  1  0.88879233  0.87885342  0.84535317  1
  N  N63  1  0.77619567  0.76072832  0.59213537  1
  N  N64  1  0.56261211  0.87734519  0.34963584  1
  N  N65  1  0.42103332  0.76127019  0.04834509  1
  N  N66  1  0.24528506  0.83753253  0.80092398  1
  N  N67  1  0.12641896  0.75565999  0.57938904  1
  N  N68  1  0.90339856  0.85185873  0.39902017  1
  N  N69  1  0.80235613  0.74987503  0.03801226  1
  N  N70  1  0.55390265  0.86551828  0.80917965  1
  N  N71  1  0.42897914  0.79838398  0.56388010  1
