# generated using pymatgen
data_Gd2Al7N9
_symmetry_space_group_name_H-M   'P 1'
_cell_length_a   9.79721427
_cell_length_b   9.84795468
_cell_length_c   10.75592222
_cell_angle_alpha   90.21989073
_cell_angle_beta   88.93333886
_cell_angle_gamma   60.21943639
_symmetry_Int_Tables_number   1
_chemical_formula_structural   Gd2Al7N9
_chemical_formula_sum   'Gd8 Al28 N36'
_cell_volume   900.44743496
_cell_formula_units_Z   4
loop_
 _symmetry_equiv_pos_site_id
 _symmetry_equiv_pos_as_xyz
  1  'x, y, z'
loop_
 _atom_site_type_symbol
 _atom_site_label
 _atom_site_symmetry_multiplicity
 _atom_site_fract_x
 _atom_site_fract_y
 _atom_site_fract_z
 _atom_site_occupancy
  Al  Al0  1  0.13262695  0.07985615  0.43085629  1
  Al  Al1  1  0.77916750  0.09672461  0.82839274  1
  Al  Al2  1  0.90058901  0.20022826  0.59748524  1
  Al  Al3  1  0.45127483  0.09667742  0.41799673  1
  Al  Al4  1  0.23457316  0.20468965  0.64701954  1
  Al  Al5  1  0.87266707  0.21198108  0.06864288  1
  Al  Al6  1  0.44622748  0.08948898  0.88803410  1
  Al  Al7  1  0.55470729  0.19531225  0.66076962  1
  Al  Al8  1  0.12416507  0.42219026  0.43624379  1
  Al  Al9  1  0.76888929  0.42101915  0.83763312  1
  Al  Al10  1  0.89930367  0.53378060  0.66481726  1
  Al  Al11  1  0.43387934  0.44407982  0.33101170  1
  Al  Al12  1  0.52844067  0.55163399  0.07210261  1
  Al  Al13  1  0.12639413  0.42412674  0.88734222  1
  Al  Al14  1  0.21517136  0.54068784  0.65071366  1
  Al  Al15  1  0.87625002  0.53650205  0.04224142  1
  Al  Al16  1  0.43490679  0.43075398  0.82959463  1
  Al  Al17  1  0.12701662  0.75315065  0.42241299  1
  Al  Al18  1  0.20869259  0.87705459  0.14983075  1
  Al  Al19  1  0.77484805  0.77125047  0.88031909  1
  Al  Al20  1  0.89967009  0.86392173  0.65481289  1
  Al  Al21  1  0.44350628  0.77491574  0.40925482  1
  Al  Al22  1  0.12024427  0.75483993  0.89430556  1
  Al  Al23  1  0.22982950  0.86701878  0.65444338  1
  Al  Al24  1  0.80520809  0.74249799  0.41537744  1
  Al  Al25  1  0.88490971  0.89024140  0.08820437  1
  Al  Al26  1  0.44302070  0.75892425  0.89157790  1
  Al  Al27  1  0.55972074  0.87375374  0.64616690  1
  Gd  Gd28  1  0.20321368  0.21515085  0.17414611  1
  Gd  Gd29  1  0.53294227  0.23306431  0.10497860  1
  Gd  Gd30  1  0.12687516  0.08699347  0.88655794  1
  Gd  Gd31  1  0.78656546  0.07779856  0.35281028  1
  Gd  Gd32  1  0.12448319  0.59215975  0.19010684  1
  Gd  Gd33  1  0.79376929  0.42279924  0.31798786  1
  Gd  Gd34  1  0.56054207  0.53051850  0.59488868  1
  Gd  Gd35  1  0.56475797  0.86050323  0.15413502  1
  N  N36  1  0.23051736  0.19844792  0.39406006  1
  N  N37  1  0.08863030  0.09222545  0.10207089  1
  N  N38  1  0.86145116  0.21438156  0.89251621  1
  N  N39  1  0.78249814  0.09297695  0.64339609  1
  N  N40  1  0.52069731  0.21937573  0.33153000  1
  N  N41  1  0.42465216  0.08692954  0.06176018  1
  N  N42  1  0.24529771  0.21938387  0.82221090  1
  N  N43  1  0.12471089  0.08486177  0.61925626  1
  N  N44  1  0.91471355  0.19580811  0.42232975  1
  N  N45  1  0.78901667  0.09439393  0.13568732  1
  N  N46  1  0.55706221  0.20056366  0.85315860  1
  N  N47  1  0.45949671  0.08855592  0.59793402  1
  N  N48  1  0.23025669  0.53416591  0.39387741  1
  N  N49  1  0.08961411  0.42769738  0.05927344  1
  N  N50  1  0.88390491  0.54184333  0.85434043  1
  N  N51  1  0.80820637  0.40545239  0.66229741  1
  N  N52  1  0.54177839  0.55228886  0.38638818  1
  N  N53  1  0.40501403  0.48559810  0.15568641  1
  N  N54  1  0.21080609  0.54800808  0.83717028  1
  N  N55  1  0.11084770  0.42754207  0.61196727  1
  N  N56  1  0.92865470  0.53441709  0.36105495  1
  N  N57  1  0.75849704  0.44197138  0.09979372  1
  N  N58  1  0.54906271  0.53245692  0.88148278  1
  N  N59  1  0.43384000  0.40947814  0.65350128  1
  N  N60  1  0.22920919  0.87239453  0.34523629  1
  N  N61  1  0.09759648  0.79147992  0.06850513  1
  N  N62  1  0.89490726  0.87162459  0.83928896  1
  N  N63  1  0.78946795  0.75221733  0.60516569  1
  N  N64  1  0.57561362  0.86842982  0.37000701  1
  N  N65  1  0.41682326  0.77078292  0.07051671  1
  N  N66  1  0.24338956  0.83605721  0.82587434  1
  N  N67  1  0.11630751  0.76285952  0.60061745  1
  N  N68  1  0.93135999  0.82127001  0.34634309  1
  N  N69  1  0.80266803  0.75616127  0.05827726  1
  N  N70  1  0.55658000  0.86819407  0.83112918  1
  N  N71  1  0.43317805  0.79311359  0.58747278  1
