# generated using pymatgen
data_Gd2Al7N9
_symmetry_space_group_name_H-M   'P 1'
_cell_length_a   9.89373109
_cell_length_b   9.83728924
_cell_length_c   10.75610261
_cell_angle_alpha   89.56856014
_cell_angle_beta   89.23010458
_cell_angle_gamma   59.77737913
_symmetry_Int_Tables_number   1
_chemical_formula_structural   Gd2Al7N9
_chemical_formula_sum   'Gd8 Al28 N36'
_cell_volume   904.48863023
_cell_formula_units_Z   4
loop_
 _symmetry_equiv_pos_site_id
 _symmetry_equiv_pos_as_xyz
  1  'x, y, z'
loop_
 _atom_site_type_symbol
 _atom_site_label
 _atom_site_symmetry_multiplicity
 _atom_site_fract_x
 _atom_site_fract_y
 _atom_site_fract_z
 _atom_site_occupancy
  Al  Al0  1  0.12590701  0.08271918  0.38251952  1
  Al  Al1  1  0.76977464  0.09823171  0.78048581  1
  Al  Al2  1  0.89577894  0.20333450  0.55492708  1
  Al  Al3  1  0.44357902  0.10099831  0.32316912  1
  Al  Al4  1  0.23191066  0.20666489  0.55307754  1
  Al  Al5  1  0.87456475  0.20611140  0.02621272  1
  Al  Al6  1  0.44392141  0.10244711  0.78728674  1
  Al  Al7  1  0.54876722  0.20523329  0.55472554  1
  Al  Al8  1  0.10119664  0.43749404  0.32221513  1
  Al  Al9  1  0.77707830  0.42547013  0.80528651  1
  Al  Al10  1  0.90574451  0.52625969  0.57334806  1
  Al  Al11  1  0.44249236  0.43685658  0.30802052  1
  Al  Al12  1  0.54670157  0.53754037  0.03298607  1
  Al  Al13  1  0.12186539  0.43023786  0.79463834  1
  Al  Al14  1  0.22618420  0.52784791  0.54971635  1
  Al  Al15  1  0.88370554  0.53755778  0.02896809  1
  Al  Al16  1  0.43477690  0.42561544  0.78966910  1
  Al  Al17  1  0.12095596  0.75940195  0.37866000  1
  Al  Al18  1  0.20832471  0.87859380  0.10765465  1
  Al  Al19  1  0.77842338  0.76144573  0.84290303  1
  Al  Al20  1  0.89652624  0.87093571  0.56623949  1
  Al  Al21  1  0.43779246  0.77432961  0.37947499  1
  Al  Al22  1  0.11956415  0.75926173  0.85334173  1
  Al  Al23  1  0.23047980  0.86113472  0.61527235  1
  Al  Al24  1  0.77788486  0.75837226  0.40436521  1
  Al  Al25  1  0.88575246  0.88695138  0.01748300  1
  Al  Al26  1  0.43812977  0.76217722  0.85910408  1
  Al  Al27  1  0.55488162  0.87239609  0.62060615  1
  Gd  Gd28  1  0.20893446  0.21121145  0.07409174  1
  Gd  Gd29  1  0.55080025  0.20811840  0.03738614  1
  Gd  Gd30  1  0.10682963  0.10311687  0.81421084  1
  Gd  Gd31  1  0.78362554  0.08480609  0.30389394  1
  Gd  Gd32  1  0.20325702  0.54637726  0.07540704  1
  Gd  Gd33  1  0.79245252  0.43520140  0.28497760  1
  Gd  Gd34  1  0.56434503  0.53260489  0.57261737  1
  Gd  Gd35  1  0.57266581  0.83954067  0.12810013  1
  N  N36  1  0.22477189  0.20818386  0.37137996  1
  N  N37  1  0.09061369  0.08374585  0.04584442  1
  N  N38  1  0.84970333  0.21652550  0.85242344  1
  N  N39  1  0.77858411  0.09750695  0.60003843  1
  N  N40  1  0.53193833  0.22352655  0.37693797  1
  N  N41  1  0.44867256  0.09361062  0.14847459  1
  N  N42  1  0.24439928  0.22296386  0.86043726  1
  N  N43  1  0.12179245  0.08485164  0.57592029  1
  N  N44  1  0.90975202  0.20078946  0.37812766  1
  N  N45  1  0.79437146  0.08340834  0.09257300  1
  N  N46  1  0.55615352  0.20217867  0.82549347  1
  N  N47  1  0.44316035  0.09620910  0.60761256  1
  N  N48  1  0.22456825  0.53483096  0.35822546  1
  N  N49  1  0.04267549  0.45349861  0.15058979  1
  N  N50  1  0.90254129  0.52419678  0.84782711  1
  N  N51  1  0.81849828  0.40396999  0.62852789  1
  N  N52  1  0.53992229  0.55195139  0.36038105  1
  N  N53  1  0.45688147  0.44220185  0.12933240  1
  N  N54  1  0.22369377  0.53632440  0.85282521  1
  N  N55  1  0.12159705  0.42243343  0.61432131  1
  N  N56  1  0.90366869  0.54038113  0.39819387  1
  N  N57  1  0.76492956  0.43697498  0.06661998  1
  N  N58  1  0.55162967  0.53295138  0.84020354  1
  N  N59  1  0.42751438  0.41517537  0.61394274  1
  N  N60  1  0.22309028  0.87492477  0.30612458  1
  N  N61  1  0.09790659  0.79147883  0.03827548  1
  N  N62  1  0.89086697  0.87881083  0.82956114  1
  N  N63  1  0.77775520  0.76068756  0.58895558  1
  N  N64  1  0.56907968  0.86492768  0.34339183  1
  N  N65  1  0.41685887  0.76088154  0.03733402  1
  N  N66  1  0.23942166  0.84134972  0.78883917  1
  N  N67  1  0.12589664  0.75557093  0.56073347  1
  N  N68  1  0.90267105  0.84871206  0.38277534  1
  N  N69  1  0.79634877  0.75864837  0.02527363  1
  N  N70  1  0.55280501  0.86757460  0.80438920  1
  N  N71  1  0.43111363  0.79464756  0.55540994  1
