# generated using pymatgen
data_Gd2Al7N9
_symmetry_space_group_name_H-M   'P 1'
_cell_length_a   9.72413849
_cell_length_b   9.78440596
_cell_length_c   11.00003163
_cell_angle_alpha   89.88059985
_cell_angle_beta   88.91565808
_cell_angle_gamma   60.17763105
_symmetry_Int_Tables_number   1
_chemical_formula_structural   Gd2Al7N9
_chemical_formula_sum   'Gd8 Al28 N36'
_cell_volume   907.80269079
_cell_formula_units_Z   4
loop_
 _symmetry_equiv_pos_site_id
 _symmetry_equiv_pos_as_xyz
  1  'x, y, z'
loop_
 _atom_site_type_symbol
 _atom_site_label
 _atom_site_symmetry_multiplicity
 _atom_site_fract_x
 _atom_site_fract_y
 _atom_site_fract_z
 _atom_site_occupancy
  Al  Al0  1  0.12918823  0.08801362  0.43046928  1
  Al  Al1  1  0.78521611  0.08825463  0.82183950  1
  Al  Al2  1  0.90028567  0.19923102  0.59645912  1
  Al  Al3  1  0.45168097  0.10229690  0.42437730  1
  Al  Al4  1  0.23166255  0.20566171  0.64891247  1
  Al  Al5  1  0.87202677  0.20744418  0.06746245  1
  Al  Al6  1  0.44635181  0.08605454  0.88188488  1
  Al  Al7  1  0.55647431  0.19460219  0.65422836  1
  Al  Al8  1  0.12070720  0.43111381  0.43373534  1
  Al  Al9  1  0.76745420  0.41725323  0.83611901  1
  Al  Al10  1  0.89771939  0.53249555  0.66760296  1
  Al  Al11  1  0.43670833  0.44240858  0.32830026  1
  Al  Al12  1  0.52956175  0.55029869  0.07611280  1
  Al  Al13  1  0.12562802  0.42127895  0.88770991  1
  Al  Al14  1  0.21266016  0.54230547  0.65728319  1
  Al  Al15  1  0.87619672  0.53038020  0.03974471  1
  Al  Al16  1  0.43773450  0.43070765  0.82320456  1
  Al  Al17  1  0.13279654  0.75312435  0.42915066  1
  Al  Al18  1  0.20894523  0.87585630  0.15025349  1
  Al  Al19  1  0.77426413  0.76646726  0.87865661  1
  Al  Al20  1  0.89607763  0.86917935  0.59682494  1
  Al  Al21  1  0.43963609  0.78145414  0.40845765  1
  Al  Al22  1  0.12458615  0.75207936  0.89355507  1
  Al  Al23  1  0.23254341  0.86508287  0.65649189  1
  Al  Al24  1  0.78970197  0.74901125  0.42645937  1
  Al  Al25  1  0.88330869  0.88896264  0.04750269  1
  Al  Al26  1  0.44445604  0.75553037  0.89546089  1
  Al  Al27  1  0.55619649  0.87065364  0.65077510  1
  Gd  Gd28  1  0.21141558  0.21008130  0.17219256  1
  Gd  Gd29  1  0.54053235  0.23678196  0.06809826  1
  Gd  Gd30  1  0.12734345  0.08451472  0.89265898  1
  Gd  Gd31  1  0.79285178  0.08248898  0.33494793  1
  Gd  Gd32  1  0.13187042  0.58576987  0.18038661  1
  Gd  Gd33  1  0.79590747  0.42930819  0.31322240  1
  Gd  Gd34  1  0.56565478  0.52239874  0.57938751  1
  Gd  Gd35  1  0.56904686  0.86243233  0.15596326  1
  N  N36  1  0.22905778  0.20614732  0.38870766  1
  N  N37  1  0.08834830  0.09154392  0.10435517  1
  N  N38  1  0.86079095  0.21080005  0.89397601  1
  N  N39  1  0.78663634  0.08909943  0.64724371  1
  N  N40  1  0.53387825  0.22607467  0.36477747  1
  N  N41  1  0.43103391  0.08773215  0.05556509  1
  N  N42  1  0.24182178  0.21805898  0.82048293  1
  N  N43  1  0.12628817  0.08391159  0.61436725  1
  N  N44  1  0.90786855  0.20666440  0.42471117  1
  N  N45  1  0.78679224  0.08270229  0.12438834  1
  N  N46  1  0.55756195  0.19854148  0.84621299  1
  N  N47  1  0.45602826  0.08706108  0.60129110  1
  N  N48  1  0.22509998  0.54284430  0.38176490  1
  N  N49  1  0.09256117  0.42092485  0.05656386  1
  N  N50  1  0.88572024  0.53657315  0.85424070  1
  N  N51  1  0.80589261  0.40310258  0.66580513  1
  N  N52  1  0.54095161  0.56034138  0.37618818  1
  N  N53  1  0.41053163  0.47387013  0.15586670  1
  N  N54  1  0.21196351  0.54475860  0.83794738  1
  N  N55  1  0.10951035  0.42985158  0.60835655  1
  N  N56  1  0.92300160  0.55110482  0.35763699  1
  N  N57  1  0.76023545  0.43507893  0.10105967  1
  N  N58  1  0.54894015  0.52788845  0.88941863  1
  N  N59  1  0.43372875  0.41196054  0.65354116  1
  N  N60  1  0.22242345  0.87866403  0.34599296  1
  N  N61  1  0.10119422  0.78790478  0.06844234  1
  N  N62  1  0.89146938  0.87638611  0.87012259  1
  N  N63  1  0.78171307  0.74852994  0.61196613  1
  N  N64  1  0.56966011  0.87659356  0.37002282  1
  N  N65  1  0.41887894  0.77098485  0.07255484  1
  N  N66  1  0.24571486  0.83579746  0.82606847  1
  N  N67  1  0.12602982  0.75666925  0.60523558  1
  N  N68  1  0.90879904  0.85106688  0.42242636  1
  N  N69  1  0.80105747  0.74720971  0.05685330  1
  N  N70  1  0.55443131  0.86506123  0.83106771  1
  N  N71  1  0.43534910  0.78680156  0.58543821  1
