# generated using pymatgen
data_Gd2Al7N9
_symmetry_space_group_name_H-M   'P 1'
_cell_length_a   9.79977283
_cell_length_b   9.84876595
_cell_length_c   10.72999799
_cell_angle_alpha   90.14142845
_cell_angle_beta   88.93891115
_cell_angle_gamma   60.25288546
_symmetry_Int_Tables_number   1
_chemical_formula_structural   Gd2Al7N9
_chemical_formula_sum   'Gd8 Al28 N36'
_cell_volume   898.90855892
_cell_formula_units_Z   4
loop_
 _symmetry_equiv_pos_site_id
 _symmetry_equiv_pos_as_xyz
  1  'x, y, z'
loop_
 _atom_site_type_symbol
 _atom_site_label
 _atom_site_symmetry_multiplicity
 _atom_site_fract_x
 _atom_site_fract_y
 _atom_site_fract_z
 _atom_site_occupancy
  Al  Al0  1  0.13231848  0.08008186  0.43063458  1
  Al  Al1  1  0.77984028  0.09484331  0.82840617  1
  Al  Al2  1  0.90068117  0.20119046  0.59796156  1
  Al  Al3  1  0.45008504  0.09709278  0.41793560  1
  Al  Al4  1  0.23452016  0.20502189  0.64654311  1
  Al  Al5  1  0.87361643  0.20996022  0.06976894  1
  Al  Al6  1  0.44627925  0.08944809  0.88787282  1
  Al  Al7  1  0.55386202  0.19617515  0.66101680  1
  Al  Al8  1  0.12361413  0.42275167  0.43569947  1
  Al  Al9  1  0.76907328  0.42118948  0.83861414  1
  Al  Al10  1  0.89878307  0.53511727  0.66442850  1
  Al  Al11  1  0.43416711  0.44428403  0.33146096  1
  Al  Al12  1  0.52988104  0.55082805  0.07106235  1
  Al  Al13  1  0.12567520  0.42426304  0.88604635  1
  Al  Al14  1  0.21416631  0.54209681  0.65022379  1
  Al  Al15  1  0.87659584  0.53719335  0.04301657  1
  Al  Al16  1  0.43391269  0.43140842  0.82985367  1
  Al  Al17  1  0.12620105  0.75397920  0.41730278  1
  Al  Al18  1  0.20903720  0.87675907  0.14916423  1
  Al  Al19  1  0.77641154  0.77345968  0.88326004  1
  Al  Al20  1  0.89929385  0.86371280  0.65443904  1
  Al  Al21  1  0.44329774  0.77505189  0.40919718  1
  Al  Al22  1  0.11529159  0.75753398  0.89593656  1
  Al  Al23  1  0.22887546  0.86705602  0.65368740  1
  Al  Al24  1  0.80462700  0.74249374  0.41151917  1
  Al  Al25  1  0.88873408  0.88425509  0.12047271  1
  Al  Al26  1  0.44227787  0.75902106  0.89071478  1
  Al  Al27  1  0.56020565  0.87388654  0.64594320  1
  Gd  Gd28  1  0.20406036  0.21364402  0.17346087  1
  Gd  Gd29  1  0.53709675  0.23014370  0.10537159  1
  Gd  Gd30  1  0.12602728  0.08722559  0.88542563  1
  Gd  Gd31  1  0.78162488  0.08078795  0.36180985  1
  Gd  Gd32  1  0.13427065  0.58377225  0.18513396  1
  Gd  Gd33  1  0.79350234  0.42278829  0.31745015  1
  Gd  Gd34  1  0.56057176  0.53095773  0.59587035  1
  Gd  Gd35  1  0.56428587  0.85954769  0.15283244  1
  N  N36  1  0.22988920  0.19895750  0.39416852  1
  N  N37  1  0.08996776  0.09116124  0.10094371  1
  N  N38  1  0.86051202  0.21381694  0.89300358  1
  N  N39  1  0.78152645  0.09388249  0.64098729  1
  N  N40  1  0.51923030  0.22085484  0.33275861  1
  N  N41  1  0.42574281  0.08673314  0.06192523  1
  N  N42  1  0.24547540  0.21930200  0.82182480  1
  N  N43  1  0.12452289  0.08512010  0.61917171  1
  N  N44  1  0.91466122  0.19629535  0.42227257  1
  N  N45  1  0.79043311  0.09584085  0.14342714  1
  N  N46  1  0.55737885  0.20036000  0.85276773  1
  N  N47  1  0.45939752  0.08874336  0.59781438  1
  N  N48  1  0.22924742  0.53510338  0.39234414  1
  N  N49  1  0.08999841  0.42508552  0.05790211  1
  N  N50  1  0.88334987  0.54332216  0.85437031  1
  N  N51  1  0.80850294  0.40590437  0.66263141  1
  N  N52  1  0.54169793  0.55249573  0.38653633  1
  N  N53  1  0.40827200  0.48301478  0.15485506  1
  N  N54  1  0.20975922  0.54941490  0.83756733  1
  N  N55  1  0.11052629  0.42822677  0.61181322  1
  N  N56  1  0.92830703  0.53450471  0.36093812  1
  N  N57  1  0.75917168  0.44158345  0.09906731  1
  N  N58  1  0.54895015  0.53254781  0.88067758  1
  N  N59  1  0.43272707  0.41041700  0.65320843  1
  N  N60  1  0.22922187  0.87281490  0.34462975  1
  N  N61  1  0.09620661  0.79174951  0.07073675  1
  N  N62  1  0.89549423  0.87051135  0.83440963  1
  N  N63  1  0.78950918  0.75327884  0.60124923  1
  N  N64  1  0.57494170  0.86928593  0.36901525  1
  N  N65  1  0.41666089  0.76984315  0.06990108  1
  N  N66  1  0.24188473  0.83589307  0.82564546  1
  N  N67  1  0.11417271  0.76453733  0.59639074  1
  N  N68  1  0.93028016  0.82200902  0.32967355  1
  N  N69  1  0.80452968  0.75661817  0.06120502  1
  N  N70  1  0.55758779  0.86790014  0.83143392  1
  N  N71  1  0.43287564  0.79354690  0.58758834  1
