# generated using pymatgen
data_Gd2Al7N9
_symmetry_space_group_name_H-M   'P 1'
_cell_length_a   9.73558897
_cell_length_b   9.80607283
_cell_length_c   10.99075950
_cell_angle_alpha   89.25561089
_cell_angle_beta   88.64608176
_cell_angle_gamma   59.96494492
_symmetry_Int_Tables_number   1
_chemical_formula_structural   Gd2Al7N9
_chemical_formula_sum   'Gd8 Al28 N36'
_cell_volume   908.11428037
_cell_formula_units_Z   4
loop_
 _symmetry_equiv_pos_site_id
 _symmetry_equiv_pos_as_xyz
  1  'x, y, z'
loop_
 _atom_site_type_symbol
 _atom_site_label
 _atom_site_symmetry_multiplicity
 _atom_site_fract_x
 _atom_site_fract_y
 _atom_site_fract_z
 _atom_site_occupancy
  Al  Al0  1  0.13229745  0.08833200  0.43097922  1
  Al  Al1  1  0.77039901  0.09546834  0.81702338  1
  Al  Al2  1  0.89997260  0.20247150  0.59490499  1
  Al  Al3  1  0.44912137  0.09589356  0.42441679  1
  Al  Al4  1  0.23487566  0.20700375  0.65107495  1
  Al  Al5  1  0.86785302  0.20523482  0.06419047  1
  Al  Al6  1  0.44595201  0.08718380  0.88353673  1
  Al  Al7  1  0.55810664  0.20858182  0.58802940  1
  Al  Al8  1  0.12122164  0.43176926  0.43392141  1
  Al  Al9  1  0.76760723  0.41705597  0.83521211  1
  Al  Al10  1  0.90003601  0.53357472  0.66785316  1
  Al  Al11  1  0.43996547  0.44412814  0.33973868  1
  Al  Al12  1  0.53174831  0.54327047  0.07421764  1
  Al  Al13  1  0.12715525  0.42080838  0.88714588  1
  Al  Al14  1  0.21554797  0.54214161  0.65611917  1
  Al  Al15  1  0.87774230  0.52890906  0.03834832  1
  Al  Al16  1  0.44312594  0.41805359  0.82120742  1
  Al  Al17  1  0.13429984  0.75409313  0.42937660  1
  Al  Al18  1  0.20837434  0.87192811  0.14423551  1
  Al  Al19  1  0.77371076  0.76712883  0.87755226  1
  Al  Al20  1  0.89576811  0.87208694  0.59774696  1
  Al  Al21  1  0.43929231  0.78355751  0.41028613  1
  Al  Al22  1  0.12367250  0.75041235  0.89055698  1
  Al  Al23  1  0.23097362  0.86842016  0.65595638  1
  Al  Al24  1  0.79139022  0.75023352  0.42665577  1
  Al  Al25  1  0.88188587  0.88755438  0.04589598  1
  Al  Al26  1  0.44342067  0.75404208  0.89421276  1
  Al  Al27  1  0.55562593  0.87680520  0.65271930  1
  Gd  Gd28  1  0.20323232  0.20505738  0.16899427  1
  Gd  Gd29  1  0.53639325  0.23018562  0.07272491  1
  Gd  Gd30  1  0.12143890  0.08545379  0.88581869  1
  Gd  Gd31  1  0.79682784  0.08318133  0.33667506  1
  Gd  Gd32  1  0.13652228  0.58002327  0.18176800  1
  Gd  Gd33  1  0.79392668  0.43338643  0.31510616  1
  Gd  Gd34  1  0.56320344  0.53450468  0.59038566  1
  Gd  Gd35  1  0.56862708  0.85311440  0.15442322  1
  N  N36  1  0.23093515  0.20762863  0.38384986  1
  N  N37  1  0.08515245  0.08587382  0.09697142  1
  N  N38  1  0.85565969  0.21066034  0.89064776  1
  N  N39  1  0.78167110  0.09510174  0.64081308  1
  N  N40  1  0.54206787  0.22919654  0.40765327  1
  N  N41  1  0.42755315  0.08108403  0.06101966  1
  N  N42  1  0.24130647  0.21773939  0.82212283  1
  N  N43  1  0.12576603  0.08782536  0.61462557  1
  N  N44  1  0.91209781  0.20665773  0.42166283  1
  N  N45  1  0.78494936  0.07922211  0.12728768  1
  N  N46  1  0.55437827  0.20146566  0.86660630  1
  N  N47  1  0.45488151  0.08918073  0.59971816  1
  N  N48  1  0.22626858  0.54333878  0.38476293  1
  N  N49  1  0.09462086  0.42039490  0.05648802  1
  N  N50  1  0.88648100  0.53614116  0.85361304  1
  N  N51  1  0.80920055  0.40457724  0.66433868  1
  N  N52  1  0.54171927  0.56183122  0.38554702  1
  N  N53  1  0.42002655  0.46486382  0.16578139  1
  N  N54  1  0.21421016  0.54279092  0.83571778  1
  N  N55  1  0.11161712  0.43025565  0.60792941  1
  N  N56  1  0.92377932  0.55289186  0.35713757  1
  N  N57  1  0.76231293  0.43258833  0.10123089  1
  N  N58  1  0.54838953  0.52681265  0.88549417  1
  N  N59  1  0.43705047  0.41121075  0.65114263  1
  N  N60  1  0.22367832  0.87998555  0.34608475  1
  N  N61  1  0.10077924  0.78230676  0.06694860  1
  N  N62  1  0.88852800  0.87923238  0.86685560  1
  N  N63  1  0.78180944  0.75065504  0.61169641  1
  N  N64  1  0.57078118  0.87726149  0.36775323  1
  N  N65  1  0.41848528  0.76372361  0.07080616  1
  N  N66  1  0.24458810  0.83559846  0.82499671  1
  N  N67  1  0.12657473  0.75886548  0.60493300  1
  N  N68  1  0.91017804  0.85230690  0.42198831  1
  N  N69  1  0.80039799  0.74578523  0.05494686  1
  N  N70  1  0.55331947  0.86619235  0.83201619  1
  N  N71  1  0.43274511  0.79676708  0.58585654  1
