# generated using pymatgen
data_Gd2Al7N9
_symmetry_space_group_name_H-M   'P 1'
_cell_length_a   9.87386769
_cell_length_b   9.86304831
_cell_length_c   10.64324799
_cell_angle_alpha   90.34628632
_cell_angle_beta   89.38248520
_cell_angle_gamma   60.17680422
_symmetry_Int_Tables_number   1
_chemical_formula_structural   Gd2Al7N9
_chemical_formula_sum   'Gd8 Al28 N36'
_cell_volume   899.10727356
_cell_formula_units_Z   4
loop_
 _symmetry_equiv_pos_site_id
 _symmetry_equiv_pos_as_xyz
  1  'x, y, z'
loop_
 _atom_site_type_symbol
 _atom_site_label
 _atom_site_symmetry_multiplicity
 _atom_site_fract_x
 _atom_site_fract_y
 _atom_site_fract_z
 _atom_site_occupancy
  Al  Al0  1  0.13107305  0.07878583  0.42716051  1
  Al  Al1  1  0.77386047  0.09976279  0.82412181  1
  Al  Al2  1  0.90054568  0.20556213  0.59699969  1
  Al  Al3  1  0.44461634  0.09114051  0.42134005  1
  Al  Al4  1  0.23144492  0.20979874  0.64513212  1
  Al  Al5  1  0.87668767  0.20254344  0.07195178  1
  Al  Al6  1  0.44450016  0.09878128  0.88881886  1
  Al  Al7  1  0.54418688  0.20605652  0.65684937  1
  Al  Al8  1  0.11114433  0.42721803  0.42634070  1
  Al  Al9  1  0.77944403  0.42482470  0.83879401  1
  Al  Al10  1  0.89807397  0.53979353  0.65901876  1
  Al  Al11  1  0.42840596  0.42494363  0.42153506  1
  Al  Al12  1  0.55418311  0.54416630  0.05213059  1
  Al  Al13  1  0.12023723  0.43172617  0.88404941  1
  Al  Al14  1  0.21498495  0.54110055  0.65300267  1
  Al  Al15  1  0.88398306  0.54381382  0.06439489  1
  Al  Al16  1  0.43544593  0.43103985  0.88449737  1
  Al  Al17  1  0.12107027  0.74844532  0.40849010  1
  Al  Al18  1  0.20921522  0.88017242  0.14564827  1
  Al  Al19  1  0.77841826  0.77529903  0.88899631  1
  Al  Al20  1  0.89801070  0.86280793  0.65268172  1
  Al  Al21  1  0.43828172  0.76910321  0.41219718  1
  Al  Al22  1  0.11107551  0.76334517  0.89475352  1
  Al  Al23  1  0.22449789  0.86901998  0.65047557  1
  Al  Al24  1  0.79547423  0.74121322  0.40950997  1
  Al  Al25  1  0.89945185  0.86983242  0.15051304  1
  Al  Al26  1  0.43953049  0.76806540  0.88783094  1
  Al  Al27  1  0.55704826  0.87852886  0.64901875  1
  Gd  Gd28  1  0.20193689  0.21514802  0.16850910  1
  Gd  Gd29  1  0.55011332  0.21324311  0.14078868  1
  Gd  Gd30  1  0.11732915  0.09470042  0.87421234  1
  Gd  Gd31  1  0.78301000  0.07453859  0.38948242  1
  Gd  Gd32  1  0.20569787  0.55630004  0.15505010  1
  Gd  Gd33  1  0.77436658  0.42267290  0.32459236  1
  Gd  Gd34  1  0.55325489  0.54296551  0.62567351  1
  Gd  Gd35  1  0.56114255  0.85880065  0.15061740  1
  N  N36  1  0.22657818  0.19864865  0.38970430  1
  N  N37  1  0.09496995  0.08930731  0.09112250  1
  N  N38  1  0.85329105  0.21812255  0.89358571  1
  N  N39  1  0.77904258  0.09637072  0.63484108  1
  N  N40  1  0.52178604  0.21877565  0.35519712  1
  N  N41  1  0.43013667  0.09079414  0.06472127  1
  N  N42  1  0.24138956  0.22516152  0.82301445  1
  N  N43  1  0.12228940  0.08782054  0.61946288  1
  N  N44  1  0.91630578  0.19408999  0.42095889  1
  N  N45  1  0.80313269  0.08917577  0.15954782  1
  N  N46  1  0.55227592  0.20811977  0.83923645  1
  N  N47  1  0.45385057  0.09040763  0.60017382  1
  N  N48  1  0.22204810  0.53158985  0.37158154  1
  N  N49  1  0.09571791  0.43315992  0.05951773  1
  N  N50  1  0.88893962  0.54743909  0.85241764  1
  N  N51  1  0.81168738  0.40806539  0.66027892  1
  N  N52  1  0.52777984  0.54847594  0.40255391  1
  N  N53  1  0.43987760  0.44615579  0.06044681  1
  N  N54  1  0.21744389  0.54859507  0.83542261  1
  N  N55  1  0.10844898  0.43250185  0.60630581  1
  N  N56  1  0.90963506  0.53312816  0.36428228  1
  N  N57  1  0.76865729  0.44057303  0.10077543  1
  N  N58  1  0.55808461  0.54355737  0.86271117  1
  N  N59  1  0.42480924  0.41082216  0.60343754  1
  N  N60  1  0.22559162  0.87033649  0.34162348  1
  N  N61  1  0.09609276  0.79178160  0.07322031  1
  N  N62  1  0.89402823  0.87334978  0.83229190  1
  N  N63  1  0.78411859  0.75845442  0.59868211  1
  N  N64  1  0.56686477  0.86721509  0.36764988  1
  N  N65  1  0.41922451  0.76176528  0.06956061  1
  N  N66  1  0.23857419  0.83955936  0.82497345  1
  N  N67  1  0.11249841  0.76292021  0.59098421  1
  N  N68  1  0.92108104  0.82175425  0.33159026  1
  N  N69  1  0.80232096  0.76184459  0.06798230  1
  N  N70  1  0.55741495  0.87389959  0.83534581  1
  N  N71  1  0.42765154  0.80095976  0.58991872  1
