# generated using pymatgen
data_Gd2Al7N9
_symmetry_space_group_name_H-M   'P 1'
_cell_length_a   9.93115855
_cell_length_b   9.88431931
_cell_length_c   10.51091678
_cell_angle_alpha   89.21984185
_cell_angle_beta   88.76985678
_cell_angle_gamma   60.17910127
_symmetry_Int_Tables_number   1
_chemical_formula_structural   Gd2Al7N9
_chemical_formula_sum   'Gd8 Al28 N36'
_cell_volume   894.94485725
_cell_formula_units_Z   4
loop_
 _symmetry_equiv_pos_site_id
 _symmetry_equiv_pos_as_xyz
  1  'x, y, z'
loop_
 _atom_site_type_symbol
 _atom_site_label
 _atom_site_symmetry_multiplicity
 _atom_site_fract_x
 _atom_site_fract_y
 _atom_site_fract_z
 _atom_site_occupancy
  Al  Al0  1  0.12129371  0.09469715  0.38390836  1
  Al  Al1  1  0.77046477  0.09213647  0.78556230  1
  Al  Al2  1  0.89228814  0.20980359  0.55946429  1
  Al  Al3  1  0.44350297  0.10244481  0.32286909  1
  Al  Al4  1  0.22955846  0.21363215  0.55629906  1
  Al  Al5  1  0.87802055  0.20135011  0.02636841  1
  Al  Al6  1  0.44673426  0.09174175  0.78661100  1
  Al  Al7  1  0.54556787  0.20916451  0.55749788  1
  Al  Al8  1  0.10675045  0.43691360  0.31938635  1
  Al  Al9  1  0.78072594  0.42669155  0.81024178  1
  Al  Al10  1  0.89943893  0.53966122  0.56279726  1
  Al  Al11  1  0.44080837  0.43928195  0.31173112  1
  Al  Al12  1  0.55518091  0.52871845  0.03428799  1
  Al  Al13  1  0.11624590  0.43073554  0.79262373  1
  Al  Al14  1  0.21822906  0.53957976  0.54620286  1
  Al  Al15  1  0.88990598  0.54120392  0.04215914  1
  Al  Al16  1  0.43148489  0.42077809  0.78867488  1
  Al  Al17  1  0.11544206  0.76653206  0.30770054  1
  Al  Al18  1  0.20579273  0.86553593  0.03337802  1
  Al  Al19  1  0.77688411  0.76256085  0.79876644  1
  Al  Al20  1  0.89436876  0.86427514  0.55462584  1
  Al  Al21  1  0.44134207  0.77118052  0.38030921  1
  Al  Al22  1  0.10949623  0.74951384  0.79141794  1
  Al  Al23  1  0.21745156  0.86919915  0.55911626  1
  Al  Al24  1  0.79991463  0.75453461  0.31166275  1
  Al  Al25  1  0.89699992  0.87131128  0.04911999  1
  Al  Al26  1  0.44114701  0.75360190  0.85351519  1
  Al  Al27  1  0.56275974  0.87868232  0.55619015  1
  Gd  Gd28  1  0.21166048  0.20300668  0.06989134  1
  Gd  Gd29  1  0.55757654  0.20363582  0.04053421  1
  Gd  Gd30  1  0.10763252  0.09416837  0.80585607  1
  Gd  Gd31  1  0.78198710  0.09319147  0.31280635  1
  Gd  Gd32  1  0.21571078  0.54378526  0.06712605  1
  Gd  Gd33  1  0.78417468  0.44106471  0.28728048  1
  Gd  Gd34  1  0.56272360  0.53575444  0.58340754  1
  Gd  Gd35  1  0.56137072  0.85656257  0.07449238  1
  N  N36  1  0.22468328  0.21260108  0.37069552  1
  N  N37  1  0.08995849  0.07901967  0.04063880  1
  N  N38  1  0.84937488  0.21567534  0.84850582  1
  N  N39  1  0.78003355  0.09266219  0.59868274  1
  N  N40  1  0.52870328  0.22746736  0.37645444  1
  N  N41  1  0.44755193  0.09267060  0.14732882  1
  N  N42  1  0.23997981  0.22094275  0.84909907  1
  N  N43  1  0.11712253  0.09295544  0.57874711  1
  N  N44  1  0.90843196  0.20974726  0.37882104  1
  N  N45  1  0.79731436  0.08140723  0.09835957  1
  N  N46  1  0.55422967  0.19954030  0.82301445  1
  N  N47  1  0.44498799  0.09253382  0.60361308  1
  N  N48  1  0.22181208  0.54483258  0.35678064  1
  N  N49  1  0.06822358  0.44054957  0.14266694  1
  N  N50  1  0.89505115  0.54118908  0.85717329  1
  N  N51  1  0.81925515  0.41177716  0.62738251  1
  N  N52  1  0.53752722  0.55429736  0.36411625  1
  N  N53  1  0.46455982  0.43387081  0.13000007  1
  N  N54  1  0.21856515  0.53750720  0.84704286  1
  N  N55  1  0.11440449  0.43028425  0.60837638  1
  N  N56  1  0.90107717  0.55338774  0.38474129  1
  N  N57  1  0.77325000  0.43112432  0.06517880  1
  N  N58  1  0.55339528  0.52804271  0.83612610  1
  N  N59  1  0.42121475  0.41914277  0.61039063  1
  N  N60  1  0.21961734  0.87485231  0.36907324  1
  N  N61  1  0.09565503  0.78813136  0.12519754  1
  N  N62  1  0.88860381  0.86948331  0.85573232  1
  N  N63  1  0.77886355  0.76254648  0.61579202  1
  N  N64  1  0.57058574  0.87204314  0.36395359  1
  N  N65  1  0.42240680  0.74227463  0.04342696  1
  N  N66  1  0.22543835  0.83875068  0.84419345  1
  N  N67  1  0.11022995  0.75736448  0.60787056  1
  N  N68  1  0.91017208  0.84700301  0.37581315  1
  N  N69  1  0.81347339  0.74458536  0.12164786  1
  N  N70  1  0.55388644  0.87282084  0.84551058  1
  N  N71  1  0.43101101  0.79319072  0.57211708  1
