# generated using pymatgen
data_Gd2Al7N9
_symmetry_space_group_name_H-M   'P 1'
_cell_length_a   9.86305794
_cell_length_b   9.84938904
_cell_length_c   10.47241605
_cell_angle_alpha   90.19619484
_cell_angle_beta   90.06733000
_cell_angle_gamma   60.04191963
_symmetry_Int_Tables_number   1
_chemical_formula_structural   Gd2Al7N9
_chemical_formula_sum   'Gd8 Al28 N36'
_cell_volume   881.41220982
_cell_formula_units_Z   4
loop_
 _symmetry_equiv_pos_site_id
 _symmetry_equiv_pos_as_xyz
  1  'x, y, z'
loop_
 _atom_site_type_symbol
 _atom_site_label
 _atom_site_symmetry_multiplicity
 _atom_site_fract_x
 _atom_site_fract_y
 _atom_site_fract_z
 _atom_site_occupancy
  Al  Al0  1  0.11228957  0.08853028  0.30688184  1
  Al  Al1  1  0.77788218  0.09259263  0.78351485  1
  Al  Al2  1  0.89951444  0.20390286  0.54883667  1
  Al  Al3  1  0.43927811  0.09813665  0.31893926  1
  Al  Al4  1  0.22100110  0.20701334  0.54025267  1
  Al  Al5  1  0.88525253  0.20081703  0.03753731  1
  Al  Al6  1  0.44806650  0.09440766  0.77605297  1
  Al  Al7  1  0.54559231  0.20866619  0.55564455  1
  Al  Al8  1  0.10568836  0.43396895  0.31409722  1
  Al  Al9  1  0.78289963  0.42650376  0.80989586  1
  Al  Al10  1  0.89808862  0.53735938  0.55806041  1
  Al  Al11  1  0.43668643  0.43456045  0.30776646  1
  Al  Al12  1  0.54958309  0.54247864  0.03863799  1
  Al  Al13  1  0.11773364  0.43053581  0.78508647  1
  Al  Al14  1  0.21811645  0.54032886  0.54532296  1
  Al  Al15  1  0.88912062  0.54299839  0.04057732  1
  Al  Al16  1  0.43596612  0.42695898  0.78417995  1
  Al  Al17  1  0.11042460  0.76092831  0.30735055  1
  Al  Al18  1  0.21365726  0.86742392  0.05909366  1
  Al  Al19  1  0.78000008  0.76207445  0.79304517  1
  Al  Al20  1  0.89464335  0.86428030  0.55427227  1
  Al  Al21  1  0.43410347  0.76045574  0.30085468  1
  Al  Al22  1  0.11623733  0.75417114  0.79371846  1
  Al  Al23  1  0.22013062  0.87593265  0.54228901  1
  Al  Al24  1  0.79316383  0.75226107  0.30954664  1
  Al  Al25  1  0.89672213  0.87111536  0.04544691  1
  Al  Al26  1  0.44031350  0.76491108  0.79958416  1
  Al  Al27  1  0.55406484  0.87507920  0.54955812  1
  Gd  Gd28  1  0.21631803  0.20606902  0.06245350  1
  Gd  Gd29  1  0.55760085  0.20752790  0.03105434  1
  Gd  Gd30  1  0.11779318  0.08763203  0.79452826  1
  Gd  Gd31  1  0.77475473  0.08781420  0.30816295  1
  Gd  Gd32  1  0.21442425  0.54570083  0.05831429  1
  Gd  Gd33  1  0.77951571  0.43631076  0.28513685  1
  Gd  Gd34  1  0.56005946  0.54174604  0.56721557  1
  Gd  Gd35  1  0.56227967  0.86268552  0.05821460  1
  N  N36  1  0.21740161  0.20663443  0.35486319  1
  N  N37  1  0.09167089  0.08223853  0.11555458  1
  N  N38  1  0.86586451  0.21097147  0.85685700  1
  N  N39  1  0.78282884  0.09194449  0.59644552  1
  N  N40  1  0.52394244  0.22561162  0.37430481  1
  N  N41  1  0.45265141  0.09530275  0.14190194  1
  N  N42  1  0.24203007  0.22017665  0.84413812  1
  N  N43  1  0.11628344  0.09212852  0.58395828  1
  N  N44  1  0.90760039  0.20142278  0.36971323  1
  N  N45  1  0.79755228  0.08197478  0.09265334  1
  N  N46  1  0.55831555  0.20264467  0.81342537  1
  N  N47  1  0.44115037  0.09277101  0.59328059  1
  N  N48  1  0.21946709  0.54195419  0.35600334  1
  N  N49  1  0.07354382  0.44162277  0.13575188  1
  N  N50  1  0.89732377  0.54183568  0.85472355  1
  N  N51  1  0.81689582  0.40904670  0.62395850  1
  N  N52  1  0.53209658  0.55246686  0.35760372  1
  N  N53  1  0.46309975  0.43603296  0.12474706  1
  N  N54  1  0.22192658  0.53871709  0.83877267  1
  N  N55  1  0.11547034  0.42709150  0.60094246  1
  N  N56  1  0.89893397  0.54945458  0.37905389  1
  N  N57  1  0.77343319  0.43416767  0.06528927  1
  N  N58  1  0.55140347  0.54032157  0.84332219  1
  N  N59  1  0.42541950  0.42184783  0.60638477  1
  N  N60  1  0.22104785  0.87091203  0.35930640  1
  N  N61  1  0.09336365  0.78645968  0.12562923  1
  N  N62  1  0.89277950  0.86950369  0.85243979  1
  N  N63  1  0.77723142  0.76087946  0.61049434  1
  N  N64  1  0.56024427  0.86446300  0.35888808  1
  N  N65  1  0.42614381  0.74862252  0.11641755  1
  N  N66  1  0.23477275  0.84051272  0.87434607  1
  N  N67  1  0.11460116  0.76273751  0.60771427  1
  N  N68  1  0.90659984  0.84311105  0.37567566  1
  N  N69  1  0.81082257  0.74752269  0.11914233  1
  N  N70  1  0.55565260  0.87685154  0.83899016  1
  N  N71  1  0.42217756  0.79762946  0.61827599  1
