# generated using pymatgen
data_Gd2Al7N9
_symmetry_space_group_name_H-M   'P 1'
_cell_length_a   9.75873246
_cell_length_b   9.81401004
_cell_length_c   11.02399896
_cell_angle_alpha   89.54759306
_cell_angle_beta   89.33378956
_cell_angle_gamma   60.06164220
_symmetry_Int_Tables_number   1
_chemical_formula_structural   Gd2Al7N9
_chemical_formula_sum   'Gd8 Al28 N36'
_cell_volume   914.84707786
_cell_formula_units_Z   4
loop_
 _symmetry_equiv_pos_site_id
 _symmetry_equiv_pos_as_xyz
  1  'x, y, z'
loop_
 _atom_site_type_symbol
 _atom_site_label
 _atom_site_symmetry_multiplicity
 _atom_site_fract_x
 _atom_site_fract_y
 _atom_site_fract_z
 _atom_site_occupancy
  Al  Al0  1  0.12769456  0.08750207  0.42346903  1
  Al  Al1  1  0.77084635  0.09612248  0.81141923  1
  Al  Al2  1  0.89671921  0.20341474  0.58800853  1
  Al  Al3  1  0.44249707  0.09700120  0.42100992  1
  Al  Al4  1  0.23334736  0.20722887  0.64838676  1
  Al  Al5  1  0.87433344  0.20730169  0.06005133  1
  Al  Al6  1  0.44626367  0.08692338  0.87923604  1
  Al  Al7  1  0.55450617  0.21007125  0.58482291  1
  Al  Al8  1  0.12572313  0.42688099  0.42862260  1
  Al  Al9  1  0.77587638  0.42135882  0.82558102  1
  Al  Al10  1  0.89681781  0.53204359  0.60003479  1
  Al  Al11  1  0.43784725  0.44170482  0.33637714  1
  Al  Al12  1  0.54382664  0.54085913  0.06760671  1
  Al  Al13  1  0.11896754  0.42279439  0.88079180  1
  Al  Al14  1  0.21348383  0.54172766  0.65581717  1
  Al  Al15  1  0.88183002  0.52919155  0.03779243  1
  Al  Al16  1  0.44420680  0.41761881  0.81735145  1
  Al  Al17  1  0.12707189  0.75245413  0.41981760  1
  Al  Al18  1  0.21164720  0.87513656  0.13615542  1
  Al  Al19  1  0.77824684  0.75961272  0.86994778  1
  Al  Al20  1  0.89383601  0.87396936  0.59364522  1
  Al  Al21  1  0.43380562  0.78312083  0.40563531  1
  Al  Al22  1  0.12319525  0.75228438  0.88149407  1
  Al  Al23  1  0.22907152  0.86916507  0.64776313  1
  Al  Al24  1  0.77479024  0.76324855  0.42992672  1
  Al  Al25  1  0.88707595  0.88601780  0.04031136  1
  Al  Al26  1  0.44440463  0.75349554  0.88867905  1
  Al  Al27  1  0.55209785  0.88025943  0.65134730  1
  Gd  Gd28  1  0.21243933  0.20246160  0.16119609  1
  Gd  Gd29  1  0.54971135  0.22601537  0.06236627  1
  Gd  Gd30  1  0.11924535  0.08448637  0.87687672  1
  Gd  Gd31  1  0.78910980  0.08290370  0.33113638  1
  Gd  Gd32  1  0.17001139  0.57129117  0.15666412  1
  Gd  Gd33  1  0.78529894  0.43524251  0.32006771  1
  Gd  Gd34  1  0.55617835  0.54014083  0.59274829  1
  Gd  Gd35  1  0.57264332  0.85391273  0.14771325  1
  N  N36  1  0.22502835  0.20768531  0.37640099  1
  N  N37  1  0.09269649  0.08665427  0.08687992  1
  N  N38  1  0.85376883  0.21492765  0.88552392  1
  N  N39  1  0.78015461  0.09685008  0.63540618  1
  N  N40  1  0.53505821  0.22996518  0.40425232  1
  N  N41  1  0.43681278  0.08148642  0.05594335  1
  N  N42  1  0.23998838  0.21683045  0.81933488  1
  N  N43  1  0.12240578  0.08887631  0.60765522  1
  N  N44  1  0.90767545  0.20283800  0.41452721  1
  N  N45  1  0.79529030  0.07743497  0.12237201  1
  N  N46  1  0.55542199  0.19995256  0.85810071  1
  N  N47  1  0.45086957  0.09107381  0.59550587  1
  N  N48  1  0.21627990  0.54378182  0.36511646  1
  N  N49  1  0.09988056  0.41925639  0.05464674  1
  N  N50  1  0.88531407  0.53239822  0.86322795  1
  N  N51  1  0.80973189  0.40770555  0.65338858  1
  N  N52  1  0.53382687  0.56006491  0.38795026  1
  N  N53  1  0.43881691  0.45704231  0.16010473  1
  N  N54  1  0.21424976  0.54133948  0.83394573  1
  N  N55  1  0.12063077  0.42526938  0.60188169  1
  N  N56  1  0.89967351  0.54565458  0.41657756  1
  N  N57  1  0.76946261  0.43269253  0.10480663  1
  N  N58  1  0.55347289  0.52580424  0.87911735  1
  N  N59  1  0.43430870  0.41256137  0.64769141  1
  N  N60  1  0.21938326  0.87843830  0.33954135  1
  N  N61  1  0.10607554  0.78724552  0.05501709  1
  N  N62  1  0.88862900  0.87854855  0.86077994  1
  N  N63  1  0.77443116  0.76225763  0.61087841  1
  N  N64  1  0.56343551  0.87905850  0.36183967  1
  N  N65  1  0.42311583  0.76185651  0.06559624  1
  N  N66  1  0.24643321  0.83351906  0.81603861  1
  N  N67  1  0.12607456  0.75599826  0.59635867  1
  N  N68  1  0.90371625  0.85227098  0.41645815  1
  N  N69  1  0.80607265  0.74660332  0.05507846  1
  N  N70  1  0.55307908  0.86584092  0.82905544  1
  N  N71  1  0.42930171  0.80163633  0.57973147  1
