# generated using pymatgen
data_Gd2Al7N9
_symmetry_space_group_name_H-M   'P 1'
_cell_length_a   9.75873352
_cell_length_b   9.81401373
_cell_length_c   11.02396804
_cell_angle_alpha   89.54766243
_cell_angle_beta   89.33386367
_cell_angle_gamma   60.06168755
_symmetry_Int_Tables_number   1
_chemical_formula_structural   Gd2Al7N9
_chemical_formula_sum   'Gd8 Al28 N36'
_cell_volume   914.84538744
_cell_formula_units_Z   4
loop_
 _symmetry_equiv_pos_site_id
 _symmetry_equiv_pos_as_xyz
  1  'x, y, z'
loop_
 _atom_site_type_symbol
 _atom_site_label
 _atom_site_symmetry_multiplicity
 _atom_site_fract_x
 _atom_site_fract_y
 _atom_site_fract_z
 _atom_site_occupancy
  Al  Al0  1  0.12769464  0.08747003  0.41910294  1
  Al  Al1  1  0.77084716  0.09609212  0.80705047  1
  Al  Al2  1  0.89671755  0.20338378  0.58363829  1
  Al  Al3  1  0.44249586  0.09697028  0.41664440  1
  Al  Al4  1  0.23334496  0.20719772  0.64402307  1
  Al  Al5  1  0.87433022  0.20727188  0.05568316  1
  Al  Al6  1  0.44626473  0.08689186  0.87486557  1
  Al  Al7  1  0.55450526  0.21004002  0.58045717  1
  Al  Al8  1  0.12572154  0.42684950  0.42425809  1
  Al  Al9  1  0.77587649  0.42132641  0.82121224  1
  Al  Al10  1  0.89681649  0.53201258  0.59567185  1
  Al  Al11  1  0.43784577  0.44167358  0.33201555  1
  Al  Al12  1  0.54382475  0.54082861  0.06324330  1
  Al  Al13  1  0.11896727  0.42276372  0.87642353  1
  Al  Al14  1  0.21348262  0.54169664  0.65145230  1
  Al  Al15  1  0.88182739  0.52916238  0.03342152  1
  Al  Al16  1  0.44420739  0.41758751  0.81298383  1
  Al  Al17  1  0.12707049  0.75242269  0.41545608  1
  Al  Al18  1  0.21164431  0.87510635  0.13179534  1
  Al  Al19  1  0.77824627  0.75958189  0.86557451  1
  Al  Al20  1  0.89383457  0.87393811  0.58928351  1
  Al  Al21  1  0.43380456  0.78308956  0.40127148  1
  Al  Al22  1  0.12319628  0.75225244  0.87712946  1
  Al  Al23  1  0.22906902  0.86913577  0.64340065  1
  Al  Al24  1  0.77479069  0.76321678  0.42556037  1
  Al  Al25  1  0.88707296  0.88598761  0.03594125  1
  Al  Al26  1  0.44440506  0.75346429  0.88431504  1
  Al  Al27  1  0.55209544  0.88022900  0.64697861  1
  Gd  Gd28  1  0.21243696  0.20243317  0.15682956  1
  Gd  Gd29  1  0.54970679  0.22598639  0.05799928  1
  Gd  Gd30  1  0.11924764  0.08445394  0.87251551  1
  Gd  Gd31  1  0.78910901  0.08287102  0.32676924  1
  Gd  Gd32  1  0.17000917  0.57126115  0.15230013  1
  Gd  Gd33  1  0.78529725  0.43521207  0.31570169  1
  Gd  Gd34  1  0.55617559  0.54011210  0.58838472  1
  Gd  Gd35  1  0.57264208  0.85388371  0.14334610  1
  N  N36  1  0.22502761  0.20765413  0.37203504  1
  N  N37  1  0.09269273  0.08662448  0.08251807  1
  N  N38  1  0.85377102  0.21489567  0.88115539  1
  N  N39  1  0.78015321  0.09681996  0.63103798  1
  N  N40  1  0.53505811  0.22993290  0.39988666  1
  N  N41  1  0.43680952  0.08145642  0.05157449  1
  N  N42  1  0.23998775  0.21679912  0.81496986  1
  N  N43  1  0.12240343  0.08884575  0.60328920  1
  N  N44  1  0.90767582  0.20280555  0.41015756  1
  N  N45  1  0.79528612  0.07740481  0.11800301  1
  N  N46  1  0.55542301  0.19992125  0.85373255  1
  N  N47  1  0.45086730  0.09104378  0.59114064  1
  N  N48  1  0.21627863  0.54375077  0.36075377  1
  N  N49  1  0.09987759  0.41922786  0.05027909  1
  N  N50  1  0.88531436  0.53236694  0.85885633  1
  N  N51  1  0.80973004  0.40767357  0.64901968  1
  N  N52  1  0.53382603  0.56003373  0.38358683  1
  N  N53  1  0.43881513  0.45701168  0.15574170  1
  N  N54  1  0.21425106  0.54130786  0.82958038  1
  N  N55  1  0.12062911  0.42523820  0.59751763  1
  N  N56  1  0.89967275  0.54562317  0.41221236  1
  N  N57  1  0.76946114  0.43266280  0.10043908  1
  N  N58  1  0.55347301  0.52577300  0.87475098  1
  N  N59  1  0.43430694  0.41253061  0.64332381  1
  N  N60  1  0.21938250  0.87840583  0.33517633  1
  N  N61  1  0.10607247  0.78721598  0.05065284  1
  N  N62  1  0.88863028  0.87851686  0.85640925  1
  N  N63  1  0.77442978  0.76222629  0.60651406  1
  N  N64  1  0.56343505  0.87902693  0.35747450  1
  N  N65  1  0.42311367  0.76182599  0.06123278  1
  N  N66  1  0.24643340  0.83348814  0.81167547  1
  N  N67  1  0.12607288  0.75596778  0.59199642  1
  N  N68  1  0.90371556  0.85224016  0.41209479  1
  N  N69  1  0.80606867  0.74657406  0.05070682  1
  N  N70  1  0.55307776  0.86580982  0.82468719  1
  N  N71  1  0.42929788  0.80160720  0.57536646  1
