# generated using pymatgen
data_Gd2Al7N9
_symmetry_space_group_name_H-M   'P 1'
_cell_length_a   9.75873090
_cell_length_b   9.81401182
_cell_length_c   11.02398514
_cell_angle_alpha   89.54768061
_cell_angle_beta   89.33386086
_cell_angle_gamma   60.06165817
_symmetry_Int_Tables_number   1
_chemical_formula_structural   Gd2Al7N9
_chemical_formula_sum   'Gd8 Al28 N36'
_cell_volume   914.84611384
_cell_formula_units_Z   4
loop_
 _symmetry_equiv_pos_site_id
 _symmetry_equiv_pos_as_xyz
  1  'x, y, z'
loop_
 _atom_site_type_symbol
 _atom_site_label
 _atom_site_symmetry_multiplicity
 _atom_site_fract_x
 _atom_site_fract_y
 _atom_site_fract_z
 _atom_site_occupancy
  Al  Al0  1  0.12768350  0.08741673  0.41079828  1
  Al  Al1  1  0.77083586  0.09603868  0.79874705  1
  Al  Al2  1  0.89670750  0.20333019  0.57533617  1
  Al  Al3  1  0.44248532  0.09691614  0.40834125  1
  Al  Al4  1  0.23333468  0.20714397  0.63571851  1
  Al  Al5  1  0.87431980  0.20721865  0.04738041  1
  Al  Al6  1  0.44625352  0.08683855  0.86656362  1
  Al  Al7  1  0.55449483  0.20998689  0.57215187  1
  Al  Al8  1  0.12571200  0.42679569  0.41595491  1
  Al  Al9  1  0.77586650  0.42127305  0.81290878  1
  Al  Al10  1  0.89680579  0.53195927  0.58736540  1
  Al  Al11  1  0.43783515  0.44162041  0.32371134  1
  Al  Al12  1  0.54381400  0.54077566  0.05493922  1
  Al  Al13  1  0.11895620  0.42271025  0.86812022  1
  Al  Al14  1  0.21347193  0.54164305  0.64314872  1
  Al  Al15  1  0.88181767  0.52910838  0.02512061  1
  Al  Al16  1  0.44419661  0.41753340  0.80467994  1
  Al  Al17  1  0.12706029  0.75236914  0.40715189  1
  Al  Al18  1  0.21163437  0.87505271  0.12348867  1
  Al  Al19  1  0.77823530  0.75952807  0.85727431  1
  Al  Al20  1  0.89382385  0.87388459  0.58097883  1
  Al  Al21  1  0.43379413  0.78303593  0.39296775  1
  Al  Al22  1  0.12318497  0.75219931  0.86882361  1
  Al  Al23  1  0.22905848  0.86908271  0.63509502  1
  Al  Al24  1  0.77477992  0.76316363  0.41725596  1
  Al  Al25  1  0.88706290  0.88593461  0.02763766  1
  Al  Al26  1  0.44439446  0.75341037  0.87600915  1
  Al  Al27  1  0.55208567  0.88017559  0.63867554  1
  Gd  Gd28  1  0.21242665  0.20237985  0.14852679  1
  Gd  Gd29  1  0.54969606  0.22593326  0.04969662  1
  Gd  Gd30  1  0.11923716  0.08440009  0.86421195  1
  Gd  Gd31  1  0.78909868  0.08281769  0.31846560  1
  Gd  Gd32  1  0.16999755  0.57120936  0.14399678  1
  Gd  Gd33  1  0.78528639  0.43515835  0.30739887  1
  Gd  Gd34  1  0.55616495  0.54005887  0.58008192  1
  Gd  Gd35  1  0.57263111  0.85382988  0.13504284  1
  N  N36  1  0.22501714  0.20760053  0.36373169  1
  N  N37  1  0.09268253  0.08657152  0.07421427  1
  N  N38  1  0.85376044  0.21484213  0.87285222  1
  N  N39  1  0.78014255  0.09676651  0.62273467  1
  N  N40  1  0.53504723  0.22987924  0.39158214  1
  N  N41  1  0.43679902  0.08140284  0.04327181  1
  N  N42  1  0.23997694  0.21674550  0.80666573  1
  N  N43  1  0.12239334  0.08879238  0.59498450  1
  N  N44  1  0.90766455  0.20275233  0.40185509  1
  N  N45  1  0.79527595  0.07735156  0.10969971  1
  N  N46  1  0.55541193  0.19986790  0.84543028  1
  N  N47  1  0.45085732  0.09099027  0.58283685  1
  N  N48  1  0.21626831  0.54369712  0.35245000  1
  N  N49  1  0.09986849  0.41917426  0.04197605  1
  N  N50  1  0.88530324  0.53231338  0.85055572  1
  N  N51  1  0.80972004  0.40762066  0.64071633  1
  N  N52  1  0.53381536  0.55998000  0.37528395  1
  N  N53  1  0.43880381  0.45695960  0.14743779  1
  N  N54  1  0.21423988  0.54125428  0.82127595  1
  N  N55  1  0.12061847  0.42518474  0.58921378  1
  N  N56  1  0.89966290  0.54556969  0.40390763  1
  N  N57  1  0.76945029  0.43260941  0.09213667  1
  N  N58  1  0.55346254  0.52571923  0.86644643  1
  N  N59  1  0.43429653  0.41247675  0.63502000  1
  N  N60  1  0.21937213  0.87835224  0.32687246  1
  N  N61  1  0.10606262  0.78716245  0.04234699  1
  N  N62  1  0.88861863  0.87846338  0.84810610  1
  N  N63  1  0.77441915  0.76217277  0.59820879  1
  N  N64  1  0.56342435  0.87897335  0.34917052  1
  N  N65  1  0.42310329  0.76177290  0.05292697  1
  N  N66  1  0.24642255  0.83343473  0.80336973  1
  N  N67  1  0.12606231  0.75591422  0.58369211  1
  N  N68  1  0.90370520  0.85218660  0.40379029  1
  N  N69  1  0.80605891  0.74652065  0.04240523  1
  N  N70  1  0.55306757  0.86575634  0.81638391  1
  N  N71  1  0.42928805  0.80155395  0.56706249  1
