# generated using pymatgen
data_Gd2Al7N9
_symmetry_space_group_name_H-M   'P 1'
_cell_length_a   9.88051303
_cell_length_b   9.87321919
_cell_length_c   10.48316974
_cell_angle_alpha   90.47129147
_cell_angle_beta   91.13034539
_cell_angle_gamma   59.99052324
_symmetry_Int_Tables_number   1
_chemical_formula_structural   Gd2Al7N9
_chemical_formula_sum   'Gd8 Al28 N36'
_cell_volume   885.39026602
_cell_formula_units_Z   4
loop_
 _symmetry_equiv_pos_site_id
 _symmetry_equiv_pos_as_xyz
  1  'x, y, z'
loop_
 _atom_site_type_symbol
 _atom_site_label
 _atom_site_symmetry_multiplicity
 _atom_site_fract_x
 _atom_site_fract_y
 _atom_site_fract_z
 _atom_site_occupancy
  Al  Al0  1  0.11174239  0.08825929  0.41536877  1
  Al  Al1  1  0.78318694  0.09221847  0.89183386  1
  Al  Al2  1  0.88686498  0.20959672  0.65707395  1
  Al  Al3  1  0.44083220  0.09344490  0.42592014  1
  Al  Al4  1  0.22302403  0.21211078  0.63631155  1
  Al  Al5  1  0.90304448  0.19084106  0.14466514  1
  Al  Al6  1  0.44690461  0.09633190  0.88363380  1
  Al  Al7  1  0.55377269  0.20088042  0.66443988  1
  Al  Al8  1  0.10610844  0.43633266  0.41929249  1
  Al  Al9  1  0.78754708  0.42873871  0.89723127  1
  Al  Al10  1  0.89191214  0.53814039  0.65189075  1
  Al  Al11  1  0.42273785  0.42878452  0.42548630  1
  Al  Al12  1  0.55679022  0.54042670  0.06556590  1
  Al  Al13  1  0.11242237  0.43062931  0.88611429  1
  Al  Al14  1  0.21122627  0.54186397  0.65385535  1
  Al  Al15  1  0.89727254  0.54225228  0.13712765  1
  Al  Al16  1  0.43866841  0.42612540  0.88653017  1
  Al  Al17  1  0.11320858  0.75664762  0.40752583  1
  Al  Al18  1  0.21857005  0.87098276  0.15336499  1
  Al  Al19  1  0.78803781  0.75805039  0.89203235  1
  Al  Al20  1  0.89125326  0.87044371  0.65734945  1
  Al  Al21  1  0.42941174  0.77253667  0.41404197  1
  Al  Al22  1  0.11488267  0.75959211  0.89490921  1
  Al  Al23  1  0.21690817  0.87426381  0.64808684  1
  Al  Al24  1  0.78873070  0.75722136  0.40285640  1
  Al  Al25  1  0.90324181  0.86771145  0.13830208  1
  Al  Al26  1  0.44179352  0.76501965  0.89167974  1
  Al  Al27  1  0.55634843  0.87711479  0.65012993  1
  Gd  Gd28  1  0.21927552  0.20846007  0.17393093  1
  Gd  Gd29  1  0.56212436  0.20445238  0.13783359  1
  Gd  Gd30  1  0.12199366  0.09242830  0.88839916  1
  Gd  Gd31  1  0.77549817  0.08904892  0.40595918  1
  Gd  Gd32  1  0.21623619  0.54737739  0.15295740  1
  Gd  Gd33  1  0.76978104  0.43834125  0.37353920  1
  Gd  Gd34  1  0.55124768  0.54487867  0.64065308  1
  Gd  Gd35  1  0.56704632  0.85762547  0.14715757  1
  N  N36  1  0.21738296  0.20560988  0.39730703  1
  N  N37  1  0.11177442  0.07965839  0.10032933  1
  N  N38  1  0.86534585  0.22283639  0.83833843  1
  N  N39  1  0.77578820  0.09521075  0.61984222  1
  N  N40  1  0.51584463  0.22092235  0.35425039  1
  N  N41  1  0.43532489  0.09074680  0.06173372  1
  N  N42  1  0.23796750  0.22375089  0.81943213  1
  N  N43  1  0.10255429  0.09336997  0.60468157  1
  N  N44  1  0.91562003  0.18634020  0.32573557  1
  N  N45  1  0.80905415  0.07859051  0.07755957  1
  N  N46  1  0.56100537  0.20285805  0.84850609  1
  N  N47  1  0.45263170  0.09147669  0.60618617  1
  N  N48  1  0.21449847  0.53938084  0.37149658  1
  N  N49  1  0.09309935  0.42818982  0.06504565  1
  N  N50  1  0.88834879  0.54041083  0.83524115  1
  N  N51  1  0.80629788  0.41464749  0.59212008  1
  N  N52  1  0.51320764  0.55475953  0.40160529  1
  N  N53  1  0.44736398  0.43886935  0.06505088  1
  N  N54  1  0.21711292  0.54411415  0.84006085  1
  N  N55  1  0.10125173  0.43847170  0.59938564  1
  N  N56  1  0.90892531  0.55283148  0.32426921  1
  N  N57  1  0.78177542  0.42964026  0.09364151  1
  N  N58  1  0.56321980  0.54000259  0.87177220  1
  N  N59  1  0.42449262  0.41029556  0.61001613  1
  N  N60  1  0.21863192  0.87256680  0.34482093  1
  N  N61  1  0.10592853  0.78443105  0.07652145  1
  N  N62  1  0.89427665  0.86981227  0.83844618  1
  N  N63  1  0.78168344  0.76031634  0.59204799  1
  N  N64  1  0.55681086  0.87254912  0.36620934  1
  N  N65  1  0.42402233  0.75657869  0.07699795  1
  N  N66  1  0.23837267  0.84021715  0.82590482  1
  N  N67  1  0.10580150  0.76546805  0.59237037  1
  N  N68  1  0.90501191  0.84694089  0.32701678  1
  N  N69  1  0.81143545  0.74917812  0.07294825  1
  N  N70  1  0.56131585  0.86748421  0.83932995  1
  N  N71  1  0.42252281  0.80290233  0.59291669  1
