# generated using pymatgen
data_Gd2Al7N9
_symmetry_space_group_name_H-M   'P 1'
_cell_length_a   9.92958233
_cell_length_b   9.92309687
_cell_length_c   10.50455828
_cell_angle_alpha   90.46489997
_cell_angle_beta   89.90406117
_cell_angle_gamma   59.85290969
_symmetry_Int_Tables_number   1
_chemical_formula_structural   Gd2Al7N9
_chemical_formula_sum   'Gd8 Al28 N36'
_cell_volume   894.98782923
_cell_formula_units_Z   4
loop_
 _symmetry_equiv_pos_site_id
 _symmetry_equiv_pos_as_xyz
  1  'x, y, z'
loop_
 _atom_site_type_symbol
 _atom_site_label
 _atom_site_symmetry_multiplicity
 _atom_site_fract_x
 _atom_site_fract_y
 _atom_site_fract_z
 _atom_site_occupancy
  Al  Al0  1  0.12677703  0.08153637  0.42624207  1
  Al  Al1  1  0.77666410  0.09764412  0.82321629  1
  Al  Al2  1  0.89576706  0.20658490  0.60228263  1
  Al  Al3  1  0.44262721  0.09173787  0.42004232  1
  Al  Al4  1  0.22681014  0.21250657  0.64124559  1
  Al  Al5  1  0.88273707  0.20619411  0.09251179  1
  Al  Al6  1  0.44485700  0.09670299  0.88299373  1
  Al  Al7  1  0.54291657  0.20440415  0.65614540  1
  Al  Al8  1  0.11145702  0.43127249  0.41615207  1
  Al  Al9  1  0.78368116  0.42942891  0.82583814  1
  Al  Al10  1  0.89491587  0.54534989  0.65152263  1
  Al  Al11  1  0.42398724  0.42515346  0.41976086  1
  Al  Al12  1  0.56635759  0.53644457  0.05860056  1
  Al  Al13  1  0.11048228  0.43435310  0.88778767  1
  Al  Al14  1  0.21109183  0.53943516  0.65363281  1
  Al  Al15  1  0.89494466  0.54242285  0.13949518  1
  Al  Al16  1  0.43882567  0.42821161  0.88432858  1
  Al  Al17  1  0.12120413  0.75025422  0.40759235  1
  Al  Al18  1  0.21242350  0.87675799  0.14915182  1
  Al  Al19  1  0.78807385  0.76057071  0.89398791  1
  Al  Al20  1  0.89743080  0.86095111  0.65051318  1
  Al  Al21  1  0.43211441  0.77286766  0.41064039  1
  Al  Al22  1  0.11224304  0.76255567  0.89371532  1
  Al  Al23  1  0.22099274  0.87319909  0.65053114  1
  Al  Al24  1  0.79443125  0.74863458  0.40203328  1
  Al  Al25  1  0.90414089  0.86639155  0.15053892  1
  Al  Al26  1  0.44220737  0.76491827  0.89100691  1
  Al  Al27  1  0.55724820  0.87695907  0.64787145  1
  Gd  Gd28  1  0.21178996  0.21011832  0.16806135  1
  Gd  Gd29  1  0.55663626  0.20631334  0.13198342  1
  Gd  Gd30  1  0.11960738  0.09411954  0.87897731  1
  Gd  Gd31  1  0.77848922  0.07861611  0.38966052  1
  Gd  Gd32  1  0.21620733  0.55094001  0.14763913  1
  Gd  Gd33  1  0.76595355  0.43332880  0.35525032  1
  Gd  Gd34  1  0.53444604  0.55261834  0.63168570  1
  Gd  Gd35  1  0.56290972  0.85808027  0.14543587  1
  N  N36  1  0.22299557  0.20082907  0.39062732  1
  N  N37  1  0.09886090  0.08703627  0.09775282  1
  N  N38  1  0.86090188  0.22080706  0.87137484  1
  N  N39  1  0.77609576  0.09382125  0.63113544  1
  N  N40  1  0.51630089  0.21967158  0.35005106  1
  N  N41  1  0.43225928  0.08798698  0.05963659  1
  N  N42  1  0.23792781  0.22795927  0.82161282  1
  N  N43  1  0.11801978  0.09100215  0.61881315  1
  N  N44  1  0.91341822  0.19373689  0.42014428  1
  N  N45  1  0.80727670  0.08380471  0.15564348  1
  N  N46  1  0.55498178  0.20529984  0.84059388  1
  N  N47  1  0.45209711  0.08970096  0.60088109  1
  N  N48  1  0.21948689  0.53500204  0.36595082  1
  N  N49  1  0.09114194  0.43287622  0.06588251  1
  N  N50  1  0.89243783  0.54632984  0.83405877  1
  N  N51  1  0.79712951  0.42301660  0.63575391  1
  N  N52  1  0.51294922  0.55502288  0.40534525  1
  N  N53  1  0.45051440  0.44126040  0.06042581  1
  N  N54  1  0.21709746  0.54561459  0.83917993  1
  N  N55  1  0.10302684  0.43608370  0.59634940  1
  N  N56  1  0.91358345  0.54313605  0.32938396  1
  N  N57  1  0.77332261  0.43274056  0.12671939  1
  N  N58  1  0.56534969  0.54073603  0.86485060  1
  N  N59  1  0.41989232  0.40841947  0.60345275  1
  N  N60  1  0.22140551  0.87337392  0.34256596  1
  N  N61  1  0.09998893  0.79011725  0.07422807  1
  N  N62  1  0.89397762  0.87021999  0.83303253  1
  N  N63  1  0.78360056  0.75968292  0.58929143  1
  N  N64  1  0.56394145  0.86766369  0.36422001  1
  N  N65  1  0.42356843  0.75498473  0.07401794  1
  N  N66  1  0.24083052  0.83747784  0.82607642  1
  N  N67  1  0.11336471  0.76183574  0.59199725  1
  N  N68  1  0.91950805  0.82815065  0.33476219  1
  N  N69  1  0.81038688  0.75155239  0.07638797  1
  N  N70  1  0.56155723  0.86838137  0.83659558  1
  N  N71  1  0.42273637  0.80708418  0.58879461  1
