# generated using pymatgen
data_Gd2Al7N9
_symmetry_space_group_name_H-M   'P 1'
_cell_length_a   9.87553716
_cell_length_b   9.85697017
_cell_length_c   10.43291206
_cell_angle_alpha   90.44044779
_cell_angle_beta   90.33302778
_cell_angle_gamma   60.03237095
_symmetry_Int_Tables_number   1
_chemical_formula_structural   Gd2Al7N9
_chemical_formula_sum   'Gd8 Al28 N36'
_cell_volume   879.76759418
_cell_formula_units_Z   4
loop_
 _symmetry_equiv_pos_site_id
 _symmetry_equiv_pos_as_xyz
  1  'x, y, z'
loop_
 _atom_site_type_symbol
 _atom_site_label
 _atom_site_symmetry_multiplicity
 _atom_site_fract_x
 _atom_site_fract_y
 _atom_site_fract_z
 _atom_site_occupancy
  Al  Al0  1  0.11461916  0.08620411  0.42244433  1
  Al  Al1  1  0.78144413  0.09356977  0.89602075  1
  Al  Al2  1  0.88751174  0.20863567  0.66403591  1
  Al  Al3  1  0.44471746  0.09181435  0.42814336  1
  Al  Al4  1  0.22474700  0.21115122  0.63698123  1
  Al  Al5  1  0.89894929  0.19410294  0.14874047  1
  Al  Al6  1  0.44410963  0.09800073  0.88382131  1
  Al  Al7  1  0.55427164  0.20398710  0.66666427  1
  Al  Al8  1  0.11157786  0.43603417  0.42464200  1
  Al  Al9  1  0.77407347  0.43279989  0.91227448  1
  Al  Al10  1  0.89269291  0.53776961  0.65834851  1
  Al  Al11  1  0.42765846  0.42925796  0.41422180  1
  Al  Al12  1  0.53999608  0.54728307  0.15007892  1
  Al  Al13  1  0.11110576  0.42956994  0.88678223  1
  Al  Al14  1  0.21660384  0.54092000  0.65608654  1
  Al  Al15  1  0.89331930  0.54130771  0.13982122  1
  Al  Al16  1  0.44159217  0.43430975  0.90043298  1
  Al  Al17  1  0.11415706  0.75750286  0.41105307  1
  Al  Al18  1  0.21411851  0.87351004  0.15693035  1
  Al  Al19  1  0.78740194  0.75709302  0.89515281  1
  Al  Al20  1  0.89168351  0.87039777  0.66013745  1
  Al  Al21  1  0.43320541  0.77122307  0.40460634  1
  Al  Al22  1  0.11490142  0.75986086  0.89643737  1
  Al  Al23  1  0.22208276  0.86973601  0.65071949  1
  Al  Al24  1  0.79173321  0.75620514  0.40434880  1
  Al  Al25  1  0.90122185  0.86992779  0.14113450  1
  Al  Al26  1  0.44407021  0.75366289  0.90579451  1
  Al  Al27  1  0.55787894  0.87352466  0.65244532  1
  Gd  Gd28  1  0.21188027  0.20976406  0.17877593  1
  Gd  Gd29  1  0.55495750  0.20674949  0.13685265  1
  Gd  Gd30  1  0.12226824  0.09231577  0.89001247  1
  Gd  Gd31  1  0.77700915  0.08957966  0.40693419  1
  Gd  Gd32  1  0.20186514  0.55100377  0.15369239  1
  Gd  Gd33  1  0.78139889  0.43504770  0.38222420  1
  Gd  Gd34  1  0.55509669  0.54341245  0.65322407  1
  Gd  Gd35  1  0.56452941  0.86328461  0.14533475  1
  N  N36  1  0.22091546  0.20419564  0.40560853  1
  N  N37  1  0.10751464  0.08056289  0.10227024  1
  N  N38  1  0.86367569  0.22448045  0.84629335  1
  N  N39  1  0.77720446  0.09522171  0.62264734  1
  N  N40  1  0.51944226  0.21799043  0.35370034  1
  N  N41  1  0.42571033  0.09549856  0.06227566  1
  N  N42  1  0.23779820  0.22360926  0.81925088  1
  N  N43  1  0.10527653  0.09050798  0.61110720  1
  N  N44  1  0.92134566  0.18609151  0.33109272  1
  N  N45  1  0.80515163  0.08067162  0.08396775  1
  N  N46  1  0.55822797  0.20793307  0.85321810  1
  N  N47  1  0.45671358  0.08924832  0.60947675  1
  N  N48  1  0.21747438  0.54059155  0.37318484  1
  N  N49  1  0.08799602  0.42389917  0.06506479  1
  N  N50  1  0.88476806  0.53962170  0.84144816  1
  N  N51  1  0.80788367  0.41321215  0.59736972  1
  N  N52  1  0.51733709  0.55429740  0.34248245  1
  N  N53  1  0.44169660  0.44762770  0.07876694  1
  N  N54  1  0.22045575  0.54230767  0.84406433  1
  N  N55  1  0.10347163  0.43940685  0.60477178  1
  N  N56  1  0.91776383  0.54887958  0.32709644  1
  N  N57  1  0.77190972  0.43384042  0.10818361  1
  N  N58  1  0.56015661  0.53827833  0.86589735  1
  N  N59  1  0.43087827  0.41299661  0.59972640  1
  N  N60  1  0.21850569  0.87349707  0.34867260  1
  N  N61  1  0.10340711  0.78714521  0.07805786  1
  N  N62  1  0.89347406  0.87036820  0.84176440  1
  N  N63  1  0.78303883  0.75861368  0.59452855  1
  N  N64  1  0.56146117  0.87174220  0.36517708  1
  N  N65  1  0.42303306  0.75605587  0.09030035  1
  N  N66  1  0.24352969  0.83680488  0.82954977  1
  N  N67  1  0.10777980  0.76446089  0.59626969  1
  N  N68  1  0.90872187  0.84566857  0.33062108  1
  N  N69  1  0.81268671  0.74847699  0.07727606  1
  N  N70  1  0.56007258  0.86488771  0.84392025  1
  N  N71  1  0.42846273  0.79326207  0.58512375  1
