# generated using pymatgen
data_Gd2Al7N9
_symmetry_space_group_name_H-M   'P 1'
_cell_length_a   9.90328526
_cell_length_b   9.92510197
_cell_length_c   10.51825255
_cell_angle_alpha   90.52667435
_cell_angle_beta   90.15795640
_cell_angle_gamma   59.82052470
_symmetry_Int_Tables_number   1
_chemical_formula_structural   Gd2Al7N9
_chemical_formula_sum   'Gd8 Al28 N36'
_cell_volume   893.67757995
_cell_formula_units_Z   4
loop_
 _symmetry_equiv_pos_site_id
 _symmetry_equiv_pos_as_xyz
  1  'x, y, z'
loop_
 _atom_site_type_symbol
 _atom_site_label
 _atom_site_symmetry_multiplicity
 _atom_site_fract_x
 _atom_site_fract_y
 _atom_site_fract_z
 _atom_site_occupancy
  Al  Al0  1  0.11982063  0.08540037  0.41663277  1
  Al  Al1  1  0.77511298  0.09423819  0.83753948  1
  Al  Al2  1  0.89143435  0.20560744  0.64964154  1
  Al  Al3  1  0.44500666  0.09061101  0.42270746  1
  Al  Al4  1  0.22314107  0.21094517  0.63632549  1
  Al  Al5  1  0.89928183  0.19564779  0.16151565  1
  Al  Al6  1  0.44273623  0.09670488  0.88267479  1
  Al  Al7  1  0.54417351  0.20379885  0.65722123  1
  Al  Al8  1  0.11261727  0.43284147  0.41691159  1
  Al  Al9  1  0.78154118  0.43424799  0.82862886  1
  Al  Al10  1  0.89392805  0.54607505  0.64953656  1
  Al  Al11  1  0.42551870  0.42485202  0.42097496  1
  Al  Al12  1  0.56897901  0.53436313  0.06248712  1
  Al  Al13  1  0.11056863  0.43152556  0.88609696  1
  Al  Al14  1  0.21074029  0.53941895  0.65369153  1
  Al  Al15  1  0.89407654  0.53972729  0.13982005  1
  Al  Al16  1  0.43826342  0.42866020  0.88597635  1
  Al  Al17  1  0.12177167  0.75034162  0.40707868  1
  Al  Al18  1  0.21800217  0.87073176  0.15157593  1
  Al  Al19  1  0.78740596  0.75974374  0.89451562  1
  Al  Al20  1  0.89615528  0.86210938  0.65150191  1
  Al  Al21  1  0.43104025  0.77383570  0.41230633  1
  Al  Al22  1  0.11341531  0.76178643  0.89405400  1
  Al  Al23  1  0.21604059  0.87806694  0.64901648  1
  Al  Al24  1  0.79438730  0.75297638  0.40164656  1
  Al  Al25  1  0.90374740  0.86578392  0.14684968  1
  Al  Al26  1  0.44156021  0.76558963  0.89184669  1
  Al  Al27  1  0.55645908  0.87738909  0.64916078  1
  Gd  Gd28  1  0.21518950  0.21096191  0.17254206  1
  Gd  Gd29  1  0.55645776  0.20798397  0.13445279  1
  Gd  Gd30  1  0.11537646  0.09591918  0.89446412  1
  Gd  Gd31  1  0.78193350  0.08303550  0.39710267  1
  Gd  Gd32  1  0.21381220  0.54893781  0.14709566  1
  Gd  Gd33  1  0.76729931  0.44346870  0.36906949  1
  Gd  Gd34  1  0.53134155  0.55498991  0.63297772  1
  Gd  Gd35  1  0.56402632  0.85872995  0.14574713  1
  N  N36  1  0.22426134  0.20202600  0.39497537  1
  N  N37  1  0.10655506  0.08186985  0.10566524  1
  N  N38  1  0.86638932  0.21871768  0.83200602  1
  N  N39  1  0.77563217  0.09215200  0.62695666  1
  N  N40  1  0.52137695  0.21706049  0.35356621  1
  N  N41  1  0.43161791  0.08961692  0.05931223  1
  N  N42  1  0.23407581  0.22366486  0.81859990  1
  N  N43  1  0.10496987  0.09383409  0.60298773  1
  N  N44  1  0.92181601  0.19106017  0.34511520  1
  N  N45  1  0.80569446  0.07880349  0.13080807  1
  N  N46  1  0.55403840  0.20575449  0.84199605  1
  N  N47  1  0.45185919  0.08962192  0.60304822  1
  N  N48  1  0.22077719  0.53488582  0.36564701  1
  N  N49  1  0.08999210  0.42875938  0.06341861  1
  N  N50  1  0.89119012  0.54645839  0.83193085  1
  N  N51  1  0.79624766  0.42422268  0.62445122  1
  N  N52  1  0.51181229  0.55607527  0.40788595  1
  N  N53  1  0.44845719  0.44350518  0.06126134  1
  N  N54  1  0.21674273  0.54480444  0.83899233  1
  N  N55  1  0.10238814  0.43680525  0.59648446  1
  N  N56  1  0.91641831  0.54790174  0.32868782  1
  N  N57  1  0.77371253  0.43214632  0.13223019  1
  N  N58  1  0.56530397  0.54017031  0.86559703  1
  N  N59  1  0.42016701  0.40812046  0.60442161  1
  N  N60  1  0.22282338  0.87026691  0.34309369  1
  N  N61  1  0.10326526  0.78698621  0.07421358  1
  N  N62  1  0.89370890  0.86932751  0.83408703  1
  N  N63  1  0.78280046  0.76059430  0.58940065  1
  N  N64  1  0.56331786  0.86770549  0.36480253  1
  N  N65  1  0.42621149  0.75396866  0.07391294  1
  N  N66  1  0.23743437  0.84322969  0.82587901  1
  N  N67  1  0.11222269  0.76162799  0.59212706  1
  N  N68  1  0.91679668  0.83542072  0.33361344  1
  N  N69  1  0.81169893  0.74826105  0.07562074  1
  N  N70  1  0.56175347  0.86780624  0.83741676  1
  N  N71  1  0.41973234  0.80983986  0.59025246  1
