# generated using pymatgen
data_Gd2Al7N9
_symmetry_space_group_name_H-M   'P 1'
_cell_length_a   9.85562038
_cell_length_b   9.80975218
_cell_length_c   10.77691775
_cell_angle_alpha   89.45973082
_cell_angle_beta   89.36365267
_cell_angle_gamma   59.97314661
_symmetry_Int_Tables_number   1
_chemical_formula_structural   Gd2Al7N9
_chemical_formula_sum   'Gd8 Al28 N36'
_cell_volume   902.02483198
_cell_formula_units_Z   4
loop_
 _symmetry_equiv_pos_site_id
 _symmetry_equiv_pos_as_xyz
  1  'x, y, z'
loop_
 _atom_site_type_symbol
 _atom_site_label
 _atom_site_symmetry_multiplicity
 _atom_site_fract_x
 _atom_site_fract_y
 _atom_site_fract_z
 _atom_site_occupancy
  Al  Al0  1  0.12580065  0.08430631  0.38357578  1
  Al  Al1  1  0.77153108  0.09716624  0.78266073  1
  Al  Al2  1  0.89441488  0.20394249  0.55481141  1
  Al  Al3  1  0.44384659  0.10038004  0.32254746  1
  Al  Al4  1  0.23066560  0.20959698  0.55198026  1
  Al  Al5  1  0.87439251  0.20599658  0.02453978  1
  Al  Al6  1  0.44465587  0.10055609  0.78612706  1
  Al  Al7  1  0.54709942  0.20743958  0.55487591  1
  Al  Al8  1  0.10535123  0.43727256  0.31800807  1
  Al  Al9  1  0.77752485  0.42743589  0.80320302  1
  Al  Al10  1  0.90519254  0.52790701  0.56897097  1
  Al  Al11  1  0.43975539  0.43849175  0.30723008  1
  Al  Al12  1  0.54854363  0.53339096  0.03264729  1
  Al  Al13  1  0.12082634  0.42913894  0.79180800  1
  Al  Al14  1  0.21908650  0.53730755  0.54559690  1
  Al  Al15  1  0.88921620  0.53420274  0.03056294  1
  Al  Al16  1  0.43514588  0.42564017  0.78645770  1
  Al  Al17  1  0.10791858  0.76074682  0.30956909  1
  Al  Al18  1  0.20996536  0.87956845  0.11820064  1
  Al  Al19  1  0.78000072  0.76303290  0.85211554  1
  Al  Al20  1  0.89700758  0.87162419  0.55987898  1
  Al  Al21  1  0.43698227  0.77633164  0.37902419  1
  Al  Al22  1  0.11375242  0.75024811  0.78290438  1
  Al  Al23  1  0.22961651  0.86561109  0.61285455  1
  Al  Al24  1  0.78047750  0.75886778  0.40122927  1
  Al  Al25  1  0.89956071  0.88060692  0.03122490  1
  Al  Al26  1  0.43697810  0.76142259  0.86033298  1
  Al  Al27  1  0.55610967  0.87273082  0.61733180  1
  Gd  Gd28  1  0.21190545  0.20401871  0.07316281  1
  Gd  Gd29  1  0.55068442  0.20379760  0.03475170  1
  Gd  Gd30  1  0.10737226  0.09991316  0.81557626  1
  Gd  Gd31  1  0.78156348  0.08636319  0.30197142  1
  Gd  Gd32  1  0.20553292  0.55128802  0.06004991  1
  Gd  Gd33  1  0.79009727  0.43534740  0.28638012  1
  Gd  Gd34  1  0.56302134  0.53447351  0.57120253  1
  Gd  Gd35  1  0.57405807  0.83396648  0.12936293  1
  N  N36  1  0.22491744  0.21022837  0.37049382  1
  N  N37  1  0.09157907  0.07446427  0.03979938  1
  N  N38  1  0.84891728  0.21946411  0.85125556  1
  N  N39  1  0.77860765  0.09624698  0.60160059  1
  N  N40  1  0.53088741  0.22495359  0.37679716  1
  N  N41  1  0.45085899  0.08796120  0.14809748  1
  N  N42  1  0.24531172  0.22291044  0.86033129  1
  N  N43  1  0.12024988  0.08691036  0.57447905  1
  N  N44  1  0.90864822  0.20075310  0.37795145  1
  N  N45  1  0.79238805  0.08636788  0.09098754  1
  N  N46  1  0.55610917  0.20241543  0.82312215  1
  N  N47  1  0.44210760  0.09665133  0.60712553  1
  N  N48  1  0.22204927  0.54212928  0.35964706  1
  N  N49  1  0.05777127  0.44876094  0.14443619  1
  N  N50  1  0.90270148  0.52588916  0.84943682  1
  N  N51  1  0.81764306  0.40590406  0.62637753  1
  N  N52  1  0.53887477  0.55349603  0.35881837  1
  N  N53  1  0.45569476  0.43790811  0.12758000  1
  N  N54  1  0.22021815  0.54203255  0.84462211  1
  N  N55  1  0.12002393  0.42358194  0.61208286  1
  N  N56  1  0.90617152  0.54103136  0.39278227  1
  N  N57  1  0.76746933  0.43602668  0.06893250  1
  N  N58  1  0.55239975  0.53241512  0.84059394  1
  N  N59  1  0.42392824  0.41887978  0.61106538  1
  N  N60  1  0.22902749  0.88119547  0.30749039  1
  N  N61  1  0.08185163  0.78972614  0.13218403  1
  N  N62  1  0.89877422  0.87775535  0.84259859  1
  N  N63  1  0.77685288  0.76158167  0.58382019  1
  N  N64  1  0.57076852  0.86561503  0.34354759  1
  N  N65  1  0.41228547  0.75656128  0.03843074  1
  N  N66  1  0.24189163  0.84184578  0.78735797  1
  N  N67  1  0.11285214  0.75359192  0.60257806  1
  N  N68  1  0.90823644  0.84936432  0.38396079  1
  N  N69  1  0.80206707  0.75562221  0.03239679  1
  N  N70  1  0.55574827  0.86685218  0.80654658  1
  N  N71  1  0.42976813  0.79572388  0.55362674  1
