# generated using pymatgen
data_Gd2Al7N9
_symmetry_space_group_name_H-M   'P 1'
_cell_length_a   9.84345090
_cell_length_b   9.75128688
_cell_length_c   11.10596091
_cell_angle_alpha   89.05970498
_cell_angle_beta   89.25470145
_cell_angle_gamma   59.76793323
_symmetry_Int_Tables_number   1
_chemical_formula_structural   Gd2Al7N9
_chemical_formula_sum   'Gd8 Al28 N36'
_cell_volume   920.89626271
_cell_formula_units_Z   4
loop_
 _symmetry_equiv_pos_site_id
 _symmetry_equiv_pos_as_xyz
  1  'x, y, z'
loop_
 _atom_site_type_symbol
 _atom_site_label
 _atom_site_symmetry_multiplicity
 _atom_site_fract_x
 _atom_site_fract_y
 _atom_site_fract_z
 _atom_site_occupancy
  Al  Al0  1  0.12367512  0.08567724  0.42022756  1
  Al  Al1  1  0.77102126  0.09616210  0.79231630  1
  Al  Al2  1  0.89394817  0.20849462  0.57414691  1
  Al  Al3  1  0.44872773  0.10367683  0.34125297  1
  Al  Al4  1  0.23417362  0.21353721  0.57214952  1
  Al  Al5  1  0.86671714  0.20263349  0.02900936  1
  Al  Al6  1  0.44685889  0.10333174  0.79508278  1
  Al  Al7  1  0.55285483  0.20659904  0.56304647  1
  Al  Al8  1  0.10043855  0.44715333  0.34435841  1
  Al  Al9  1  0.77651469  0.42593163  0.81188232  1
  Al  Al10  1  0.90465912  0.53189776  0.58314639  1
  Al  Al11  1  0.44314261  0.44295980  0.31119516  1
  Al  Al12  1  0.55156389  0.52806567  0.03889519  1
  Al  Al13  1  0.11857522  0.42513196  0.80870101  1
  Al  Al14  1  0.22019821  0.54434380  0.63715322  1
  Al  Al15  1  0.88574130  0.52591626  0.04207628  1
  Al  Al16  1  0.44998911  0.41824249  0.79903406  1
  Al  Al17  1  0.12886748  0.75791138  0.39803405  1
  Al  Al18  1  0.21151999  0.86744322  0.05961234  1
  Al  Al19  1  0.77600742  0.75797996  0.86146075  1
  Al  Al20  1  0.89649205  0.87664824  0.57527661  1
  Al  Al21  1  0.43404243  0.78628636  0.39886319  1
  Al  Al22  1  0.11491472  0.75682698  0.85686936  1
  Al  Al23  1  0.23341434  0.86454115  0.63295995  1
  Al  Al24  1  0.77807033  0.76642488  0.41936449  1
  Al  Al25  1  0.88345344  0.88166446  0.02298865  1
  Al  Al26  1  0.44648354  0.75718615  0.86387111  1
  Al  Al27  1  0.56115508  0.87054283  0.63446389  1
  Gd  Gd28  1  0.18136656  0.17711487  0.16819687  1
  Gd  Gd29  1  0.53713382  0.19950664  0.04604181  1
  Gd  Gd30  1  0.11145739  0.10967225  0.83394628  1
  Gd  Gd31  1  0.79097369  0.08815351  0.30816289  1
  Gd  Gd32  1  0.19706165  0.54178781  0.11818995  1
  Gd  Gd33  1  0.79239448  0.44247273  0.29640222  1
  Gd  Gd34  1  0.56894468  0.52736433  0.56838290  1
  Gd  Gd35  1  0.56858462  0.83645616  0.14829051  1
  N  N36  1  0.22529756  0.21342697  0.39244628  1
  N  N37  1  0.08678710  0.07932359  0.04167758  1
  N  N38  1  0.84899798  0.21725847  0.86017043  1
  N  N39  1  0.77968277  0.10012414  0.61629187  1
  N  N40  1  0.53805614  0.22842545  0.38806279  1
  N  N41  1  0.43305762  0.09695625  0.16987495  1
  N  N42  1  0.25233620  0.22341152  0.86627686  1
  N  N43  1  0.12131444  0.09134315  0.59618946  1
  N  N44  1  0.90659620  0.21061885  0.39805086  1
  N  N45  1  0.78947509  0.07677482  0.09904759  1
  N  N46  1  0.56034844  0.19894445  0.84040476  1
  N  N47  1  0.44852318  0.09702821  0.61902688  1
  N  N48  1  0.21820354  0.55247877  0.32888102  1
  N  N49  1  0.03662042  0.44165978  0.17252050  1
  N  N50  1  0.90238859  0.52073733  0.86568363  1
  N  N51  1  0.81540040  0.41165769  0.64204196  1
  N  N52  1  0.53611906  0.56334010  0.36351068  1
  N  N53  1  0.46174643  0.43166233  0.13360834  1
  N  N54  1  0.22179770  0.54377988  0.81681418  1
  N  N55  1  0.11661548  0.42549832  0.63008164  1
  N  N56  1  0.90189374  0.54626402  0.41265886  1
  N  N57  1  0.76752750  0.42592388  0.08220191  1
  N  N58  1  0.55560463  0.52945327  0.85472456  1
  N  N59  1  0.43735692  0.41215192  0.62808312  1
  N  N60  1  0.22114184  0.88823780  0.34696885  1
  N  N61  1  0.10049590  0.77162365  0.03018742  1
  N  N62  1  0.88554162  0.87644887  0.84265715  1
  N  N63  1  0.77998504  0.76472009  0.59604103  1
  N  N64  1  0.57022181  0.87080054  0.35895283  1
  N  N65  1  0.42613158  0.75579766  0.03862679  1
  N  N66  1  0.24015693  0.84366889  0.80361894  1
  N  N67  1  0.12775345  0.75657822  0.57752327  1
  N  N68  1  0.90477265  0.85766793  0.39920946  1
  N  N69  1  0.79001996  0.75407848  0.03984076  1
  N  N70  1  0.55781703  0.86410979  0.81084568  1
  N  N71  1  0.43683038  0.79097723  0.57261187  1
