# generated using pymatgen
data_Gd2Al7N9
_symmetry_space_group_name_H-M   'P 1'
_cell_length_a   9.89539415
_cell_length_b   9.83473715
_cell_length_c   10.75601332
_cell_angle_alpha   89.61006133
_cell_angle_beta   89.34703584
_cell_angle_gamma   59.79214296
_symmetry_Int_Tables_number   1
_chemical_formula_structural   Gd2Al7N9
_chemical_formula_sum   'Gd8 Al28 N36'
_cell_volume   904.55677829
_cell_formula_units_Z   4
loop_
 _symmetry_equiv_pos_site_id
 _symmetry_equiv_pos_as_xyz
  1  'x, y, z'
loop_
 _atom_site_type_symbol
 _atom_site_label
 _atom_site_symmetry_multiplicity
 _atom_site_fract_x
 _atom_site_fract_y
 _atom_site_fract_z
 _atom_site_occupancy
  Al  Al0  1  0.12544145  0.08254787  0.38648220  1
  Al  Al1  1  0.76982220  0.09788459  0.78492341  1
  Al  Al2  1  0.89548098  0.20310192  0.55915371  1
  Al  Al3  1  0.44250931  0.10139568  0.32774950  1
  Al  Al4  1  0.23165691  0.20630959  0.55807580  1
  Al  Al5  1  0.87520673  0.20682822  0.03141479  1
  Al  Al6  1  0.44442062  0.10150127  0.79105979  1
  Al  Al7  1  0.54828303  0.20529762  0.55963121  1
  Al  Al8  1  0.10086388  0.43630244  0.32652373  1
  Al  Al9  1  0.77747221  0.42521452  0.81032511  1
  Al  Al10  1  0.90562542  0.52585241  0.57759894  1
  Al  Al11  1  0.44275883  0.43637798  0.31331810  1
  Al  Al12  1  0.54706287  0.53823213  0.03755677  1
  Al  Al13  1  0.12220339  0.43006113  0.79924912  1
  Al  Al14  1  0.22591156  0.52770281  0.55362596  1
  Al  Al15  1  0.88426655  0.53817270  0.03387279  1
  Al  Al16  1  0.43445367  0.42526876  0.79501003  1
  Al  Al17  1  0.12031182  0.75955856  0.38277991  1
  Al  Al18  1  0.20859815  0.88042247  0.11193685  1
  Al  Al19  1  0.77917212  0.76107304  0.84747262  1
  Al  Al20  1  0.89639119  0.87043749  0.57057302  1
  Al  Al21  1  0.43745225  0.77387081  0.38378649  1
  Al  Al22  1  0.12081453  0.75818628  0.85922695  1
  Al  Al23  1  0.23042013  0.86058143  0.61950147  1
  Al  Al24  1  0.77752046  0.75778168  0.40837562  1
  Al  Al25  1  0.88594027  0.88813375  0.02138368  1
  Al  Al26  1  0.43860157  0.76212858  0.86334051  1
  Al  Al27  1  0.55505956  0.87195985  0.62460105  1
  Gd  Gd28  1  0.21006495  0.21330359  0.07516381  1
  Gd  Gd29  1  0.55147221  0.20931012  0.04191686  1
  Gd  Gd30  1  0.10602517  0.10223302  0.81784465  1
  Gd  Gd31  1  0.78239510  0.08481236  0.30884298  1
  Gd  Gd32  1  0.20301298  0.54971316  0.08455121  1
  Gd  Gd33  1  0.79082062  0.43518467  0.28976383  1
  Gd  Gd34  1  0.56378435  0.53283361  0.57855268  1
  Gd  Gd35  1  0.57282222  0.84109485  0.13188330  1
  N  N36  1  0.22430469  0.20787568  0.37635825  1
  N  N37  1  0.09119776  0.08584437  0.05134482  1
  N  N38  1  0.84928918  0.21644478  0.85769102  1
  N  N39  1  0.77841223  0.09724615  0.60442386  1
  N  N40  1  0.53098267  0.22372612  0.38206122  1
  N  N41  1  0.44843561  0.09543261  0.15285771  1
  N  N42  1  0.24423574  0.22132124  0.86162043  1
  N  N43  1  0.12141763  0.08442440  0.58042369  1
  N  N44  1  0.90928906  0.20034374  0.38248307  1
  N  N45  1  0.79502424  0.08395788  0.09761788  1
  N  N46  1  0.55636351  0.20145975  0.83002579  1
  N  N47  1  0.44345560  0.09560227  0.61161034  1
  N  N48  1  0.22404143  0.53482376  0.36141045  1
  N  N49  1  0.04387292  0.45359361  0.15467623  1
  N  N50  1  0.90302480  0.52398204  0.85270175  1
  N  N51  1  0.81864656  0.40348113  0.63335236  1
  N  N52  1  0.53955347  0.55139290  0.36641697  1
  N  N53  1  0.45829388  0.44266958  0.13473524  1
  N  N54  1  0.22461070  0.53467248  0.86044096  1
  N  N55  1  0.12136612  0.42283525  0.61867358  1
  N  N56  1  0.90334661  0.53964629  0.40229707  1
  N  N57  1  0.76514340  0.43795657  0.07129537  1
  N  N58  1  0.55188755  0.53273473  0.84495117  1
  N  N59  1  0.42671912  0.41531018  0.61911763  1
  N  N60  1  0.22269161  0.87460472  0.31011601  1
  N  N61  1  0.09813468  0.79386344  0.04138764  1
  N  N62  1  0.89154600  0.87828512  0.83354287  1
  N  N63  1  0.77763612  0.76018676  0.59278392  1
  N  N64  1  0.56851935  0.86457878  0.34717382  1
  N  N65  1  0.41719534  0.76166992  0.04170150  1
  N  N66  1  0.24000398  0.84016926  0.79302487  1
  N  N67  1  0.12577791  0.75523255  0.56449130  1
  N  N68  1  0.90219420  0.84821518  0.38679936  1
  N  N69  1  0.79714143  0.75926474  0.02994205  1
  N  N70  1  0.55372401  0.86674750  0.80849579  1
  N  N71  1  0.43067592  0.79479594  0.55963412  1
