# generated using pymatgen
data_Gd2Al7N9
_symmetry_space_group_name_H-M   'P 1'
_cell_length_a   9.88494034
_cell_length_b   9.87717352
_cell_length_c   10.46514400
_cell_angle_alpha   90.48370583
_cell_angle_beta   90.91367076
_cell_angle_gamma   59.98839539
_symmetry_Int_Tables_number   1
_chemical_formula_structural   Gd2Al7N9
_chemical_formula_sum   'Gd8 Al28 N36'
_cell_volume   884.66021227
_cell_formula_units_Z   4
loop_
 _symmetry_equiv_pos_site_id
 _symmetry_equiv_pos_as_xyz
  1  'x, y, z'
loop_
 _atom_site_type_symbol
 _atom_site_label
 _atom_site_symmetry_multiplicity
 _atom_site_fract_x
 _atom_site_fract_y
 _atom_site_fract_z
 _atom_site_occupancy
  Al  Al0  1  0.11267750  0.08740691  0.41562035  1
  Al  Al1  1  0.78249140  0.09259187  0.89139501  1
  Al  Al2  1  0.88692606  0.20928427  0.65694781  1
  Al  Al3  1  0.44197321  0.09284038  0.42497878  1
  Al  Al4  1  0.22349303  0.21186874  0.63447954  1
  Al  Al5  1  0.90236095  0.19078845  0.14410063  1
  Al  Al6  1  0.44590232  0.09695048  0.88220203  1
  Al  Al7  1  0.55382678  0.20142721  0.66344800  1
  Al  Al8  1  0.10749510  0.43629841  0.41907688  1
  Al  Al9  1  0.78636268  0.42894586  0.89802533  1
  Al  Al10  1  0.89205087  0.53811093  0.65169098  1
  Al  Al11  1  0.42421946  0.42895517  0.42254790  1
  Al  Al12  1  0.55520840  0.54119677  0.06945442  1
  Al  Al13  1  0.11203353  0.43038588  0.88460719  1
  Al  Al14  1  0.21228102  0.54159853  0.65281224  1
  Al  Al15  1  0.89632822  0.54241542  0.13622921  1
  Al  Al16  1  0.43815636  0.42732853  0.88754490  1
  Al  Al17  1  0.11397817  0.75665456  0.40695497  1
  Al  Al18  1  0.21758778  0.87144714  0.15273210  1
  Al  Al19  1  0.78772673  0.75810975  0.89128252  1
  Al  Al20  1  0.89140159  0.87043027  0.65639058  1
  Al  Al21  1  0.43090395  0.77125308  0.41143906  1
  Al  Al22  1  0.11467600  0.75978831  0.89381786  1
  Al  Al23  1  0.21808924  0.87325823  0.64715301  1
  Al  Al24  1  0.78978818  0.75688300  0.40164856  1
  Al  Al25  1  0.90254055  0.86847076  0.13763116  1
  Al  Al26  1  0.44181232  0.76428502  0.89245738  1
  Al  Al27  1  0.55679229  0.87642863  0.64898235  1
  Gd  Gd28  1  0.21671092  0.20897410  0.17365247  1
  Gd  Gd29  1  0.55963016  0.20549971  0.13654041  1
  Gd  Gd30  1  0.12199531  0.09239292  0.88672214  1
  Gd  Gd31  1  0.77581956  0.08924724  0.40451480  1
  Gd  Gd32  1  0.21203054  0.54865232  0.15198316  1
  Gd  Gd33  1  0.77253132  0.43746303  0.37367268  1
  Gd  Gd34  1  0.55170479  0.54469649  0.64107455  1
  Gd  Gd35  1  0.56597869  0.85934172  0.14568519  1
  N  N36  1  0.21833730  0.20507290  0.39822271  1
  N  N37  1  0.11078576  0.07954459  0.09881742  1
  N  N38  1  0.86495964  0.22292000  0.83857870  1
  N  N39  1  0.77612142  0.09513003  0.61897361  1
  N  N40  1  0.51660995  0.22019356  0.35303186  1
  N  N41  1  0.43249744  0.09221581  0.06059224  1
  N  N42  1  0.23779406  0.22381684  0.81771632  1
  N  N43  1  0.10310417  0.09258746  0.60483249  1
  N  N44  1  0.91745939  0.18563299  0.32542225  1
  N  N45  1  0.80746167  0.07930830  0.07778977  1
  N  N46  1  0.56022027  0.20392603  0.84819396  1
  N  N47  1  0.45374696  0.09085856  0.60555327  1
  N  N48  1  0.21557622  0.53936464  0.37074821  1
  N  N49  1  0.09167930  0.42722103  0.06341779  1
  N  N50  1  0.88757337  0.54045411  0.83509528  1
  N  N51  1  0.80663775  0.41433427  0.59238275  1
  N  N52  1  0.51525906  0.55383462  0.39561406  1
  N  N53  1  0.44462326  0.44088486  0.06631220  1
  N  N54  1  0.21729442  0.54397494  0.83943301  1
  N  N55  1  0.10165687  0.43873184  0.59919719  1
  N  N56  1  0.91138408  0.55206482  0.32324657  1
  N  N57  1  0.78036778  0.43011433  0.09457808  1
  N  N58  1  0.56269181  0.53970094  0.87233978  1
  N  N59  1  0.42560203  0.41052025  0.60751267  1
  N  N60  1  0.21927422  0.87247490  0.34420663  1
  N  N61  1  0.10508201  0.78530034  0.07546847  1
  N  N62  1  0.89392612  0.87009200  0.83779011  1
  N  N63  1  0.78221350  0.75984436  0.59122075  1
  N  N64  1  0.55827469  0.87208808  0.36485751  1
  N  N65  1  0.42343819  0.75734271  0.07769772  1
  N  N66  1  0.23944603  0.83930890  0.82518185  1
  N  N67  1  0.10645112  0.76516143  0.59190632  1
  N  N68  1  0.90635559  0.84654604  0.32650406  1
  N  N69  1  0.81127067  0.74939855  0.07259529  1
  N  N70  1  0.56100147  0.86716783  0.83884114  1
  N  N71  1  0.42371281  0.80147198  0.59072388  1
