# generated using pymatgen
data_Gd2Al7N9
_symmetry_space_group_name_H-M   'P 1'
_cell_length_a   9.90550259
_cell_length_b   9.81731877
_cell_length_c   10.82279459
_cell_angle_alpha   89.72892164
_cell_angle_beta   89.45996618
_cell_angle_gamma   59.67899067
_symmetry_Int_Tables_number   1
_chemical_formula_structural   Gd2Al7N9
_chemical_formula_sum   'Gd8 Al28 N36'
_cell_volume   908.46090717
_cell_formula_units_Z   4
loop_
 _symmetry_equiv_pos_site_id
 _symmetry_equiv_pos_as_xyz
  1  'x, y, z'
loop_
 _atom_site_type_symbol
 _atom_site_label
 _atom_site_symmetry_multiplicity
 _atom_site_fract_x
 _atom_site_fract_y
 _atom_site_fract_z
 _atom_site_occupancy
  Al  Al0  1  0.12524204  0.08295789  0.39570316  1
  Al  Al1  1  0.77030452  0.09740984  0.79310313  1
  Al  Al2  1  0.89584827  0.20314121  0.56784842  1
  Al  Al3  1  0.44253584  0.10205807  0.33681130  1
  Al  Al4  1  0.23130351  0.20867778  0.56554617  1
  Al  Al5  1  0.87432914  0.20668882  0.03890070  1
  Al  Al6  1  0.44422420  0.10279801  0.80003313  1
  Al  Al7  1  0.54697039  0.20666610  0.56620865  1
  Al  Al8  1  0.10154346  0.43867293  0.33450014  1
  Al  Al9  1  0.77612813  0.42585880  0.81737565  1
  Al  Al10  1  0.90530955  0.52608660  0.58558917  1
  Al  Al11  1  0.44161473  0.43795981  0.31567060  1
  Al  Al12  1  0.54783986  0.53679966  0.04398023  1
  Al  Al13  1  0.11632149  0.42722828  0.81201203  1
  Al  Al14  1  0.21867136  0.54131230  0.63149825  1
  Al  Al15  1  0.88231341  0.53736780  0.04234343  1
  Al  Al16  1  0.44519903  0.42172779  0.80473228  1
  Al  Al17  1  0.12443522  0.74971515  0.39267478  1
  Al  Al18  1  0.20885221  0.87848226  0.11837556  1
  Al  Al19  1  0.77760050  0.76251445  0.85752944  1
  Al  Al20  1  0.89529100  0.87184420  0.57808122  1
  Al  Al21  1  0.43610649  0.77557688  0.39159687  1
  Al  Al22  1  0.11986738  0.76134362  0.86694443  1
  Al  Al23  1  0.23134551  0.86230888  0.62802626  1
  Al  Al24  1  0.77795058  0.75832693  0.41814999  1
  Al  Al25  1  0.88791400  0.88628946  0.02928097  1
  Al  Al26  1  0.43840679  0.76353826  0.87202631  1
  Al  Al27  1  0.55505189  0.87198719  0.63325545  1
  Gd  Gd28  1  0.20971283  0.20983596  0.08761379  1
  Gd  Gd29  1  0.55437040  0.20162484  0.05073890  1
  Gd  Gd30  1  0.10605138  0.10483851  0.82697067  1
  Gd  Gd31  1  0.78367347  0.08410845  0.31746198  1
  Gd  Gd32  1  0.20029649  0.55012611  0.10962638  1
  Gd  Gd33  1  0.79423698  0.43447828  0.29608729  1
  Gd  Gd34  1  0.56578938  0.53006634  0.57927164  1
  Gd  Gd35  1  0.57399774  0.83754271  0.14383627  1
  N  N36  1  0.22408267  0.20960067  0.38557010  1
  N  N37  1  0.09079767  0.08364164  0.05686205  1
  N  N38  1  0.84930197  0.21649027  0.86553127  1
  N  N39  1  0.77789395  0.09808805  0.61342667  1
  N  N40  1  0.53015199  0.22617130  0.38974842  1
  N  N41  1  0.44893173  0.09239698  0.16358816  1
  N  N42  1  0.24599074  0.22295577  0.87656409  1
  N  N43  1  0.12170868  0.08536302  0.58850714  1
  N  N44  1  0.90852152  0.20140998  0.39202751  1
  N  N45  1  0.79841329  0.08131870  0.10716126  1
  N  N46  1  0.55766878  0.20047254  0.84048983  1
  N  N47  1  0.44236814  0.09741491  0.62124142  1
  N  N48  1  0.21946058  0.54352637  0.33077468  1
  N  N49  1  0.03895300  0.45009060  0.16308181  1
  N  N50  1  0.90041126  0.52436615  0.86308486  1
  N  N51  1  0.81783811  0.40439858  0.64203194  1
  N  N52  1  0.53966779  0.55240694  0.36918749  1
  N  N53  1  0.46233218  0.43659850  0.13565383  1
  N  N54  1  0.22006159  0.54319329  0.83332304  1
  N  N55  1  0.11829606  0.42054845  0.63246088  1
  N  N56  1  0.90495928  0.53945396  0.41150072  1
  N  N57  1  0.76440471  0.43712850  0.07950411  1
  N  N58  1  0.55264647  0.53398849  0.85448168  1
  N  N59  1  0.43307120  0.41328824  0.63036346  1
  N  N60  1  0.22222912  0.87536983  0.31987879  1
  N  N61  1  0.10173472  0.78847785  0.04505371  1
  N  N62  1  0.89026636  0.87898844  0.84294160  1
  N  N63  1  0.77761215  0.76064093  0.60128710  1
  N  N64  1  0.56879075  0.86539698  0.35794020  1
  N  N65  1  0.41769831  0.76190552  0.04952472  1
  N  N66  1  0.23963282  0.84335279  0.80098039  1
  N  N67  1  0.12694941  0.75315273  0.57507127  1
  N  N68  1  0.90354193  0.84821327  0.39797989  1
  N  N69  1  0.79578501  0.76005016  0.03879894  1
  N  N70  1  0.55321383  0.86769190  0.81621837  1
  N  N71  1  0.43171155  0.79316948  0.56765252  1
