# generated using pymatgen
data_Gd2Al7N9
_symmetry_space_group_name_H-M   'P 1'
_cell_length_a   9.73922202
_cell_length_b   9.80829330
_cell_length_c   10.94937762
_cell_angle_alpha   90.29469193
_cell_angle_beta   89.16834466
_cell_angle_gamma   60.05422614
_symmetry_Int_Tables_number   1
_chemical_formula_structural   Gd2Al7N9
_chemical_formula_sum   'Gd8 Al28 N36'
_cell_volume   906.11781352
_cell_formula_units_Z   4
loop_
 _symmetry_equiv_pos_site_id
 _symmetry_equiv_pos_as_xyz
  1  'x, y, z'
loop_
 _atom_site_type_symbol
 _atom_site_label
 _atom_site_symmetry_multiplicity
 _atom_site_fract_x
 _atom_site_fract_y
 _atom_site_fract_z
 _atom_site_occupancy
  Al  Al0  1  0.12845725  0.08550732  0.43103276  1
  Al  Al1  1  0.78775043  0.08962840  0.82526379  1
  Al  Al2  1  0.89967404  0.19904437  0.59695597  1
  Al  Al3  1  0.45171843  0.09965119  0.41867010  1
  Al  Al4  1  0.23314800  0.20576299  0.64596590  1
  Al  Al5  1  0.87153815  0.20960073  0.06625892  1
  Al  Al6  1  0.44813330  0.08849992  0.88486449  1
  Al  Al7  1  0.55723269  0.19254270  0.66240285  1
  Al  Al8  1  0.11996817  0.43008638  0.43409395  1
  Al  Al9  1  0.77100890  0.41714872  0.83470873  1
  Al  Al10  1  0.89822225  0.53289885  0.66663318  1
  Al  Al11  1  0.43372464  0.44401163  0.32405174  1
  Al  Al12  1  0.52958719  0.55065657  0.07083206  1
  Al  Al13  1  0.12703359  0.42231066  0.88690054  1
  Al  Al14  1  0.21424957  0.54125744  0.65930242  1
  Al  Al15  1  0.87581626  0.53190739  0.03933438  1
  Al  Al16  1  0.43970144  0.42875957  0.82823498  1
  Al  Al17  1  0.13396312  0.75012481  0.42957726  1
  Al  Al18  1  0.20907491  0.87595496  0.15116379  1
  Al  Al19  1  0.77542707  0.76754037  0.87735610  1
  Al  Al20  1  0.89679210  0.86849609  0.59789826  1
  Al  Al21  1  0.43956615  0.77810122  0.40928174  1
  Al  Al22  1  0.12562445  0.75426357  0.89378572  1
  Al  Al23  1  0.23111860  0.86765894  0.65699254  1
  Al  Al24  1  0.79018485  0.74648192  0.42608349  1
  Al  Al25  1  0.88339232  0.89074263  0.04644885  1
  Al  Al26  1  0.44583693  0.75756261  0.89306383  1
  Al  Al27  1  0.55666893  0.87279280  0.64929046  1
  Gd  Gd28  1  0.20670351  0.21386357  0.17594613  1
  Gd  Gd29  1  0.53303256  0.23249982  0.09340840  1
  Gd  Gd30  1  0.13480067  0.08587986  0.89724602  1
  Gd  Gd31  1  0.79446561  0.07836771  0.33360911  1
  Gd  Gd32  1  0.12714785  0.58983364  0.17909427  1
  Gd  Gd33  1  0.79329179  0.42758261  0.31461060  1
  Gd  Gd34  1  0.56159080  0.52577067  0.58623275  1
  Gd  Gd35  1  0.56765690  0.86078115  0.15454642  1
  N  N36  1  0.22760684  0.20410077  0.39250226  1
  N  N37  1  0.08666688  0.09328285  0.10887457  1
  N  N38  1  0.86821306  0.21092929  0.89208610  1
  N  N39  1  0.78663645  0.08909703  0.64832730  1
  N  N40  1  0.52593428  0.21795556  0.32988408  1
  N  N41  1  0.42267934  0.08612188  0.05634542  1
  N  N42  1  0.24570754  0.21929745  0.81817941  1
  N  N43  1  0.12564461  0.08465922  0.61401453  1
  N  N44  1  0.90673531  0.20328001  0.42390731  1
  N  N45  1  0.78938160  0.08451595  0.12297703  1
  N  N46  1  0.56065555  0.19862676  0.85204993  1
  N  N47  1  0.45974803  0.08826331  0.59686280  1
  N  N48  1  0.22508346  0.53951966  0.38105524  1
  N  N49  1  0.09214309  0.42130448  0.05592481  1
  N  N50  1  0.88674852  0.53782975  0.85318414  1
  N  N51  1  0.80655471  0.40410376  0.66342787  1
  N  N52  1  0.53927315  0.55498968  0.38119361  1
  N  N53  1  0.40512538  0.48380001  0.15187853  1
  N  N54  1  0.21341991  0.54601935  0.83979378  1
  N  N55  1  0.10991480  0.43083555  0.60868409  1
  N  N56  1  0.92255763  0.54770441  0.35754208  1
  N  N57  1  0.75908602  0.43767396  0.10053913  1
  N  N58  1  0.55158595  0.53049637  0.88477627  1
  N  N59  1  0.43498528  0.40857266  0.65580450  1
  N  N60  1  0.22268783  0.87538182  0.34626092  1
  N  N61  1  0.10029548  0.79029669  0.06867912  1
  N  N62  1  0.89274897  0.87661867  0.86896907  1
  N  N63  1  0.78235650  0.74866020  0.61150711  1
  N  N64  1  0.56985391  0.87164520  0.36921680  1
  N  N65  1  0.41816835  0.77133965  0.07052618  1
  N  N66  1  0.24525178  0.83875380  0.82656704  1
  N  N67  1  0.12755370  0.75545465  0.60573955  1
  N  N68  1  0.90973861  0.84797428  0.42132937  1
  N  N69  1  0.80199095  0.74890419  0.05690593  1
  N  N70  1  0.55529824  0.86775454  0.83026862  1
  N  N71  1  0.43401199  0.78991946  0.58616214  1
