# generated using pymatgen
data_Gd2Al7N9
_symmetry_space_group_name_H-M   'P 1'
_cell_length_a   9.88629750
_cell_length_b   9.83970767
_cell_length_c   10.76563761
_cell_angle_alpha   89.52000750
_cell_angle_beta   89.10276421
_cell_angle_gamma   59.77743575
_symmetry_Int_Tables_number   1
_chemical_formula_structural   Gd2Al7N9
_chemical_formula_sum   'Gd8 Al28 N36'
_cell_volume   904.80411345
_cell_formula_units_Z   4
loop_
 _symmetry_equiv_pos_site_id
 _symmetry_equiv_pos_as_xyz
  1  'x, y, z'
loop_
 _atom_site_type_symbol
 _atom_site_label
 _atom_site_symmetry_multiplicity
 _atom_site_fract_x
 _atom_site_fract_y
 _atom_site_fract_z
 _atom_site_occupancy
  Al  Al0  1  0.12633989  0.08408644  0.38372956  1
  Al  Al1  1  0.76939780  0.09970435  0.78109525  1
  Al  Al2  1  0.89559140  0.20359233  0.55514616  1
  Al  Al3  1  0.44470191  0.10071984  0.32279965  1
  Al  Al4  1  0.23227996  0.20709472  0.55280686  1
  Al  Al5  1  0.87371074  0.20636063  0.02528801  1
  Al  Al6  1  0.44347204  0.10311133  0.78743429  1
  Al  Al7  1  0.54984408  0.20472507  0.55357392  1
  Al  Al8  1  0.10188296  0.43915372  0.32163807  1
  Al  Al9  1  0.77675142  0.42602888  0.80464386  1
  Al  Al10  1  0.90567245  0.52643131  0.57288866  1
  Al  Al11  1  0.44239428  0.43741676  0.30737775  1
  Al  Al12  1  0.54614203  0.53733823  0.03409461  1
  Al  Al13  1  0.12064598  0.42887537  0.79328285  1
  Al  Al14  1  0.22675366  0.52660696  0.54955450  1
  Al  Al15  1  0.88379479  0.53762146  0.02913482  1
  Al  Al16  1  0.43619591  0.42493337  0.78813449  1
  Al  Al17  1  0.12122274  0.75911945  0.37587834  1
  Al  Al18  1  0.20794349  0.87792948  0.11339406  1
  Al  Al19  1  0.77734882  0.76152346  0.84406733  1
  Al  Al20  1  0.89447418  0.87275744  0.56516165  1
  Al  Al21  1  0.43937104  0.77499803  0.37995219  1
  Al  Al22  1  0.11550453  0.75441909  0.81669560  1
  Al  Al23  1  0.23173672  0.86415151  0.61296188  1
  Al  Al24  1  0.77853509  0.75862359  0.40452499  1
  Al  Al25  1  0.89173577  0.88325807  0.02036589  1
  Al  Al26  1  0.43704275  0.76151965  0.86013016  1
  Al  Al27  1  0.55539567  0.87245715  0.62147595  1
  Gd  Gd28  1  0.20815981  0.21032383  0.07609338  1
  Gd  Gd29  1  0.54845737  0.20837834  0.03745464  1
  Gd  Gd30  1  0.10799089  0.10160375  0.81714501  1
  Gd  Gd31  1  0.78651755  0.08288116  0.30053406  1
  Gd  Gd32  1  0.20281311  0.54653089  0.06752841  1
  Gd  Gd33  1  0.79368456  0.43496795  0.28484574  1
  Gd  Gd34  1  0.56475723  0.53244787  0.57128404  1
  Gd  Gd35  1  0.57290839  0.83847252  0.12785099  1
  N  N36  1  0.22537285  0.20924297  0.37132123  1
  N  N37  1  0.09080155  0.08116795  0.04385919  1
  N  N38  1  0.85023082  0.21729562  0.85131942  1
  N  N39  1  0.77850968  0.09781072  0.60118630  1
  N  N40  1  0.53447472  0.22246062  0.37572640  1
  N  N41  1  0.44827981  0.09197040  0.14864702  1
  N  N42  1  0.24416699  0.22424760  0.86183973  1
  N  N43  1  0.12168882  0.08625478  0.57586539  1
  N  N44  1  0.90977939  0.20051383  0.37816526  1
  N  N45  1  0.79156928  0.08530868  0.08905115  1
  N  N46  1  0.55576396  0.20267018  0.82567278  1
  N  N47  1  0.44345877  0.09638480  0.60784590  1
  N  N48  1  0.22562419  0.53485195  0.36233409  1
  N  N49  1  0.04293089  0.45350018  0.15057164  1
  N  N50  1  0.90209438  0.52446272  0.84760168  1
  N  N51  1  0.81798991  0.40461806  0.62802543  1
  N  N52  1  0.54046936  0.55259737  0.35958566  1
  N  N53  1  0.45547972  0.44234739  0.12927833  1
  N  N54  1  0.22094956  0.53942476  0.84567242  1
  N  N55  1  0.12142391  0.42173743  0.61405187  1
  N  N56  1  0.90408576  0.54096205  0.39810783  1
  N  N57  1  0.76485583  0.43706436  0.06667930  1
  N  N58  1  0.55108786  0.53286708  0.84045905  1
  N  N59  1  0.42857457  0.41437396  0.61308727  1
  N  N60  1  0.22549641  0.87643829  0.31114899  1
  N  N61  1  0.09011539  0.78987652  0.07723692  1
  N  N62  1  0.89283338  0.87838307  0.83013313  1
  N  N63  1  0.77782009  0.76085826  0.58955970  1
  N  N64  1  0.57065640  0.86507894  0.34314306  1
  N  N65  1  0.41515231  0.76076488  0.03784850  1
  N  N66  1  0.24001554  0.84124010  0.78685632  1
  N  N67  1  0.12409726  0.75535795  0.56854883  1
  N  N68  1  0.90338771  0.84960092  0.38539913  1
  N  N69  1  0.79625444  0.75885767  0.02408957  1
  N  N70  1  0.55174300  0.86818403  0.80499474  1
  N  N71  1  0.43301674  0.79426252  0.55547758  1
