# generated using pymatgen
data_Gd2Al7N9
_symmetry_space_group_name_H-M   'P 1'
_cell_length_a   9.76031984
_cell_length_b   9.76747431
_cell_length_c   11.23655698
_cell_angle_alpha   89.61630019
_cell_angle_beta   88.75629861
_cell_angle_gamma   59.93372270
_symmetry_Int_Tables_number   1
_chemical_formula_structural   Gd2Al7N9
_chemical_formula_sum   'Gd8 Al28 N36'
_cell_volume   926.85628425
_cell_formula_units_Z   4
loop_
 _symmetry_equiv_pos_site_id
 _symmetry_equiv_pos_as_xyz
  1  'x, y, z'
loop_
 _atom_site_type_symbol
 _atom_site_label
 _atom_site_symmetry_multiplicity
 _atom_site_fract_x
 _atom_site_fract_y
 _atom_site_fract_z
 _atom_site_occupancy
  Al  Al0  1  0.13379479  0.08410116  0.42312772  1
  Al  Al1  1  0.76501203  0.10002144  0.79492659  1
  Al  Al2  1  0.89598498  0.20352658  0.57337049  1
  Al  Al3  1  0.45010906  0.09785348  0.34116624  1
  Al  Al4  1  0.23228621  0.20964930  0.61907000  1
  Al  Al5  1  0.86420654  0.21074499  0.03205254  1
  Al  Al6  1  0.45232258  0.09876352  0.78615374  1
  Al  Al7  1  0.55581123  0.20178992  0.55955268  1
  Al  Al8  1  0.13353642  0.42808629  0.41786629  1
  Al  Al9  1  0.77214841  0.42716446  0.80678140  1
  Al  Al10  1  0.89933862  0.53213258  0.58017038  1
  Al  Al11  1  0.44655964  0.43749214  0.31652339  1
  Al  Al12  1  0.54523897  0.53385929  0.04185483  1
  Al  Al13  1  0.11405074  0.43027906  0.85462721  1
  Al  Al14  1  0.21710614  0.54163403  0.63937057  1
  Al  Al15  1  0.88305089  0.53207509  0.02294288  1
  Al  Al16  1  0.44435023  0.41767946  0.80000498  1
  Al  Al17  1  0.13562255  0.75386765  0.41055046  1
  Al  Al18  1  0.20809520  0.87569669  0.06466358  1
  Al  Al19  1  0.76921817  0.76496070  0.85887723  1
  Al  Al20  1  0.89566756  0.87506147  0.57681146  1
  Al  Al21  1  0.43903385  0.78130014  0.40183494  1
  Al  Al22  1  0.11339881  0.75579843  0.85887728  1
  Al  Al23  1  0.23235046  0.86401526  0.63457796  1
  Al  Al24  1  0.78364529  0.76112553  0.41534867  1
  Al  Al25  1  0.87706042  0.88994768  0.02051001  1
  Al  Al26  1  0.44438282  0.75574419  0.86446254  1
  Al  Al27  1  0.56332822  0.86547829  0.63157791  1
  Gd  Gd28  1  0.17107380  0.20987904  0.16975632  1
  Gd  Gd29  1  0.52684681  0.21176745  0.05384525  1
  Gd  Gd30  1  0.10880951  0.10108933  0.84101877  1
  Gd  Gd31  1  0.80289441  0.07939712  0.30799683  1
  Gd  Gd32  1  0.17332097  0.57269974  0.14773801  1
  Gd  Gd33  1  0.78935746  0.43795675  0.30143123  1
  Gd  Gd34  1  0.56562740  0.52409220  0.56995909  1
  Gd  Gd35  1  0.56662218  0.83569687  0.14827242  1
  N  N36  1  0.23083022  0.20547512  0.38491975  1
  N  N37  1  0.08920226  0.08848916  0.04873176  1
  N  N38  1  0.84500893  0.22144793  0.86318005  1
  N  N39  1  0.77895793  0.09836627  0.61979748  1
  N  N40  1  0.54605638  0.22130183  0.38544749  1
  N  N41  1  0.43012154  0.09382710  0.16796477  1
  N  N42  1  0.23443677  0.22790849  0.79373243  1
  N  N43  1  0.12111738  0.08771842  0.59937795  1
  N  N44  1  0.91202622  0.20581675  0.40021086  1
  N  N45  1  0.78437436  0.08566157  0.09919032  1
  N  N46  1  0.55017461  0.20152003  0.84872943  1
  N  N47  1  0.46090737  0.08643410  0.61374133  1
  N  N48  1  0.22672724  0.54238705  0.35335675  1
  N  N49  1  0.09943972  0.42083492  0.05251604  1
  N  N50  1  0.88496038  0.53408151  0.85153505  1
  N  N51  1  0.81377805  0.40912878  0.63865703  1
  N  N52  1  0.54082512  0.55701008  0.36867388  1
  N  N53  1  0.44581454  0.44797107  0.13966960  1
  N  N54  1  0.21345774  0.54447494  0.81255884  1
  N  N55  1  0.12037834  0.43070409  0.58678813  1
  N  N56  1  0.90812463  0.54174643  0.39998836  1
  N  N57  1  0.76788891  0.43538110  0.08570332  1
  N  N58  1  0.55139385  0.52802126  0.85733485  1
  N  N59  1  0.43808011  0.40504207  0.63161043  1
  N  N60  1  0.22585718  0.88004445  0.35560836  1
  N  N61  1  0.09682818  0.77950886  0.02997180  1
  N  N62  1  0.88086474  0.88209978  0.84373554  1
  N  N63  1  0.78178573  0.75931959  0.59134893  1
  N  N64  1  0.57493686  0.86505481  0.35634115  1
  N  N65  1  0.42308323  0.75918965  0.03714972  1
  N  N66  1  0.23990042  0.84006804  0.80307261  1
  N  N67  1  0.12600663  0.75584233  0.58454787  1
  N  N68  1  0.91053293  0.85349059  0.40115038  1
  N  N69  1  0.78727917  0.75808073  0.03727528  1
  N  N70  1  0.55284509  0.86649342  0.80847694  1
  N  N71  1  0.43849385  0.78632784  0.57332817  1
