# generated using pymatgen
data_Gd2Al7N9
_symmetry_space_group_name_H-M   'P 1'
_cell_length_a   9.79827844
_cell_length_b   9.84837273
_cell_length_c   10.74414722
_cell_angle_alpha   90.18296046
_cell_angle_beta   88.93484235
_cell_angle_gamma   60.23654556
_symmetry_Int_Tables_number   1
_chemical_formula_structural   Gd2Al7N9
_chemical_formula_sum   'Gd8 Al28 N36'
_cell_volume   899.76181071
_cell_formula_units_Z   4
loop_
 _symmetry_equiv_pos_site_id
 _symmetry_equiv_pos_as_xyz
  1  'x, y, z'
loop_
 _atom_site_type_symbol
 _atom_site_label
 _atom_site_symmetry_multiplicity
 _atom_site_fract_x
 _atom_site_fract_y
 _atom_site_fract_z
 _atom_site_occupancy
  Al  Al0  1  0.13252405  0.07993470  0.43076771  1
  Al  Al1  1  0.77959080  0.09562943  0.82839935  1
  Al  Al2  1  0.90062851  0.20068960  0.59770665  1
  Al  Al3  1  0.45069636  0.09686045  0.41796633  1
  Al  Al4  1  0.23456051  0.20483107  0.64682750  1
  Al  Al5  1  0.87311057  0.21116901  0.06912760  1
  Al  Al6  1  0.44627707  0.08943763  0.88794929  1
  Al  Al7  1  0.55434014  0.19571084  0.66088715  1
  Al  Al8  1  0.12394718  0.42238155  0.43604430  1
  Al  Al9  1  0.76896364  0.42108682  0.83807328  1
  Al  Al10  1  0.89904530  0.53444377  0.66461987  1
  Al  Al11  1  0.43402756  0.44416163  0.33126826  1
  Al  Al12  1  0.52907568  0.55127557  0.07161270  1
  Al  Al13  1  0.12608467  0.42419305  0.88672949  1
  Al  Al14  1  0.21470358  0.54136472  0.65044564  1
  Al  Al15  1  0.87642717  0.53681821  0.04254452  1
  Al  Al16  1  0.43442368  0.43107316  0.82970481  1
  Al  Al17  1  0.12655221  0.75358537  0.41991777  1
  Al  Al18  1  0.20887152  0.87693174  0.14957837  1
  Al  Al19  1  0.77570711  0.77243906  0.88165011  1
  Al  Al20  1  0.89951385  0.86378477  0.65467273  1
  Al  Al21  1  0.44343055  0.77496882  0.40924544  1
  Al  Al22  1  0.11755896  0.75625149  0.89498023  1
  Al  Al23  1  0.22936468  0.86701344  0.65407939  1
  Al  Al24  1  0.80508135  0.74249595  0.41344199  1
  Al  Al25  1  0.88659013  0.88742837  0.10454075  1
  Al  Al26  1  0.44265121  0.75895906  0.89114757  1
  Al  Al27  1  0.55999889  0.87378636  0.64602948  1
  Gd  Gd28  1  0.20357560  0.21443267  0.17383645  1
  Gd  Gd29  1  0.53472610  0.23182380  0.10514217  1
  Gd  Gd30  1  0.12647513  0.08706619  0.88600735  1
  Gd  Gd31  1  0.78406209  0.07936423  0.35726685  1
  Gd  Gd32  1  0.12926860  0.58795217  0.18796276  1
  Gd  Gd33  1  0.79368375  0.42280640  0.31774806  1
  Gd  Gd34  1  0.56056196  0.53071803  0.59534105  1
  Gd  Gd35  1  0.56441043  0.86005708  0.15355051  1
  N  N36  1  0.23023411  0.19865924  0.39410139  1
  N  N37  1  0.08923805  0.09171916  0.10153547  1
  N  N38  1  0.86098142  0.21409387  0.89274617  1
  N  N39  1  0.78201279  0.09345224  0.64213625  1
  N  N40  1  0.51987258  0.22010077  0.33202367  1
  N  N41  1  0.42515409  0.08682003  0.06185151  1
  N  N42  1  0.24538773  0.21932685  0.82205657  1
  N  N43  1  0.12462659  0.08497776  0.61922187  1
  N  N44  1  0.91475468  0.19605392  0.42228746  1
  N  N45  1  0.78951477  0.09546736  0.13952127  1
  N  N46  1  0.55724813  0.20043023  0.85298233  1
  N  N47  1  0.45945434  0.08864303  0.59787368  1
  N  N48  1  0.22984917  0.53454014  0.39328906  1
  N  N49  1  0.08980260  0.42648251  0.05864182  1
  N  N50  1  0.88361200  0.54257851  0.85439564  1
  N  N51  1  0.80834973  0.40567515  0.66245912  1
  N  N52  1  0.54177277  0.55236325  0.38645631  1
  N  N53  1  0.40645297  0.48446308  0.15534497  1
  N  N54  1  0.21030579  0.54869238  0.83734215  1
  N  N55  1  0.11070363  0.42783400  0.61192501  1
  N  N56  1  0.92859062  0.53437926  0.36099212  1
  N  N57  1  0.75879254  0.44185713  0.09946304  1
  N  N58  1  0.54900716  0.53248748  0.88114059  1
  N  N59  1  0.43332827  0.40991269  0.65337210  1
  N  N60  1  0.22927490  0.87257997  0.34492340  1
  N  N61  1  0.09705745  0.79152101  0.06952523  1
  N  N62  1  0.89531404  0.87089839  0.83636206  1
  N  N63  1  0.78951379  0.75267492  0.60315835  1
  N  N64  1  0.57530691  0.86883062  0.36951574  1
  N  N65  1  0.41671081  0.77035331  0.07022206  1
  N  N66  1  0.24263829  0.83595612  0.82576853  1
  N  N67  1  0.11530267  0.76365462  0.59849982  1
  N  N68  1  0.93104197  0.82147041  0.33802723  1
  N  N69  1  0.80351665  0.75648744  0.05961131  1
  N  N70  1  0.55710363  0.86802512  0.83127430  1
  N  N71  1  0.43303888  0.79331062  0.58753163  1
