# generated using pymatgen
data_Gd2Al7N9
_symmetry_space_group_name_H-M   'P 1'
_cell_length_a   9.89525927
_cell_length_b   9.80331011
_cell_length_c   10.86900534
_cell_angle_alpha   89.79147132
_cell_angle_beta   89.49657764
_cell_angle_gamma   59.64553314
_symmetry_Int_Tables_number   1
_chemical_formula_structural   Gd2Al7N9
_chemical_formula_sum   'Gd8 Al28 N36'
_cell_volume   909.78979642
_cell_formula_units_Z   4
loop_
 _symmetry_equiv_pos_site_id
 _symmetry_equiv_pos_as_xyz
  1  'x, y, z'
loop_
 _atom_site_type_symbol
 _atom_site_label
 _atom_site_symmetry_multiplicity
 _atom_site_fract_x
 _atom_site_fract_y
 _atom_site_fract_z
 _atom_site_occupancy
  Al  Al0  1  0.12511817  0.08295729  0.39658127  1
  Al  Al1  1  0.77046765  0.09729177  0.79291344  1
  Al  Al2  1  0.89591234  0.20286235  0.56810840  1
  Al  Al3  1  0.44269710  0.10199391  0.33693350  1
  Al  Al4  1  0.23127694  0.20938848  0.56557557  1
  Al  Al5  1  0.87415090  0.20643278  0.03795802  1
  Al  Al6  1  0.44420634  0.10372746  0.79997608  1
  Al  Al7  1  0.54692767  0.20691930  0.56582986  1
  Al  Al8  1  0.10147179  0.43827696  0.33524928  1
  Al  Al9  1  0.77543628  0.42623491  0.81677333  1
  Al  Al10  1  0.90552206  0.52588843  0.58562409  1
  Al  Al11  1  0.44188219  0.43775713  0.31429053  1
  Al  Al12  1  0.54735435  0.53642935  0.04350725  1
  Al  Al13  1  0.11546636  0.42784607  0.81210098  1
  Al  Al14  1  0.21839579  0.54276844  0.63743104  1
  Al  Al15  1  0.88168170  0.53674522  0.04252196  1
  Al  Al16  1  0.44708507  0.42164412  0.80385045  1
  Al  Al17  1  0.12508225  0.74904167  0.39396845  1
  Al  Al18  1  0.20899643  0.87793528  0.11660848  1
  Al  Al19  1  0.77694682  0.76282484  0.85862239  1
  Al  Al20  1  0.89549367  0.87177705  0.57774023  1
  Al  Al21  1  0.43564923  0.77626896  0.39160239  1
  Al  Al22  1  0.11957489  0.76241529  0.86624837  1
  Al  Al23  1  0.23165827  0.86240356  0.62822784  1
  Al  Al24  1  0.77776215  0.75825483  0.41895700  1
  Al  Al25  1  0.88837462  0.88587751  0.02873696  1
  Al  Al26  1  0.43833144  0.76415574  0.87219136  1
  Al  Al27  1  0.55520045  0.87178992  0.63367147  1
  Gd  Gd28  1  0.20967295  0.20910537  0.08821203  1
  Gd  Gd29  1  0.55443015  0.20001690  0.05030318  1
  Gd  Gd30  1  0.10617078  0.10688178  0.82626623  1
  Gd  Gd31  1  0.78431680  0.08325733  0.31680144  1
  Gd  Gd32  1  0.19852139  0.55028200  0.11236549  1
  Gd  Gd33  1  0.79557177  0.43357048  0.29515967  1
  Gd  Gd34  1  0.56678644  0.52867013  0.57598356  1
  Gd  Gd35  1  0.57461382  0.83604548  0.14546855  1
  N  N36  1  0.22423183  0.20977113  0.38627187  1
  N  N37  1  0.09099065  0.08302001  0.05518875  1
  N  N38  1  0.84955743  0.21647468  0.86521531  1
  N  N39  1  0.77800253  0.09790811  0.61391710  1
  N  N40  1  0.53053391  0.22634057  0.38969029  1
  N  N41  1  0.44917158  0.09148328  0.16440446  1
  N  N42  1  0.24665450  0.22472269  0.87852942  1
  N  N43  1  0.12194528  0.08558990  0.58833613  1
  N  N44  1  0.90789914  0.20148841  0.39282577  1
  N  N45  1  0.79900044  0.08082356  0.10706761  1
  N  N46  1  0.55792409  0.20093719  0.84084264  1
  N  N47  1  0.44223287  0.09784175  0.62183423  1
  N  N48  1  0.21901199  0.54406837  0.32893766  1
  N  N49  1  0.03716382  0.44921850  0.16442928  1
  N  N50  1  0.89999913  0.52430615  0.86393810  1
  N  N51  1  0.81764912  0.40448593  0.64249924  1
  N  N52  1  0.53974591  0.55288179  0.36695331  1
  N  N53  1  0.46145205  0.43578402  0.13446730  1
  N  N54  1  0.21917378  0.54553740  0.82710788  1
  N  N55  1  0.11812011  0.42035957  0.63337491  1
  N  N56  1  0.90489957  0.53889000  0.41215372  1
  N  N57  1  0.76387883  0.43653222  0.07955288  1
  N  N58  1  0.55250596  0.53443215  0.85525099  1
  N  N59  1  0.43396691  0.41343091  0.63032661  1
  N  N60  1  0.22188349  0.87557256  0.32040353  1
  N  N61  1  0.10283694  0.78681490  0.04334492  1
  N  N62  1  0.88956780  0.87921152  0.84362077  1
  N  N63  1  0.77764878  0.76068167  0.60099835  1
  N  N64  1  0.56867589  0.86579857  0.35862267  1
  N  N65  1  0.41805546  0.76216627  0.04913072  1
  N  N66  1  0.23931934  0.84501061  0.80078770  1
  N  N67  1  0.12727539  0.75297224  0.57543262  1
  N  N68  1  0.90378891  0.84790990  0.39856949  1
  N  N69  1  0.79544603  0.76001504  0.03911838  1
  N  N70  1  0.55304744  0.86814731  0.81593738  1
  N  N71  1  0.43228448  0.79231476  0.56741587  1
