# generated using pymatgen
data_Gd2Al7N9
_symmetry_space_group_name_H-M   'P 1'
_cell_length_a   9.89301846
_cell_length_b   9.87680324
_cell_length_c   10.57905885
_cell_angle_alpha   90.46732094
_cell_angle_beta   89.88584303
_cell_angle_gamma   60.06564675
_symmetry_Int_Tables_number   1
_chemical_formula_structural   Gd2Al7N9
_chemical_formula_sum   'Gd8 Al28 N36'
_cell_volume   895.74567111
_cell_formula_units_Z   4
loop_
 _symmetry_equiv_pos_site_id
 _symmetry_equiv_pos_as_xyz
  1  'x, y, z'
loop_
 _atom_site_type_symbol
 _atom_site_label
 _atom_site_symmetry_multiplicity
 _atom_site_fract_x
 _atom_site_fract_y
 _atom_site_fract_z
 _atom_site_occupancy
  Al  Al0  1  0.12951675  0.07925024  0.42588075  1
  Al  Al1  1  0.77542734  0.09887572  0.82595589  1
  Al  Al2  1  0.89898649  0.20517804  0.59756467  1
  Al  Al3  1  0.44280355  0.09167369  0.42031294  1
  Al  Al4  1  0.22835143  0.21264471  0.64315493  1
  Al  Al5  1  0.87869757  0.20633669  0.07497391  1
  Al  Al6  1  0.44486250  0.09793994  0.88498913  1
  Al  Al7  1  0.54403677  0.20506655  0.65697635  1
  Al  Al8  1  0.10955416  0.42933624  0.41658092  1
  Al  Al9  1  0.78340483  0.42804894  0.83621403  1
  Al  Al10  1  0.89685407  0.54116871  0.65703015  1
  Al  Al11  1  0.42471718  0.42481657  0.42158742  1
  Al  Al12  1  0.56207475  0.54078502  0.05389623  1
  Al  Al13  1  0.11108900  0.43637637  0.88977245  1
  Al  Al14  1  0.21150721  0.53995424  0.65329545  1
  Al  Al15  1  0.89370987  0.54676409  0.13544914  1
  Al  Al16  1  0.43722374  0.42953010  0.88382675  1
  Al  Al17  1  0.12021507  0.74952085  0.40815914  1
  Al  Al18  1  0.20999597  0.88007632  0.14589163  1
  Al  Al19  1  0.78642149  0.76291889  0.89531841  1
  Al  Al20  1  0.89715948  0.86113375  0.65243823  1
  Al  Al21  1  0.43487571  0.77046745  0.41125978  1
  Al  Al22  1  0.11139641  0.76302094  0.89418984  1
  Al  Al23  1  0.22327790  0.86983047  0.65010191  1
  Al  Al24  1  0.79341853  0.74468046  0.40302381  1
  Al  Al25  1  0.90220872  0.86981551  0.15101194  1
  Al  Al26  1  0.44068213  0.76682367  0.88872890  1
  Al  Al27  1  0.55762625  0.87684118  0.64843851  1
  Gd  Gd28  1  0.20828034  0.21162911  0.16621600  1
  Gd  Gd29  1  0.55510174  0.20863479  0.13620408  1
  Gd  Gd30  1  0.11815381  0.09489152  0.87407802  1
  Gd  Gd31  1  0.78073848  0.07535072  0.39012517  1
  Gd  Gd32  1  0.21682744  0.55403057  0.15096910  1
  Gd  Gd33  1  0.76577737  0.42276664  0.33420986  1
  Gd  Gd34  1  0.54587907  0.54583729  0.62941573  1
  Gd  Gd35  1  0.56058505  0.85923550  0.14699647  1
  N  N36  1  0.22402911  0.19961691  0.38803463  1
  N  N37  1  0.09739014  0.08853818  0.09109160  1
  N  N38  1  0.85396360  0.22132645  0.89324274  1
  N  N39  1  0.77877817  0.09550259  0.63488484  1
  N  N40  1  0.51882931  0.21938340  0.35256315  1
  N  N41  1  0.43188233  0.08951685  0.06071336  1
  N  N42  1  0.23820908  0.22937032  0.82264543  1
  N  N43  1  0.12089078  0.08880550  0.61932906  1
  N  N44  1  0.91548094  0.19293583  0.42061208  1
  N  N45  1  0.80693828  0.08878589  0.15937323  1
  N  N46  1  0.55390854  0.20671446  0.83963338  1
  N  N47  1  0.45280219  0.08998637  0.60030267  1
  N  N48  1  0.21957712  0.53362431  0.36813973  1
  N  N49  1  0.09241434  0.43704970  0.06682073  1
  N  N50  1  0.89259364  0.54764982  0.83867523  1
  N  N51  1  0.80627623  0.41165619  0.65181014  1
  N  N52  1  0.51988574  0.55088784  0.40410595  1
  N  N53  1  0.44915732  0.44167545  0.05939085  1
  N  N54  1  0.21659226  0.54697154  0.83765326  1
  N  N55  1  0.10339769  0.43471529  0.59646232  1
  N  N56  1  0.91023540  0.53914763  0.32836208  1
  N  N57  1  0.77153200  0.43935644  0.11403389  1
  N  N58  1  0.56193758  0.54267398  0.86331572  1
  N  N59  1  0.42123153  0.40980604  0.60402389  1
  N  N60  1  0.22307419  0.87142171  0.34159792  1
  N  N61  1  0.09748304  0.79173600  0.07336871  1
  N  N62  1  0.89322437  0.87133764  0.83366700  1
  N  N63  1  0.78424781  0.75671480  0.59063898  1
  N  N64  1  0.56402234  0.86766660  0.36493746  1
  N  N65  1  0.42030452  0.75833792  0.07092081  1
  N  N66  1  0.23932301  0.83856057  0.82504745  1
  N  N67  1  0.11202029  0.76224857  0.59145792  1
  N  N68  1  0.91951629  0.82484325  0.33359087  1
  N  N69  1  0.80675169  0.75692423  0.07635438  1
  N  N70  1  0.56044128  0.87043764  0.83611185  1
  N  N71  1  0.42560490  0.80282282  0.58911075  1
