# generated using pymatgen
data_Gd2Al7N9
_symmetry_space_group_name_H-M   'P 1'
_cell_length_a   9.87475693
_cell_length_b   9.78407414
_cell_length_c   10.95024484
_cell_angle_alpha   89.54155780
_cell_angle_beta   89.29922214
_cell_angle_gamma   59.61980087
_symmetry_Int_Tables_number   1
_chemical_formula_structural   Gd2Al7N9
_chemical_formula_sum   'Gd8 Al28 N36'
_cell_volume   912.62117173
_cell_formula_units_Z   4
loop_
 _symmetry_equiv_pos_site_id
 _symmetry_equiv_pos_as_xyz
  1  'x, y, z'
loop_
 _atom_site_type_symbol
 _atom_site_label
 _atom_site_symmetry_multiplicity
 _atom_site_fract_x
 _atom_site_fract_y
 _atom_site_fract_z
 _atom_site_occupancy
  Al  Al0  1  0.12530586  0.08424711  0.40020070  1
  Al  Al1  1  0.77050360  0.09666979  0.79247839  1
  Al  Al2  1  0.89617737  0.20338534  0.56919249  1
  Al  Al3  1  0.44328184  0.10269628  0.33743644  1
  Al  Al4  1  0.23199486  0.21018171  0.56655308  1
  Al  Al5  1  0.87191214  0.20558046  0.03488308  1
  Al  Al6  1  0.44473670  0.10378777  0.80034650  1
  Al  Al7  1  0.54813833  0.20649646  0.56518066  1
  Al  Al8  1  0.10199212  0.43898307  0.33749179  1
  Al  Al9  1  0.77540081  0.42612437  0.81533659  1
  Al  Al10  1  0.90610114  0.52678234  0.58596332  1
  Al  Al11  1  0.44288226  0.43895503  0.31308754  1
  Al  Al12  1  0.54776581  0.53415560  0.04201263  1
  Al  Al13  1  0.11638248  0.42786569  0.81327367  1
  Al  Al14  1  0.21905798  0.54263095  0.63851691  1
  Al  Al15  1  0.88045685  0.53570129  0.04264020  1
  Al  Al16  1  0.44844642  0.42111595  0.80242675  1
  Al  Al17  1  0.12654538  0.75121165  0.39590999  1
  Al  Al18  1  0.20860618  0.87619756  0.10376613  1
  Al  Al19  1  0.77542458  0.76212536  0.85964603  1
  Al  Al20  1  0.89566439  0.87284202  0.57728985  1
  Al  Al21  1  0.43503915  0.77880663  0.39424245  1
  Al  Al22  1  0.11823672  0.76161668  0.86383971  1
  Al  Al23  1  0.23229494  0.86217180  0.62891304  1
  Al  Al24  1  0.77793348  0.76009592  0.42019000  1
  Al  Al25  1  0.88603417  0.88488278  0.02668094  1
  Al  Al26  1  0.43911038  0.76284970  0.87011231  1
  Al  Al27  1  0.55630674  0.87130784  0.63462055  1
  Gd  Gd28  1  0.20685570  0.20823925  0.09021655  1
  Gd  Gd29  1  0.55125858  0.19884716  0.04946052  1
  Gd  Gd30  1  0.10710232  0.10880069  0.82521347  1
  Gd  Gd31  1  0.78644532  0.08414276  0.31438224  1
  Gd  Gd32  1  0.19681371  0.55044736  0.11613395  1
  Gd  Gd33  1  0.79807414  0.43436927  0.29441395  1
  Gd  Gd34  1  0.56949062  0.52597107  0.57165716  1
  Gd  Gd35  1  0.57249830  0.83393996  0.14881087  1
  N  N36  1  0.22487203  0.21144911  0.38871716  1
  N  N37  1  0.08950073  0.08220650  0.04983859  1
  N  N38  1  0.85007130  0.21574339  0.86336920  1
  N  N39  1  0.77829689  0.09833809  0.61487273  1
  N  N40  1  0.53255032  0.22657694  0.38943558  1
  N  N41  1  0.44678629  0.09033572  0.16592153  1
  N  N42  1  0.24839081  0.22532031  0.88239011  1
  N  N43  1  0.12244895  0.08635616  0.58943493  1
  N  N44  1  0.90710724  0.20387830  0.39468077  1
  N  N45  1  0.79711339  0.07957353  0.10483586  1
  N  N46  1  0.55829899  0.20080009  0.84118299  1
  N  N47  1  0.44261498  0.09823273  0.62320530  1
  N  N48  1  0.21896008  0.54609405  0.32930907  1
  N  N49  1  0.03437637  0.44937990  0.16704388  1
  N  N50  1  0.90034653  0.52335929  0.86520666  1
  N  N51  1  0.81800292  0.40531976  0.64309567  1
  N  N52  1  0.54037033  0.55536028  0.36429797  1
  N  N53  1  0.46083976  0.43437199  0.13403219  1
  N  N54  1  0.22017473  0.54535199  0.82436509  1
  N  N55  1  0.11840708  0.41990244  0.63526339  1
  N  N56  1  0.90511079  0.53999419  0.41360449  1
  N  N57  1  0.76417894  0.43358607  0.07962529  1
  N  N58  1  0.55312429  0.53328647  0.85555035  1
  N  N59  1  0.43542825  0.41302742  0.62992330  1
  N  N60  1  0.22200238  0.87726353  0.32812445  1
  N  N61  1  0.10142831  0.78389859  0.03949069  1
  N  N62  1  0.88792518  0.87824612  0.84364691  1
  N  N63  1  0.77834648  0.76142355  0.60060252  1
  N  N64  1  0.56868891  0.86777134  0.36060195  1
  N  N65  1  0.41889864  0.76090213  0.04603324  1
  N  N66  1  0.23842079  0.84600413  0.80066768  1
  N  N67  1  0.12725770  0.75314144  0.57653608  1
  N  N68  1  0.90406073  0.85041997  0.39948628  1
  N  N69  1  0.79132483  0.76003558  0.03919507  1
  N  N70  1  0.55309102  0.86762090  0.81492372  1
  N  N71  1  0.43466420  0.78989449  0.56943535  1
