# generated using pymatgen
data_Gd2Al7N9
_symmetry_space_group_name_H-M   'P 1'
_cell_length_a   9.76268823
_cell_length_b   9.76913280
_cell_length_c   11.24073128
_cell_angle_alpha   89.61707016
_cell_angle_beta   88.71657192
_cell_angle_gamma   59.93480834
_symmetry_Int_Tables_number   1
_chemical_formula_structural   Gd2Al7N9
_chemical_formula_sum   'Gd8 Al28 N36'
_cell_volume   927.57711076
_cell_formula_units_Z   4
loop_
 _symmetry_equiv_pos_site_id
 _symmetry_equiv_pos_as_xyz
  1  'x, y, z'
loop_
 _atom_site_type_symbol
 _atom_site_label
 _atom_site_symmetry_multiplicity
 _atom_site_fract_x
 _atom_site_fract_y
 _atom_site_fract_z
 _atom_site_occupancy
  Al  Al0  1  0.13391688  0.08367513  0.42357057  1
  Al  Al1  1  0.76491512  0.10001566  0.79487786  1
  Al  Al2  1  0.89598188  0.20363994  0.57333508  1
  Al  Al3  1  0.45084660  0.09755291  0.34153694  1
  Al  Al4  1  0.23329027  0.20810439  0.61714927  1
  Al  Al5  1  0.86380396  0.21103444  0.03201553  1
  Al  Al6  1  0.45259037  0.09858850  0.78582885  1
  Al  Al7  1  0.55637639  0.20157813  0.55936068  1
  Al  Al8  1  0.13352381  0.42830742  0.41872219  1
  Al  Al9  1  0.77162153  0.42687866  0.80693665  1
  Al  Al10  1  0.89854539  0.53259484  0.57979200  1
  Al  Al11  1  0.44711843  0.43730843  0.31660899  1
  Al  Al12  1  0.54491718  0.53386069  0.04208252  1
  Al  Al13  1  0.11104077  0.43234516  0.84120401  1
  Al  Al14  1  0.21828154  0.54268703  0.63774738  1
  Al  Al15  1  0.88473549  0.53118797  0.02349482  1
  Al  Al16  1  0.44442891  0.41758398  0.79971966  1
  Al  Al17  1  0.13573326  0.75428446  0.41061854  1
  Al  Al18  1  0.20759499  0.87564108  0.06409971  1
  Al  Al19  1  0.76871550  0.76549991  0.85926649  1
  Al  Al20  1  0.89558194  0.87530330  0.57683065  1
  Al  Al21  1  0.43945342  0.78109529  0.40170873  1
  Al  Al22  1  0.11305148  0.75603052  0.85893432  1
  Al  Al23  1  0.23245702  0.86413230  0.63473334  1
  Al  Al24  1  0.78390190  0.76112575  0.41550367  1
  Al  Al25  1  0.87683992  0.88992637  0.02039208  1
  Al  Al26  1  0.44419252  0.75571688  0.86451911  1
  Al  Al27  1  0.56350831  0.86529171  0.63155508  1
  Gd  Gd28  1  0.17134837  0.20748383  0.17200084  1
  Gd  Gd29  1  0.52614816  0.21198244  0.05407475  1
  Gd  Gd30  1  0.10870727  0.10097583  0.84146200  1
  Gd  Gd31  1  0.80307822  0.07954188  0.30769928  1
  Gd  Gd32  1  0.17284597  0.57351831  0.14943115  1
  Gd  Gd33  1  0.79040034  0.43838981  0.30063732  1
  Gd  Gd34  1  0.56619592  0.52396592  0.56953819  1
  Gd  Gd35  1  0.56661577  0.83552870  0.14814693  1
  N  N36  1  0.23189006  0.20508581  0.38768161  1
  N  N37  1  0.08875084  0.08845958  0.04843713  1
  N  N38  1  0.84496654  0.22127895  0.86299457  1
  N  N39  1  0.77903576  0.09851113  0.61969807  1
  N  N40  1  0.54664326  0.22112382  0.38555930  1
  N  N41  1  0.43067277  0.09354465  0.16879241  1
  N  N42  1  0.23479617  0.22672426  0.79254772  1
  N  N43  1  0.12092433  0.08744503  0.59928939  1
  N  N44  1  0.91237271  0.20613388  0.39987360  1
  N  N45  1  0.78401716  0.08571295  0.09905783  1
  N  N46  1  0.54988883  0.20165607  0.84855541  1
  N  N47  1  0.46164171  0.08608555  0.61354269  1
  N  N48  1  0.22750140  0.54211786  0.35506589  1
  N  N49  1  0.09560745  0.42202445  0.06343065  1
  N  N50  1  0.88548026  0.53366799  0.85133127  1
  N  N51  1  0.81381214  0.40915822  0.63892476  1
  N  N52  1  0.54174953  0.55678845  0.36836022  1
  N  N53  1  0.44591030  0.44768728  0.14007473  1
  N  N54  1  0.21342725  0.54515966  0.81127537  1
  N  N55  1  0.11971447  0.43131024  0.58905882  1
  N  N56  1  0.90840629  0.54154217  0.40131570  1
  N  N57  1  0.76689769  0.43578467  0.08482231  1
  N  N58  1  0.55101920  0.52810808  0.85710870  1
  N  N59  1  0.43856261  0.40496805  0.63123785  1
  N  N60  1  0.22624412  0.88005627  0.35552958  1
  N  N61  1  0.09645923  0.77933788  0.02953706  1
  N  N62  1  0.88070597  0.88211075  0.84338525  1
  N  N63  1  0.78179657  0.75960610  0.59150411  1
  N  N64  1  0.57551977  0.86461374  0.35640488  1
  N  N65  1  0.42272484  0.75930594  0.03706530  1
  N  N66  1  0.23979645  0.84009039  0.80308079  1
  N  N67  1  0.12587773  0.75662009  0.58430246  1
  N  N68  1  0.91071824  0.85355375  0.40103251  1
  N  N69  1  0.78663180  0.75827189  0.03647246  1
  N  N70  1  0.55270607  0.86641820  0.80834407  1
  N  N71  1  0.43858565  0.78625609  0.57326488  1
