# generated using pymatgen
data_Gd2Al7N9
_symmetry_space_group_name_H-M   'P 1'
_cell_length_a   9.83870858
_cell_length_b   9.74803267
_cell_length_c   11.12830279
_cell_angle_alpha   89.00329773
_cell_angle_beta   89.20206721
_cell_angle_gamma   59.82313913
_symmetry_Int_Tables_number   1
_chemical_formula_structural   Gd2Al7N9
_chemical_formula_sum   'Gd8 Al28 N36'
_cell_volume   922.49574294
_cell_formula_units_Z   4
loop_
 _symmetry_equiv_pos_site_id
 _symmetry_equiv_pos_as_xyz
  1  'x, y, z'
loop_
 _atom_site_type_symbol
 _atom_site_label
 _atom_site_symmetry_multiplicity
 _atom_site_fract_x
 _atom_site_fract_y
 _atom_site_fract_z
 _atom_site_occupancy
  Al  Al0  1  0.12440730  0.08594091  0.42278179  1
  Al  Al1  1  0.77008404  0.09624122  0.79288146  1
  Al  Al2  1  0.89383082  0.20881365  0.57476673  1
  Al  Al3  1  0.44869252  0.10433016  0.34179403  1
  Al  Al4  1  0.23478557  0.21364157  0.57500404  1
  Al  Al5  1  0.86704011  0.20280778  0.02915134  1
  Al  Al6  1  0.44792023  0.10194858  0.79292608  1
  Al  Al7  1  0.55371254  0.20634588  0.56232934  1
  Al  Al8  1  0.10120671  0.44657446  0.34633625  1
  Al  Al9  1  0.77592639  0.42607066  0.81198836  1
  Al  Al10  1  0.90387984  0.53270898  0.58193821  1
  Al  Al11  1  0.44353577  0.44330978  0.31139722  1
  Al  Al12  1  0.55157592  0.52807434  0.03881358  1
  Al  Al13  1  0.11631605  0.42606498  0.80567527  1
  Al  Al14  1  0.22043617  0.54475459  0.63652922  1
  Al  Al15  1  0.88650028  0.52510685  0.04231336  1
  Al  Al16  1  0.44920895  0.41757801  0.79911080  1
  Al  Al17  1  0.12928775  0.75868689  0.39865724  1
  Al  Al18  1  0.21188767  0.86767371  0.05694017  1
  Al  Al19  1  0.77586291  0.75769620  0.86218109  1
  Al  Al20  1  0.89659204  0.87686944  0.57517373  1
  Al  Al21  1  0.43434027  0.78679175  0.39916874  1
  Al  Al22  1  0.11484366  0.75560638  0.85687574  1
  Al  Al23  1  0.23400013  0.86400510  0.63344656  1
  Al  Al24  1  0.77808913  0.76725576  0.41876882  1
  Al  Al25  1  0.88368263  0.88149400  0.02308972  1
  Al  Al26  1  0.44707832  0.75642173  0.86346993  1
  Al  Al27  1  0.56221705  0.86966827  0.63390448  1
  Gd  Gd28  1  0.17936479  0.17488528  0.17342286  1
  Gd  Gd29  1  0.53762389  0.19967506  0.04708353  1
  Gd  Gd30  1  0.10999341  0.10817443  0.83329989  1
  Gd  Gd31  1  0.79235243  0.08847172  0.30827452  1
  Gd  Gd32  1  0.19639980  0.54266062  0.12053568  1
  Gd  Gd33  1  0.79218537  0.44295833  0.29634351  1
  Gd  Gd34  1  0.56905404  0.52710243  0.56818925  1
  Gd  Gd35  1  0.56768875  0.83753285  0.14812673  1
  N  N36  1  0.22593925  0.21362961  0.39465787  1
  N  N37  1  0.08755885  0.07998745  0.04169117  1
  N  N38  1  0.84736988  0.21780883  0.86080184  1
  N  N39  1  0.77975657  0.10019058  0.61684759  1
  N  N40  1  0.53909450  0.22870071  0.38758244  1
  N  N41  1  0.43039574  0.09868284  0.17008165  1
  N  N42  1  0.25010441  0.22220028  0.85487037  1
  N  N43  1  0.12123759  0.09115563  0.59754477  1
  N  N44  1  0.90749653  0.21119677  0.39880321  1
  N  N45  1  0.79007225  0.07637932  0.09955565  1
  N  N46  1  0.55939042  0.19837310  0.84156980  1
  N  N47  1  0.45091329  0.09562286  0.61748922  1
  N  N48  1  0.21840640  0.55288935  0.33003290  1
  N  N49  1  0.03765611  0.43994778  0.17303454  1
  N  N50  1  0.90170763  0.52099545  0.86579901  1
  N  N51  1  0.81527335  0.41203663  0.64226679  1
  N  N52  1  0.53603833  0.56400024  0.36367097  1
  N  N53  1  0.46138241  0.43218643  0.13405463  1
  N  N54  1  0.22103898  0.54327493  0.81592174  1
  N  N55  1  0.11547809  0.42790913  0.62765624  1
  N  N56  1  0.90104809  0.54721800  0.41181083  1
  N  N57  1  0.76753762  0.42577916  0.08247126  1
  N  N58  1  0.55513310  0.52888236  0.85500271  1
  N  N59  1  0.43770835  0.41146150  0.62822453  1
  N  N60  1  0.22122572  0.88963630  0.34814375  1
  N  N61  1  0.10080752  0.77119525  0.02977640  1
  N  N62  1  0.88525891  0.87644156  0.84310882  1
  N  N63  1  0.78027030  0.76480000  0.59503538  1
  N  N64  1  0.57032305  0.87143881  0.35841548  1
  N  N65  1  0.42670580  0.75575354  0.03808957  1
  N  N66  1  0.24077108  0.84206143  0.80379983  1
  N  N67  1  0.12790238  0.75708914  0.57754239  1
  N  N68  1  0.90520586  0.85836156  0.39936683  1
  N  N69  1  0.79011492  0.75371092  0.04035921  1
  N  N70  1  0.55861544  0.86310475  0.81007161  1
  N  N71  1  0.43721050  0.79064660  0.57262626  1
