# generated using pymatgen
data_Gd2Al7N9
_symmetry_space_group_name_H-M   'P 1'
_cell_length_a   9.89832106
_cell_length_b   9.85139496
_cell_length_c   10.60800901
_cell_angle_alpha   89.24035667
_cell_angle_beta   88.99821065
_cell_angle_gamma   59.90641312
_symmetry_Int_Tables_number   1
_chemical_formula_structural   Gd2Al7N9
_chemical_formula_sum   'Gd8 Al28 N36'
_cell_volume   894.83138422
_cell_formula_units_Z   4
loop_
 _symmetry_equiv_pos_site_id
 _symmetry_equiv_pos_as_xyz
  1  'x, y, z'
loop_
 _atom_site_type_symbol
 _atom_site_label
 _atom_site_symmetry_multiplicity
 _atom_site_fract_x
 _atom_site_fract_y
 _atom_site_fract_z
 _atom_site_occupancy
  Al  Al0  1  0.12736256  0.08566268  0.38468014  1
  Al  Al1  1  0.77186484  0.09381329  0.78487817  1
  Al  Al2  1  0.89482175  0.20526819  0.55755058  1
  Al  Al3  1  0.44437571  0.10381127  0.32282321  1
  Al  Al4  1  0.23048529  0.21039926  0.55562273  1
  Al  Al5  1  0.87590541  0.20339789  0.02590761  1
  Al  Al6  1  0.44923737  0.08966695  0.78824220  1
  Al  Al7  1  0.54763846  0.20813971  0.55861964  1
  Al  Al8  1  0.10799176  0.43483235  0.32047500  1
  Al  Al9  1  0.77827669  0.42780087  0.80714645  1
  Al  Al10  1  0.90041765  0.53738758  0.56620268  1
  Al  Al11  1  0.44102617  0.43792302  0.30941280  1
  Al  Al12  1  0.54928114  0.52987402  0.03516502  1
  Al  Al13  1  0.11919043  0.43035557  0.79327623  1
  Al  Al14  1  0.21873486  0.53774735  0.54641995  1
  Al  Al15  1  0.88788938  0.54040270  0.03846779  1
  Al  Al16  1  0.43395684  0.42351892  0.78753893  1
  Al  Al17  1  0.11063653  0.76181714  0.31218922  1
  Al  Al18  1  0.20788319  0.87978060  0.11909652  1
  Al  Al19  1  0.77545015  0.76269228  0.80149247  1
  Al  Al20  1  0.89294132  0.86613988  0.55748889  1
  Al  Al21  1  0.43713201  0.77308642  0.37267248  1
  Al  Al22  1  0.11123538  0.74922781  0.78596640  1
  Al  Al23  1  0.22852925  0.86511082  0.61135188  1
  Al  Al24  1  0.79836568  0.75471317  0.32113500  1
  Al  Al25  1  0.89570480  0.87471333  0.04238081  1
  Al  Al26  1  0.43379869  0.75805500  0.86205981  1
  Al  Al27  1  0.56197923  0.87897373  0.55152407  1
  Gd  Gd28  1  0.21177717  0.20439670  0.07260437  1
  Gd  Gd29  1  0.55198167  0.20430527  0.03589236  1
  Gd  Gd30  1  0.10870125  0.09721573  0.81575263  1
  Gd  Gd31  1  0.78195484  0.09160084  0.30643502  1
  Gd  Gd32  1  0.20700748  0.55141923  0.06502391  1
  Gd  Gd33  1  0.79067288  0.43662129  0.28640662  1
  Gd  Gd34  1  0.56193804  0.53761149  0.57617718  1
  Gd  Gd35  1  0.55965411  0.85096232  0.08495583  1
  N  N36  1  0.22604163  0.21071900  0.37250524  1
  N  N37  1  0.09216495  0.07453718  0.04137303  1
  N  N38  1  0.84988198  0.21723508  0.84971486  1
  N  N39  1  0.78050962  0.09309193  0.60059237  1
  N  N40  1  0.53083446  0.22670577  0.37821391  1
  N  N41  1  0.44875788  0.09154628  0.14930502  1
  N  N42  1  0.24391263  0.22225632  0.85563222  1
  N  N43  1  0.12046250  0.08707646  0.57668088  1
  N  N44  1  0.91147250  0.20309548  0.37825225  1
  N  N45  1  0.79279519  0.08521685  0.09319362  1
  N  N46  1  0.55539669  0.20023389  0.82074326  1
  N  N47  1  0.44602176  0.09090931  0.60570614  1
  N  N48  1  0.22265669  0.54249960  0.35943911  1
  N  N49  1  0.06350172  0.44141988  0.14596394  1
  N  N50  1  0.89738334  0.53688215  0.85488668  1
  N  N51  1  0.81826411  0.40933469  0.62604516  1
  N  N52  1  0.54025675  0.55238376  0.35820229  1
  N  N53  1  0.45741361  0.43445902  0.12887235  1
  N  N54  1  0.21989558  0.54066056  0.84651457  1
  N  N55  1  0.11692441  0.42654219  0.61089127  1
  N  N56  1  0.90283657  0.55143908  0.38884456  1
  N  N57  1  0.76890248  0.43399842  0.06703926  1
  N  N58  1  0.55255252  0.53069283  0.83894544  1
  N  N59  1  0.42315630  0.42000196  0.61050021  1
  N  N60  1  0.22851920  0.88265594  0.30898063  1
  N  N61  1  0.08350757  0.79020101  0.13405481  1
  N  N62  1  0.89320397  0.87025089  0.85131788  1
  N  N63  1  0.77636846  0.76235799  0.61781298  1
  N  N64  1  0.57375406  0.87217948  0.36059983  1
  N  N65  1  0.40563740  0.74689652  0.04148011  1
  N  N66  1  0.24032173  0.83932650  0.78808734  1
  N  N67  1  0.10957058  0.75461808  0.60199360  1
  N  N68  1  0.90713973  0.84904540  0.38063457  1
  N  N69  1  0.81404090  0.74573650  0.10618057  1
  N  N70  1  0.55364435  0.87209579  0.85293403  1
  N  N71  1  0.42780189  0.79620207  0.55051319  1
