# generated using pymatgen
data_Gd2Al7N9
_symmetry_space_group_name_H-M   'P 1'
_cell_length_a   9.89109124
_cell_length_b   9.83984259
_cell_length_c   10.75788563
_cell_angle_alpha   89.54118455
_cell_angle_beta   89.15395661
_cell_angle_gamma   59.77670799
_symmetry_Int_Tables_number   1
_chemical_formula_structural   Gd2Al7N9
_chemical_formula_sum   'Gd8 Al28 N36'
_cell_volume   904.60896015
_cell_formula_units_Z   4
loop_
 _symmetry_equiv_pos_site_id
 _symmetry_equiv_pos_as_xyz
  1  'x, y, z'
loop_
 _atom_site_type_symbol
 _atom_site_label
 _atom_site_symmetry_multiplicity
 _atom_site_fract_x
 _atom_site_fract_y
 _atom_site_fract_z
 _atom_site_occupancy
  Al  Al0  1  0.12617733  0.08330624  0.38317617  1
  Al  Al1  1  0.76963658  0.09881558  0.78076392  1
  Al  Al2  1  0.89578474  0.20349674  0.55515353  1
  Al  Al3  1  0.44425524  0.10085198  0.32300936  1
  Al  Al4  1  0.23215213  0.20689775  0.55289067  1
  Al  Al5  1  0.87411098  0.20610641  0.02569104  1
  Al  Al6  1  0.44362192  0.10294254  0.78749983  1
  Al  Al7  1  0.54937948  0.20497034  0.55415298  1
  Al  Al8  1  0.10158392  0.43845279  0.32208295  1
  Al  Al9  1  0.77683436  0.42579210  0.80488955  1
  Al  Al10  1  0.90570606  0.52647074  0.57313663  1
  Al  Al11  1  0.44237711  0.43724447  0.30767618  1
  Al  Al12  1  0.54645314  0.53737794  0.03344243  1
  Al  Al13  1  0.12118529  0.42984043  0.79390069  1
  Al  Al14  1  0.22639954  0.52766314  0.54998355  1
  Al  Al15  1  0.88354258  0.53746107  0.02894614  1
  Al  Al16  1  0.43530449  0.42545685  0.78879436  1
  Al  Al17  1  0.12142242  0.75923531  0.37876999  1
  Al  Al18  1  0.20819465  0.87773381  0.10966283  1
  Al  Al19  1  0.77777935  0.76163897  0.84328329  1
  Al  Al20  1  0.89615840  0.87158137  0.56593461  1
  Al  Al21  1  0.43848184  0.77474904  0.37971839  1
  Al  Al22  1  0.11770548  0.75868608  0.84641032  1
  Al  Al23  1  0.23068958  0.86203782  0.61469869  1
  Al  Al24  1  0.77822474  0.75868840  0.40446975  1
  Al  Al25  1  0.88678092  0.88574775  0.01873612  1
  Al  Al26  1  0.43759757  0.76191760  0.85956464  1
  Al  Al27  1  0.55505030  0.87253877  0.62103446  1
  Gd  Gd28  1  0.20826983  0.21031923  0.07568787  1
  Gd  Gd29  1  0.54980994  0.20797571  0.03744031  1
  Gd  Gd30  1  0.10753971  0.10263268  0.81549654  1
  Gd  Gd31  1  0.78484929  0.08435251  0.30271446  1
  Gd  Gd32  1  0.20385317  0.54415511  0.07118189  1
  Gd  Gd33  1  0.79332171  0.43511712  0.28491936  1
  Gd  Gd34  1  0.56450641  0.53262578  0.57180830  1
  Gd  Gd35  1  0.57255052  0.83890768  0.12820722  1
  N  N36  1  0.22513464  0.20865763  0.37124081  1
  N  N37  1  0.09049269  0.08231542  0.04501982  1
  N  N38  1  0.85002665  0.21686728  0.85182197  1
  N  N39  1  0.77865614  0.09763003  0.60049591  1
  N  N40  1  0.53316043  0.22308531  0.37627323  1
  N  N41  1  0.44847097  0.09272621  0.14851054  1
  N  N42  1  0.24425510  0.22386624  0.86171712  1
  N  N43  1  0.12189040  0.08543373  0.57598443  1
  N  N44  1  0.90991944  0.20081749  0.37822852  1
  N  N45  1  0.79323351  0.08394769  0.09132748  1
  N  N46  1  0.55593297  0.20254913  0.82560962  1
  N  N47  1  0.44327239  0.09641382  0.60778615  1
  N  N48  1  0.22514090  0.53478297  0.35991218  1
  N  N49  1  0.04243443  0.45352486  0.15067551  1
  N  N50  1  0.90216619  0.52443641  0.84766758  1
  N  N51  1  0.81817438  0.40443402  0.62820165  1
  N  N52  1  0.54020240  0.55242265  0.35972003  1
  N  N53  1  0.45614840  0.44217515  0.12914889  1
  N  N54  1  0.22252686  0.53752086  0.84933255  1
  N  N55  1  0.12154374  0.42208362  0.61412051  1
  N  N56  1  0.90388719  0.54086212  0.39815513  1
  N  N57  1  0.76488642  0.43674488  0.06665138  1
  N  N58  1  0.55135204  0.53294366  0.84029872  1
  N  N59  1  0.42819140  0.41473649  0.61335759  1
  N  N60  1  0.22387357  0.87555386  0.30771137  1
  N  N61  1  0.09654070  0.78962403  0.04662631  1
  N  N62  1  0.89098982  0.87904723  0.83014179  1
  N  N63  1  0.77786999  0.76090866  0.58927213  1
  N  N64  1  0.56976678  0.86515032  0.34344778  1
  N  N65  1  0.41630164  0.76065669  0.03764423  1
  N  N66  1  0.23931600  0.84137185  0.78841503  1
  N  N67  1  0.12558401  0.75573508  0.56230473  1
  N  N68  1  0.90301909  0.84919923  0.38343158  1
  N  N69  1  0.79587654  0.75854695  0.02490335  1
  N  N70  1  0.55212320  0.86801822  0.80472413  1
  N  N71  1  0.43177051  0.79462494  0.55554966  1
