# generated using pymatgen
data_Gd2Al7N9
_symmetry_space_group_name_H-M   'P 1'
_cell_length_a   9.87159233
_cell_length_b   9.88717365
_cell_length_c   10.51316878
_cell_angle_alpha   90.53101289
_cell_angle_beta   90.79005270
_cell_angle_gamma   59.93283324
_symmetry_Int_Tables_number   1
_chemical_formula_structural   Gd2Al7N9
_chemical_formula_sum   'Gd8 Al28 N36'
_cell_volume   887.94568887
_cell_formula_units_Z   4
loop_
 _symmetry_equiv_pos_site_id
 _symmetry_equiv_pos_as_xyz
  1  'x, y, z'
loop_
 _atom_site_type_symbol
 _atom_site_label
 _atom_site_symmetry_multiplicity
 _atom_site_fract_x
 _atom_site_fract_y
 _atom_site_fract_z
 _atom_site_occupancy
  Al  Al0  1  0.11398093  0.08593343  0.41412463  1
  Al  Al1  1  0.78338784  0.09158119  0.89351292  1
  Al  Al2  1  0.88812048  0.20245823  0.65519759  1
  Al  Al3  1  0.44127887  0.09276794  0.42454963  1
  Al  Al4  1  0.22257111  0.21195184  0.63571587  1
  Al  Al5  1  0.89968203  0.19520701  0.14928854  1
  Al  Al6  1  0.44614238  0.09700497  0.88243622  1
  Al  Al7  1  0.55375716  0.20023140  0.66318917  1
  Al  Al8  1  0.10869350  0.43525953  0.41756735  1
  Al  Al9  1  0.78414263  0.43123683  0.83874405  1
  Al  Al10  1  0.89274320  0.54494613  0.64939729  1
  Al  Al11  1  0.42322966  0.42655131  0.42312695  1
  Al  Al12  1  0.56818473  0.53445697  0.06198970  1
  Al  Al13  1  0.11199117  0.43119893  0.88625946  1
  Al  Al14  1  0.21055874  0.54045600  0.65301691  1
  Al  Al15  1  0.89432021  0.53984854  0.13905940  1
  Al  Al16  1  0.43977403  0.42579274  0.88533556  1
  Al  Al17  1  0.11566669  0.75491717  0.40564277  1
  Al  Al18  1  0.21989281  0.86999416  0.15152086  1
  Al  Al19  1  0.78809226  0.75896792  0.89274568  1
  Al  Al20  1  0.89154661  0.87063548  0.65656445  1
  Al  Al21  1  0.43016651  0.77400297  0.41194232  1
  Al  Al22  1  0.11549697  0.75984685  0.89313210  1
  Al  Al23  1  0.21514029  0.87764299  0.64706054  1
  Al  Al24  1  0.79061109  0.75617117  0.40096963  1
  Al  Al25  1  0.90353701  0.86716317  0.13757613  1
  Al  Al26  1  0.44293203  0.76456782  0.89077027  1
  Al  Al27  1  0.55603137  0.87840733  0.64893917  1
  Gd  Gd28  1  0.21816580  0.21026263  0.17326423  1
  Gd  Gd29  1  0.56030038  0.20701455  0.13595059  1
  Gd  Gd30  1  0.12166854  0.09285274  0.89202658  1
  Gd  Gd31  1  0.77519859  0.08528098  0.40375632  1
  Gd  Gd32  1  0.21609351  0.54805708  0.14928788  1
  Gd  Gd33  1  0.76924214  0.43798037  0.37024831  1
  Gd  Gd34  1  0.53517034  0.55362164  0.63390634  1
  Gd  Gd35  1  0.56532734  0.85870565  0.14548572  1
  N  N36  1  0.21865774  0.20429823  0.39563453  1
  N  N37  1  0.11020288  0.08064297  0.10352155  1
  N  N38  1  0.86867211  0.21603891  0.83633686  1
  N  N39  1  0.77575216  0.09325287  0.61693782  1
  N  N40  1  0.51609633  0.21994904  0.35173005  1
  N  N41  1  0.43422745  0.09200949  0.05988263  1
  N  N42  1  0.23644412  0.22412709  0.81835586  1
  N  N43  1  0.10168066  0.09467971  0.60195773  1
  N  N44  1  0.91625527  0.18386943  0.33204236  1
  N  N45  1  0.80898076  0.07899640  0.07911928  1
  N  N46  1  0.56145230  0.20257148  0.84692021  1
  N  N47  1  0.45262006  0.09173159  0.60459130  1
  N  N48  1  0.21660006  0.53818685  0.36776127  1
  N  N49  1  0.09077861  0.42911827  0.06430009  1
  N  N50  1  0.89166506  0.54518303  0.83183699  1
  N  N51  1  0.79817952  0.42020364  0.61953431  1
  N  N52  1  0.51338695  0.55489609  0.40577250  1
  N  N53  1  0.44925818  0.44075856  0.06187701  1
  N  N54  1  0.21793124  0.54379017  0.83865858  1
  N  N55  1  0.10114426  0.43777732  0.59665106  1
  N  N56  1  0.91127513  0.55095621  0.32827852  1
  N  N57  1  0.77624826  0.42992723  0.12525651  1
  N  N58  1  0.56595271  0.53898452  0.86667682  1
  N  N59  1  0.42215527  0.40728677  0.60691483  1
  N  N60  1  0.22101767  0.87046977  0.34231552  1
  N  N61  1  0.10622785  0.78502904  0.07396139  1
  N  N62  1  0.89428308  0.87035477  0.83776138  1
  N  N63  1  0.78175818  0.76251469  0.58968732  1
  N  N64  1  0.55906387  0.87139874  0.36427249  1
  N  N65  1  0.42694064  0.75358244  0.07360293  1
  N  N66  1  0.23921609  0.84084873  0.82403406  1
  N  N67  1  0.10761427  0.76446893  0.59109280  1
  N  N68  1  0.90866643  0.84372604  0.32489669  1
  N  N69  1  0.81118409  0.74788849  0.07342169  1
  N  N70  1  0.56175371  0.86773209  0.83761132  1
  N  N71  1  0.41920301  0.80976931  0.58947007  1
