# generated using pymatgen
data_Gd2Al7N9
_symmetry_space_group_name_H-M   'P 1'
_cell_length_a   9.85319935
_cell_length_b   9.81833332
_cell_length_c   10.77906319
_cell_angle_alpha   89.47778036
_cell_angle_beta   89.16108200
_cell_angle_gamma   59.84941517
_symmetry_Int_Tables_number   1
_chemical_formula_structural   Gd2Al7N9
_chemical_formula_sum   'Gd8 Al28 N36'
_cell_volume   901.60900166
_cell_formula_units_Z   4
loop_
 _symmetry_equiv_pos_site_id
 _symmetry_equiv_pos_as_xyz
  1  'x, y, z'
loop_
 _atom_site_type_symbol
 _atom_site_label
 _atom_site_symmetry_multiplicity
 _atom_site_fract_x
 _atom_site_fract_y
 _atom_site_fract_z
 _atom_site_occupancy
  Al  Al0  1  0.12680573  0.08378346  0.38442578  1
  Al  Al1  1  0.77116433  0.09786869  0.78283479  1
  Al  Al2  1  0.89523527  0.20298617  0.55514193  1
  Al  Al3  1  0.44502209  0.09999517  0.32226247  1
  Al  Al4  1  0.23221650  0.20816215  0.55259705  1
  Al  Al5  1  0.87292492  0.20696874  0.02442821  1
  Al  Al6  1  0.44371990  0.10279269  0.78752846  1
  Al  Al7  1  0.54916819  0.20533554  0.55423958  1
  Al  Al8  1  0.10426585  0.43815729  0.32056463  1
  Al  Al9  1  0.77695723  0.42682776  0.80380177  1
  Al  Al10  1  0.90594252  0.52658361  0.57184707  1
  Al  Al11  1  0.44108025  0.43792358  0.30747401  1
  Al  Al12  1  0.54624394  0.53574356  0.03344079  1
  Al  Al13  1  0.12096207  0.42918094  0.79293687  1
  Al  Al14  1  0.22121858  0.53472360  0.54707386  1
  Al  Al15  1  0.88625798  0.53629943  0.02956423  1
  Al  Al16  1  0.43529680  0.42581514  0.78716648  1
  Al  Al17  1  0.10974517  0.75972108  0.31435119  1
  Al  Al18  1  0.20864499  0.88000853  0.11910334  1
  Al  Al19  1  0.78003117  0.76275687  0.84831406  1
  Al  Al20  1  0.89777876  0.87094272  0.56237386  1
  Al  Al21  1  0.43957544  0.77543673  0.37981817  1
  Al  Al22  1  0.11459003  0.74996390  0.78192500  1
  Al  Al23  1  0.23154271  0.86490494  0.61267891  1
  Al  Al24  1  0.77983007  0.75866651  0.40436572  1
  Al  Al25  1  0.89838150  0.88137737  0.02854243  1
  Al  Al26  1  0.43608066  0.76151741  0.86040463  1
  Al  Al27  1  0.55642661  0.87154222  0.62256780  1
  Gd  Gd28  1  0.20851008  0.20690744  0.07566602  1
  Gd  Gd29  1  0.54801722  0.20711614  0.03609163  1
  Gd  Gd30  1  0.10828964  0.10010251  0.81661521  1
  Gd  Gd31  1  0.78582041  0.08286072  0.30056146  1
  Gd  Gd32  1  0.20154529  0.55294560  0.06186493  1
  Gd  Gd33  1  0.79287201  0.43492805  0.28573826  1
  Gd  Gd34  1  0.56477280  0.53213586  0.57032223  1
  Gd  Gd35  1  0.57310653  0.83629809  0.12767662  1
  N  N36  1  0.22570119  0.20990511  0.37116565  1
  N  N37  1  0.09029893  0.07591391  0.04179964  1
  N  N38  1  0.84967899  0.21873813  0.85134689  1
  N  N39  1  0.77904937  0.09620343  0.60220583  1
  N  N40  1  0.53404702  0.22286346  0.37578830  1
  N  N41  1  0.44849164  0.09016901  0.14804824  1
  N  N42  1  0.24457031  0.22429812  0.86295765  1
  N  N43  1  0.12147557  0.08615696  0.57477115  1
  N  N44  1  0.90936485  0.20022854  0.37806849  1
  N  N45  1  0.79075274  0.08690009  0.08911874  1
  N  N46  1  0.55585661  0.20309992  0.82497866  1
  N  N47  1  0.44336029  0.09581298  0.60841466  1
  N  N48  1  0.22333545  0.54017621  0.36151347  1
  N  N49  1  0.05104949  0.45231448  0.14753554  1
  N  N50  1  0.90208691  0.52547273  0.84854719  1
  N  N51  1  0.81825924  0.40443955  0.62756222  1
  N  N52  1  0.54064964  0.55249388  0.35860448  1
  N  N53  1  0.45194075  0.44203627  0.12825770  1
  N  N54  1  0.21951802  0.54280039  0.84531355  1
  N  N55  1  0.12143004  0.42195063  0.61352110  1
  N  N56  1  0.90542041  0.54072610  0.39642930  1
  N  N57  1  0.76550845  0.43724008  0.06811733  1
  N  N58  1  0.55157350  0.53266622  0.84117259  1
  N  N59  1  0.42597955  0.41650576  0.61174620  1
  N  N60  1  0.22996293  0.87943197  0.30981568  1
  N  N61  1  0.07927965  0.79168194  0.13360674  1
  N  N62  1  0.89856078  0.87772799  0.83937821  1
  N  N63  1  0.77766920  0.76083795  0.58814666  1
  N  N64  1  0.57231158  0.86472926  0.34193426  1
  N  N65  1  0.41111493  0.75897740  0.03835437  1
  N  N66  1  0.24151629  0.84224031  0.78719865  1
  N  N67  1  0.11563568  0.75227397  0.60144833  1
  N  N68  1  0.90826830  0.84815818  0.38685146  1
  N  N69  1  0.80061629  0.75725070  0.02854693  1
  N  N70  1  0.55392342  0.86764863  0.80695480  1
  N  N71  1  0.43312103  0.79385204  0.55482831  1
