# generated using pymatgen
data_Gd2Al7N9
_symmetry_space_group_name_H-M   'P 1'
_cell_length_a   9.87533654
_cell_length_b   9.85668903
_cell_length_c   10.43338534
_cell_angle_alpha   90.44219002
_cell_angle_beta   90.33801813
_cell_angle_gamma   60.03291447
_symmetry_Int_Tables_number   1
_chemical_formula_structural   Gd2Al7N9
_chemical_formula_sum   'Gd8 Al28 N36'
_cell_volume   879.76897373
_cell_formula_units_Z   4
loop_
 _symmetry_equiv_pos_site_id
 _symmetry_equiv_pos_as_xyz
  1  'x, y, z'
loop_
 _atom_site_type_symbol
 _atom_site_label
 _atom_site_symmetry_multiplicity
 _atom_site_fract_x
 _atom_site_fract_y
 _atom_site_fract_z
 _atom_site_occupancy
  Al  Al0  1  0.11455368  0.08629568  0.43177978  1
  Al  Al1  1  0.78149027  0.09363247  0.90537506  1
  Al  Al2  1  0.88753249  0.20869183  0.67341121  1
  Al  Al3  1  0.44463312  0.09189148  0.43750601  1
  Al  Al4  1  0.22471661  0.21120185  0.64638758  1
  Al  Al5  1  0.89896852  0.19421066  0.15817511  1
  Al  Al6  1  0.44417717  0.09801113  0.89315194  1
  Al  Al7  1  0.55426449  0.20404219  0.67602393  1
  Al  Al8  1  0.11152065  0.43609233  0.43399600  1
  Al  Al9  1  0.77411483  0.43285506  0.92164064  1
  Al  Al10  1  0.89268867  0.53782621  0.66772136  1
  Al  Al11  1  0.42759259  0.42931914  0.42355083  1
  Al  Al12  1  0.54001493  0.54736413  0.15940683  1
  Al  Al13  1  0.11113529  0.42962914  0.89616514  1
  Al  Al14  1  0.21659148  0.54096898  0.66542757  1
  Al  Al15  1  0.89336176  0.54136959  0.14921458  1
  Al  Al16  1  0.44161422  0.43437439  0.90977683  1
  Al  Al17  1  0.11410633  0.75758673  0.42041342  1
  Al  Al18  1  0.21415288  0.87360501  0.16631459  1
  Al  Al19  1  0.78743800  0.75715310  0.90450138  1
  Al  Al20  1  0.89169187  0.87046607  0.66949919  1
  Al  Al21  1  0.43316252  0.77128623  0.41396312  1
  Al  Al22  1  0.11493436  0.75993118  0.90577664  1
  Al  Al23  1  0.22208038  0.86982047  0.66008009  1
  Al  Al24  1  0.79170775  0.75627858  0.41372885  1
  Al  Al25  1  0.90124912  0.87001992  0.15047992  1
  Al  Al26  1  0.44411969  0.75373680  0.91514002  1
  Al  Al27  1  0.55788440  0.87356987  0.66176928  1
  Gd  Gd28  1  0.21208760  0.20981912  0.18812774  1
  Gd  Gd29  1  0.55502274  0.20680392  0.14616327  1
  Gd  Gd30  1  0.12230476  0.09235482  0.89947608  1
  Gd  Gd31  1  0.77688509  0.08966083  0.41631740  1
  Gd  Gd32  1  0.20191198  0.55112099  0.16304773  1
  Gd  Gd33  1  0.78131941  0.43515445  0.39162992  1
  Gd  Gd34  1  0.55506014  0.54346819  0.66259861  1
  Gd  Gd35  1  0.56463457  0.86329324  0.15473876  1
  N  N36  1  0.22084409  0.20427375  0.41491444  1
  N  N37  1  0.10755028  0.08070534  0.11175814  1
  N  N38  1  0.86373807  0.22453157  0.85566365  1
  N  N39  1  0.77719519  0.09529241  0.63201600  1
  N  N40  1  0.51931623  0.21806721  0.36298146  1
  N  N41  1  0.42587041  0.09545298  0.07158664  1
  N  N42  1  0.23780893  0.22365040  0.82865062  1
  N  N43  1  0.10527499  0.09058329  0.62045251  1
  N  N44  1  0.92120435  0.18618506  0.34052097  1
  N  N45  1  0.80521750  0.08076299  0.09331077  1
  N  N46  1  0.55825814  0.20799629  0.86256306  1
  N  N47  1  0.45667750  0.08931942  0.61883282  1
  N  N48  1  0.21740310  0.54067322  0.38253330  1
  N  N49  1  0.08805490  0.42398106  0.07445127  1
  N  N50  1  0.88481262  0.53967006  0.85081728  1
  N  N51  1  0.80783946  0.41329578  0.60676367  1
  N  N52  1  0.51727222  0.55436471  0.35179612  1
  N  N53  1  0.44171521  0.44770440  0.08808747  1
  N  N54  1  0.22047796  0.54236738  0.85340412  1
  N  N55  1  0.10345888  0.43944333  0.61412654  1
  N  N56  1  0.91768378  0.54897553  0.33648198  1
  N  N57  1  0.77193772  0.43391895  0.11755022  1
  N  N58  1  0.56019201  0.53833754  0.87526079  1
  N  N59  1  0.43085794  0.41303381  0.60904783  1
  N  N60  1  0.21846010  0.87356501  0.35803289  1
  N  N61  1  0.10343621  0.78726699  0.08739118  1
  N  N62  1  0.89350553  0.87043353  0.85111524  1
  N  N63  1  0.78304490  0.75867837  0.60388898  1
  N  N64  1  0.56141785  0.87181375  0.37456734  1
  N  N65  1  0.42305816  0.75614846  0.09964582  1
  N  N66  1  0.24356164  0.83687996  0.83890437  1
  N  N67  1  0.10777808  0.76452225  0.60562621  1
  N  N68  1  0.90867225  0.84576736  0.33996964  1
  N  N69  1  0.81275770  0.74852350  0.08661334  1
  N  N70  1  0.56012193  0.86492255  0.85322658  1
  N  N71  1  0.42845801  0.79329998  0.59446831  1
