# generated using pymatgen
data_Gd2Al7N9
_symmetry_space_group_name_H-M   'P 1'
_cell_length_a   9.93742576
_cell_length_b   9.93991221
_cell_length_c   10.48719244
_cell_angle_alpha   90.46127646
_cell_angle_beta   89.91092863
_cell_angle_gamma   59.80933895
_symmetry_Int_Tables_number   1
_chemical_formula_structural   Gd2Al7N9
_chemical_formula_sum   'Gd8 Al28 N36'
_cell_volume   895.33492566
_cell_formula_units_Z   4
loop_
 _symmetry_equiv_pos_site_id
 _symmetry_equiv_pos_as_xyz
  1  'x, y, z'
loop_
 _atom_site_type_symbol
 _atom_site_label
 _atom_site_symmetry_multiplicity
 _atom_site_fract_x
 _atom_site_fract_y
 _atom_site_fract_z
 _atom_site_occupancy
  Al  Al0  1  0.12383783  0.08371422  0.42304061  1
  Al  Al1  1  0.77575432  0.09543279  0.82172470  1
  Al  Al2  1  0.89267184  0.20744001  0.63158275  1
  Al  Al3  1  0.44317863  0.09146479  0.42031142  1
  Al  Al4  1  0.22532149  0.21158096  0.63938212  1
  Al  Al5  1  0.89281922  0.20174772  0.14895203  1
  Al  Al6  1  0.44401485  0.09595217  0.88235252  1
  Al  Al7  1  0.54224213  0.20392218  0.65513947  1
  Al  Al8  1  0.11253658  0.43145918  0.41595211  1
  Al  Al9  1  0.78232991  0.43314673  0.82240823  1
  Al  Al10  1  0.89484513  0.54685528  0.64924131  1
  Al  Al11  1  0.42407275  0.42495751  0.41931483  1
  Al  Al12  1  0.56857866  0.53435244  0.06069273  1
  Al  Al13  1  0.11064638  0.43322110  0.88701162  1
  Al  Al14  1  0.21120151  0.53913907  0.65319004  1
  Al  Al15  1  0.89541427  0.54073205  0.14090753  1
  Al  Al16  1  0.43897907  0.42809533  0.88450155  1
  Al  Al17  1  0.12216127  0.75008994  0.40736510  1
  Al  Al18  1  0.21462675  0.87413209  0.15059940  1
  Al  Al19  1  0.78802982  0.76021582  0.89381882  1
  Al  Al20  1  0.89769748  0.85998880  0.64913633  1
  Al  Al21  1  0.43089826  0.77352304  0.41088640  1
  Al  Al22  1  0.11253864  0.76264142  0.89352900  1
  Al  Al23  1  0.21912570  0.87585774  0.65000635  1
  Al  Al24  1  0.79546066  0.74999870  0.40160110  1
  Al  Al25  1  0.90476168  0.86427645  0.15065647  1
  Al  Al26  1  0.44203199  0.76541538  0.89155074  1
  Al  Al27  1  0.55726842  0.87671994  0.64772076  1
  Gd  Gd28  1  0.21435307  0.21061672  0.16953814  1
  Gd  Gd29  1  0.55751197  0.20605215  0.13097536  1
  Gd  Gd30  1  0.11340289  0.09707260  0.88629452  1
  Gd  Gd31  1  0.77779322  0.07989681  0.39269039  1
  Gd  Gd32  1  0.21591913  0.55031455  0.14719914  1
  Gd  Gd33  1  0.76481314  0.44284291  0.36861892  1
  Gd  Gd34  1  0.53074163  0.55473329  0.63203790  1
  Gd  Gd35  1  0.56349326  0.85788499  0.14548325  1
  N  N36  1  0.22412750  0.20120919  0.39159084  1
  N  N37  1  0.09987199  0.08627330  0.10281629  1
  N  N38  1  0.86615998  0.21896828  0.82598178  1
  N  N39  1  0.77447327  0.09057898  0.62623153  1
  N  N40  1  0.51610510  0.21945534  0.34954518  1
  N  N41  1  0.43254729  0.08777627  0.05931272  1
  N  N42  1  0.23595430  0.22536031  0.82113626  1
  N  N43  1  0.11335095  0.09234012  0.61075173  1
  N  N44  1  0.91587249  0.19383585  0.38517104  1
  N  N45  1  0.80619840  0.07915398  0.15243111  1
  N  N46  1  0.55515073  0.20493659  0.84069471  1
  N  N47  1  0.45134784  0.08934702  0.60153814  1
  N  N48  1  0.21979904  0.53503693  0.36566634  1
  N  N49  1  0.09107571  0.43177198  0.06517198  1
  N  N50  1  0.89227404  0.54606387  0.83240996  1
  N  N51  1  0.79423762  0.42913461  0.62475128  1
  N  N52  1  0.50929633  0.55675786  0.40643094  1
  N  N53  1  0.45032421  0.44188435  0.06042730  1
  N  N54  1  0.21727814  0.54528475  0.83909614  1
  N  N55  1  0.10337702  0.43608772  0.59644618  1
  N  N56  1  0.91609909  0.54508675  0.32885427  1
  N  N57  1  0.77477046  0.43009951  0.13142915  1
  N  N58  1  0.56662460  0.53998191  0.86518364  1
  N  N59  1  0.41986842  0.40769975  0.60348741  1
  N  N60  1  0.22225366  0.87234881  0.34250608  1
  N  N61  1  0.10091331  0.78951718  0.07421209  1
  N  N62  1  0.89406067  0.86983035  0.83249481  1
  N  N63  1  0.78360197  0.76012652  0.58896654  1
  N  N64  1  0.56435218  0.86703808  0.36450743  1
  N  N65  1  0.42496693  0.75388071  0.07428780  1
  N  N66  1  0.23924041  0.84110744  0.82663865  1
  N  N67  1  0.11403605  0.76135901  0.59230472  1
  N  N68  1  0.91985984  0.82948247  0.33540308  1
  N  N69  1  0.81108675  0.74968525  0.07621002  1
  N  N70  1  0.56218137  0.86768820  0.83674107  1
  N  N71  1  0.42157202  0.80832067  0.58942252  1
