# generated using pymatgen
data_Gd2Al7N9
_symmetry_space_group_name_H-M   'P 1'
_cell_length_a   9.72641997
_cell_length_b   9.79027006
_cell_length_c   10.98854118
_cell_angle_alpha   89.99440840
_cell_angle_beta   88.99348499
_cell_angle_gamma   60.16192492
_symmetry_Int_Tables_number   1
_chemical_formula_structural   Gd2Al7N9
_chemical_formula_sum   'Gd8 Al28 N36'
_cell_volume   907.47797921
_cell_formula_units_Z   4
loop_
 _symmetry_equiv_pos_site_id
 _symmetry_equiv_pos_as_xyz
  1  'x, y, z'
loop_
 _atom_site_type_symbol
 _atom_site_label
 _atom_site_symmetry_multiplicity
 _atom_site_fract_x
 _atom_site_fract_y
 _atom_site_fract_z
 _atom_site_occupancy
  Al  Al0  1  0.12859291  0.08750491  0.43082208  1
  Al  Al1  1  0.78625443  0.08845694  0.82327804  1
  Al  Al2  1  0.89990038  0.19912798  0.59688712  1
  Al  Al3  1  0.45168135  0.10189545  0.42243535  1
  Al  Al4  1  0.23205066  0.20567935  0.64802974  1
  Al  Al5  1  0.87235358  0.20798114  0.06710319  1
  Al  Al6  1  0.44682970  0.08653477  0.88307735  1
  Al  Al7  1  0.55647322  0.19369661  0.65853515  1
  Al  Al8  1  0.12036367  0.43093701  0.43386731  1
  Al  Al9  1  0.76831094  0.41733880  0.83577384  1
  Al  Al10  1  0.89774478  0.53259074  0.66738726  1
  Al  Al11  1  0.43566616  0.44291508  0.32621489  1
  Al  Al12  1  0.52952704  0.55081838  0.07461323  1
  Al  Al13  1  0.12605257  0.42143428  0.88756942  1
  Al  Al14  1  0.21305897  0.54191765  0.65791291  1
  Al  Al15  1  0.87619562  0.53060771  0.03970024  1
  Al  Al16  1  0.43811364  0.43068055  0.82485179  1
  Al  Al17  1  0.13292640  0.75237304  0.42933040  1
  Al  Al18  1  0.20917508  0.87591668  0.15048104  1
  Al  Al19  1  0.77462200  0.76662610  0.87838424  1
  Al  Al20  1  0.89609590  0.86908171  0.59722796  1
  Al  Al21  1  0.43946229  0.78057161  0.40866026  1
  Al  Al22  1  0.12498227  0.75256347  0.89367660  1
  Al  Al23  1  0.23220698  0.86556381  0.65666491  1
  Al  Al24  1  0.78962649  0.74844869  0.42654740  1
  Al  Al25  1  0.88364611  0.88917628  0.04715393  1
  Al  Al26  1  0.44489158  0.75626017  0.89487925  1
  Al  Al27  1  0.55627530  0.87121831  0.65024518  1
  Gd  Gd28  1  0.21074264  0.21099693  0.17343035  1
  Gd  Gd29  1  0.53870227  0.23582082  0.07510046  1
  Gd  Gd30  1  0.12944713  0.08478482  0.89376591  1
  Gd  Gd31  1  0.79354307  0.08116079  0.33396134  1
  Gd  Gd32  1  0.13022985  0.58713201  0.18004806  1
  Gd  Gd33  1  0.79527134  0.42879022  0.31360194  1
  Gd  Gd34  1  0.56454297  0.52298018  0.58082738  1
  Gd  Gd35  1  0.56905050  0.86208615  0.15595021  1
  N  N36  1  0.22823818  0.20571361  0.39006402  1
  N  N37  1  0.08836831  0.09204683  0.10551849  1
  N  N38  1  0.86302583  0.21096479  0.89347779  1
  N  N39  1  0.78636217  0.08907046  0.64809123  1
  N  N40  1  0.53118731  0.22309976  0.35094191  1
  N  N41  1  0.42922328  0.08712554  0.05596678  1
  N  N42  1  0.24307988  0.21830222  0.81983343  1
  N  N43  1  0.12602681  0.08399506  0.61446532  1
  N  N44  1  0.90703109  0.20593757  0.42485394  1
  N  N45  1  0.78828807  0.08284660  0.12364357  1
  N  N46  1  0.55842666  0.19870034  0.84856612  1
  N  N47  1  0.45717995  0.08763417  0.59994253  1
  N  N48  1  0.22512797  0.54196968  0.38158697  1
  N  N49  1  0.09258452  0.42083260  0.05646323  1
  N  N50  1  0.88602128  0.53684106  0.85404050  1
  N  N51  1  0.80581592  0.40343877  0.66526791  1
  N  N52  1  0.54042868  0.55886186  0.37718254  1
  N  N53  1  0.40818099  0.47772606  0.15419462  1
  N  N54  1  0.21229239  0.54508953  0.83845983  1
  N  N55  1  0.10950349  0.43011074  0.60849554  1
  N  N56  1  0.92268759  0.55042310  0.35772832  1
  N  N57  1  0.75994621  0.43563744  0.10098400  1
  N  N58  1  0.54970481  0.52886455  0.88836236  1
  N  N59  1  0.43419577  0.41067404  0.65440784  1
  N  N60  1  0.22224251  0.87795125  0.34616921  1
  N  N61  1  0.10119570  0.78852374  0.06843884  1
  N  N62  1  0.89195134  0.87625022  0.86992078  1
  N  N63  1  0.78181899  0.74852650  0.61195690  1
  N  N64  1  0.56955582  0.87522829  0.37008244  1
  N  N65  1  0.41893071  0.77144768  0.07207837  1
  N  N66  1  0.24570592  0.83643777  0.82620835  1
  N  N67  1  0.12636729  0.75622441  0.60542083  1
  N  N68  1  0.90878468  0.85045724  0.42233273  1
  N  N69  1  0.80154254  0.74744454  0.05695437  1
  N  N70  1  0.55468387  0.86589591  0.83079258  1
  N  N71  1  0.43503972  0.78732150  0.58566214  1
