# generated using pymatgen
data_Gd2Al7N9
_symmetry_space_group_name_H-M   'P 1'
_cell_length_a   9.88710171
_cell_length_b   9.86179595
_cell_length_c   10.48941328
_cell_angle_alpha   89.46624499
_cell_angle_beta   89.10195261
_cell_angle_gamma   60.16534107
_symmetry_Int_Tables_number   1
_chemical_formula_structural   Gd2Al7N9
_chemical_formula_sum   'Gd8 Al28 N36'
_cell_volume   887.10288647
_cell_formula_units_Z   4
loop_
 _symmetry_equiv_pos_site_id
 _symmetry_equiv_pos_as_xyz
  1  'x, y, z'
loop_
 _atom_site_type_symbol
 _atom_site_label
 _atom_site_symmetry_multiplicity
 _atom_site_fract_x
 _atom_site_fract_y
 _atom_site_fract_z
 _atom_site_occupancy
  Al  Al0  1  0.12199844  0.09241584  0.38368463  1
  Al  Al1  1  0.77136634  0.09271315  0.78541963  1
  Al  Al2  1  0.89310527  0.20850910  0.56102849  1
  Al  Al3  1  0.44373326  0.09793327  0.32317708  1
  Al  Al4  1  0.22865740  0.21323510  0.55578242  1
  Al  Al5  1  0.87780852  0.20368642  0.02603741  1
  Al  Al6  1  0.44653972  0.09324220  0.78364586  1
  Al  Al7  1  0.54673586  0.20846362  0.55764840  1
  Al  Al8  1  0.10607832  0.43661850  0.32067721  1
  Al  Al9  1  0.77757903  0.42950471  0.81143026  1
  Al  Al10  1  0.89837191  0.53963371  0.56308946  1
  Al  Al11  1  0.43887340  0.43604011  0.30887478  1
  Al  Al12  1  0.54714700  0.54306691  0.04086736  1
  Al  Al13  1  0.11620809  0.42947924  0.79236073  1
  Al  Al14  1  0.21916818  0.53990410  0.54853306  1
  Al  Al15  1  0.88752095  0.54267029  0.04226859  1
  Al  Al16  1  0.43429378  0.42552888  0.78909718  1
  Al  Al17  1  0.11278536  0.76470913  0.31020934  1
  Al  Al18  1  0.21443330  0.86434133  0.04742707  1
  Al  Al19  1  0.77915494  0.76227296  0.79674252  1
  Al  Al20  1  0.89446427  0.86434172  0.55637867  1
  Al  Al21  1  0.43487382  0.76229395  0.30249299  1
  Al  Al22  1  0.11506053  0.74890890  0.79601099  1
  Al  Al23  1  0.22662318  0.86454818  0.55487290  1
  Al  Al24  1  0.79493630  0.75447279  0.31252936  1
  Al  Al25  1  0.89708909  0.87380432  0.04988019  1
  Al  Al26  1  0.44273814  0.75972520  0.80051880  1
  Al  Al27  1  0.55643568  0.87445597  0.55381322  1
  Gd  Gd28  1  0.21297591  0.20352419  0.07115550  1
  Gd  Gd29  1  0.55597610  0.20741338  0.03858633  1
  Gd  Gd30  1  0.11295504  0.08456499  0.80897514  1
  Gd  Gd31  1  0.78153452  0.09134664  0.31219367  1
  Gd  Gd32  1  0.20892481  0.54649295  0.06557632  1
  Gd  Gd33  1  0.78916118  0.43593191  0.28481121  1
  Gd  Gd34  1  0.56256064  0.53882242  0.56609813  1
  Gd  Gd35  1  0.56390805  0.86164160  0.06039219  1
  N  N36  1  0.22373863  0.21179384  0.36917214  1
  N  N37  1  0.09039994  0.07962597  0.04485011  1
  N  N38  1  0.85229957  0.21586990  0.84734687  1
  N  N39  1  0.78058630  0.09181914  0.59914083  1
  N  N40  1  0.52821618  0.22587083  0.37602522  1
  N  N41  1  0.45206711  0.09101161  0.14687347  1
  N  N42  1  0.23927893  0.21873122  0.84857901  1
  N  N43  1  0.11941695  0.09055950  0.57872008  1
  N  N44  1  0.90845298  0.20714632  0.37995272  1
  N  N45  1  0.79627394  0.08466034  0.09748841  1
  N  N46  1  0.55419689  0.20161096  0.82099702  1
  N  N47  1  0.44488056  0.09153659  0.60062935  1
  N  N48  1  0.22107781  0.54398580  0.35898628  1
  N  N49  1  0.06540907  0.44055238  0.14405567  1
  N  N50  1  0.89522994  0.54234117  0.85728623  1
  N  N51  1  0.81517549  0.41332572  0.62735081  1
  N  N52  1  0.53760676  0.55165733  0.35541869  1
  N  N53  1  0.45720631  0.43839864  0.12642319  1
  N  N54  1  0.22005000  0.53556136  0.84580290  1
  N  N55  1  0.11478269  0.42989737  0.60824397  1
  N  N56  1  0.89987075  0.55271741  0.38519063  1
  N  N57  1  0.77041946  0.43374900  0.06447396  1
  N  N58  1  0.55009631  0.53838292  0.84571012  1
  N  N59  1  0.42530934  0.42078587  0.61020182  1
  N  N60  1  0.22457393  0.87030373  0.36972911  1
  N  N61  1  0.09441768  0.78964550  0.12884535  1
  N  N62  1  0.89098821  0.86995467  0.85615135  1
  N  N63  1  0.77784826  0.76212823  0.61453051  1
  N  N64  1  0.56217559  0.86566092  0.36383366  1
  N  N65  1  0.42266358  0.75139821  0.11623526  1
  N  N66  1  0.23877728  0.82776039  0.86497056  1
  N  N67  1  0.11330202  0.75946558  0.61098159  1
  N  N68  1  0.90791514  0.84584479  0.37776624  1
  N  N69  1  0.81224711  0.74678542  0.12226055  1
  N  N70  1  0.55445844  0.87410198  0.84161170  1
  N  N71  1  0.42810201  0.79200818  0.62002772  1
