# generated using pymatgen
data_Gd2Al7N9
_symmetry_space_group_name_H-M   'P 1'
_cell_length_a   9.83528693
_cell_length_b   9.74981516
_cell_length_c   11.14916665
_cell_angle_alpha   88.96815725
_cell_angle_beta   89.11077733
_cell_angle_gamma   59.91903797
_symmetry_Int_Tables_number   1
_chemical_formula_structural   Gd2Al7N9
_chemical_formula_sum   'Gd8 Al28 N36'
_cell_volume   924.95138358
_cell_formula_units_Z   4
loop_
 _symmetry_equiv_pos_site_id
 _symmetry_equiv_pos_as_xyz
  1  'x, y, z'
loop_
 _atom_site_type_symbol
 _atom_site_label
 _atom_site_symmetry_multiplicity
 _atom_site_fract_x
 _atom_site_fract_y
 _atom_site_fract_z
 _atom_site_occupancy
  Al  Al0  1  0.12715722  0.08812723  0.42746741  1
  Al  Al1  1  0.76773096  0.09641061  0.79384767  1
  Al  Al2  1  0.89367569  0.20866247  0.57553341  1
  Al  Al3  1  0.44757989  0.10567593  0.34431806  1
  Al  Al4  1  0.23480530  0.21268041  0.59527947  1
  Al  Al5  1  0.86823834  0.20371938  0.02973102  1
  Al  Al6  1  0.45293356  0.09705348  0.78781127  1
  Al  Al7  1  0.55487328  0.20577310  0.56046742  1
  Al  Al8  1  0.10458326  0.44387475  0.35326262  1
  Al  Al9  1  0.77489041  0.42595982  0.81201057  1
  Al  Al10  1  0.90143605  0.53458416  0.57906798  1
  Al  Al11  1  0.44425091  0.44386617  0.31195491  1
  Al  Al12  1  0.55121719  0.52860041  0.03895750  1
  Al  Al13  1  0.10966448  0.43058006  0.79831427  1
  Al  Al14  1  0.22077890  0.54595301  0.63487944  1
  Al  Al15  1  0.88759607  0.52438584  0.04274205  1
  Al  Al16  1  0.44748704  0.41655872  0.79963921  1
  Al  Al17  1  0.12974472  0.76032480  0.39998518  1
  Al  Al18  1  0.21242304  0.86884946  0.05551548  1
  Al  Al19  1  0.77557080  0.75737141  0.86331226  1
  Al  Al20  1  0.89644820  0.87692069  0.57536526  1
  Al  Al21  1  0.43465896  0.78730006  0.39955692  1
  Al  Al22  1  0.11512957  0.75335214  0.85766131  1
  Al  Al23  1  0.23455962  0.86297835  0.63386417  1
  Al  Al24  1  0.77794644  0.76854361  0.41749564  1
  Al  Al25  1  0.88411909  0.88150301  0.02355671  1
  Al  Al26  1  0.44753812  0.75503362  0.86304931  1
  Al  Al27  1  0.56432615  0.86719703  0.63204549  1
  Gd  Gd28  1  0.17746457  0.17315821  0.18148635  1
  Gd  Gd29  1  0.54073725  0.20002003  0.05065585  1
  Gd  Gd30  1  0.10693483  0.10364879  0.83287145  1
  Gd  Gd31  1  0.79503193  0.08879295  0.30943325  1
  Gd  Gd32  1  0.19451460  0.54556880  0.12543741  1
  Gd  Gd33  1  0.79252138  0.44292967  0.29608206  1
  Gd  Gd34  1  0.56922711  0.52605510  0.56775586  1
  Gd  Gd35  1  0.56657591  0.83911956  0.14822505  1
  N  N36  1  0.22697854  0.21410220  0.39792707  1
  N  N37  1  0.09039687  0.08223695  0.04130449  1
  N  N38  1  0.84444172  0.21833875  0.86172232  1
  N  N39  1  0.77931468  0.10035290  0.61786849  1
  N  N40  1  0.54074661  0.22952155  0.38637276  1
  N  N41  1  0.42762090  0.10088610  0.16992684  1
  N  N42  1  0.24394178  0.21900874  0.81331517  1
  N  N43  1  0.11997822  0.08968147  0.60027065  1
  N  N44  1  0.90945903  0.21186554  0.40014012  1
  N  N45  1  0.79303245  0.07581889  0.10099696  1
  N  N46  1  0.55605961  0.19756351  0.84493359  1
  N  N47  1  0.45851411  0.09053477  0.61336091  1
  N  N48  1  0.21898087  0.55351269  0.33288773  1
  N  N49  1  0.03984890  0.43755446  0.17208667  1
  N  N50  1  0.90071607  0.52098377  0.86600881  1
  N  N51  1  0.81511135  0.41241139  0.64241890  1
  N  N52  1  0.53635053  0.56479190  0.36373883  1
  N  N53  1  0.46017905  0.43398514  0.13496480  1
  N  N54  1  0.21971148  0.54133813  0.81621688  1
  N  N55  1  0.11115785  0.43652884  0.62152277  1
  N  N56  1  0.89924218  0.54907461  0.40940382  1
  N  N57  1  0.76727910  0.42607159  0.08235454  1
  N  N58  1  0.55425094  0.52783833  0.85549004  1
  N  N59  1  0.43798607  0.40997938  0.62888577  1
  N  N60  1  0.22107615  0.89220273  0.35027664  1
  N  N61  1  0.10109038  0.77193843  0.02990606  1
  N  N62  1  0.88481749  0.87651199  0.84386362  1
  N  N63  1  0.78073757  0.76438843  0.59359301  1
  N  N64  1  0.57012561  0.87245187  0.35782589  1
  N  N65  1  0.42723405  0.75598852  0.03760103  1
  N  N66  1  0.24170793  0.83874236  0.80385723  1
  N  N67  1  0.12774869  0.75811465  0.57800700  1
  N  N68  1  0.90584514  0.85913061  0.39985207  1
  N  N69  1  0.79026232  0.75359869  0.04097836  1
  N  N70  1  0.55968191  0.86126220  0.80913336  1
  N  N71  1  0.43775553  0.78924624  0.57281397  1
