# generated using pymatgen
data_Gd2Al7N9
_symmetry_space_group_name_H-M   'P 1'
_cell_length_a   9.93945085
_cell_length_b   9.93984624
_cell_length_c   10.48725029
_cell_angle_alpha   90.46218355
_cell_angle_beta   89.90401134
_cell_angle_gamma   59.80751492
_symmetry_Int_Tables_number   1
_chemical_formula_structural   Gd2Al7N9
_chemical_formula_sum   'Gd8 Al28 N36'
_cell_volume   895.49879984
_cell_formula_units_Z   4
loop_
 _symmetry_equiv_pos_site_id
 _symmetry_equiv_pos_as_xyz
  1  'x, y, z'
loop_
 _atom_site_type_symbol
 _atom_site_label
 _atom_site_symmetry_multiplicity
 _atom_site_fract_x
 _atom_site_fract_y
 _atom_site_fract_z
 _atom_site_occupancy
  Al  Al0  1  0.12468530  0.08323195  0.42456678  1
  Al  Al1  1  0.77597517  0.09574476  0.82080329  1
  Al  Al2  1  0.89311503  0.20737302  0.62504235  1
  Al  Al3  1  0.44299020  0.09157498  0.42023886  1
  Al  Al4  1  0.22564219  0.21161534  0.63991250  1
  Al  Al5  1  0.89068316  0.20309994  0.13886550  1
  Al  Al6  1  0.44418004  0.09605870  0.88239638  1
  Al  Al7  1  0.54232315  0.20380884  0.65518220  1
  Al  Al8  1  0.11241392  0.43140122  0.41598670  1
  Al  Al9  1  0.78262674  0.43260438  0.82163305  1
  Al  Al10  1  0.89479618  0.54692785  0.64939663  1
  Al  Al11  1  0.42398593  0.42502952  0.41937231  1
  Al  Al12  1  0.56811010  0.53463586  0.06026187  1
  Al  Al13  1  0.11059548  0.43343176  0.88708341  1
  Al  Al14  1  0.21122408  0.53913753  0.65322923  1
  Al  Al15  1  0.89561052  0.54101121  0.14096372  1
  Al  Al16  1  0.43902001  0.42798218  0.88439533  1
  Al  Al17  1  0.12197446  0.75018653  0.40744487  1
  Al  Al18  1  0.21432815  0.87440324  0.15049360  1
  Al  Al19  1  0.78812512  0.76021571  0.89372688  1
  Al  Al20  1  0.89754002  0.86011529  0.64922753  1
  Al  Al21  1  0.43106942  0.77343895  0.41080485  1
  Al  Al22  1  0.11247363  0.76264524  0.89346720  1
  Al  Al23  1  0.21960303  0.87542253  0.65020827  1
  Al  Al24  1  0.79536873  0.74977588  0.40165121  1
  Al  Al25  1  0.90487202  0.86428042  0.15082394  1
  Al  Al26  1  0.44212018  0.76533397  0.89147148  1
  Al  Al27  1  0.55731498  0.87671728  0.64764678  1
  Gd  Gd28  1  0.21416265  0.21053598  0.16921935  1
  Gd  Gd29  1  0.55728738  0.20606646  0.13106227  1
  Gd  Gd30  1  0.11400209  0.09684039  0.88425758  1
  Gd  Gd31  1  0.77756873  0.07960964  0.39267350  1
  Gd  Gd32  1  0.21597193  0.55046435  0.14726954  1
  Gd  Gd33  1  0.76511680  0.44125720  0.36788496  1
  Gd  Gd34  1  0.53098709  0.55461174  0.63206350  1
  Gd  Gd35  1  0.56341360  0.85793725  0.14548809  1
  N  N36  1  0.22387217  0.20116919  0.39112571  1
  N  N37  1  0.09935501  0.08665979  0.10210388  1
  N  N38  1  0.86614319  0.21894036  0.82766704  1
  N  N39  1  0.77401222  0.09029452  0.62666545  1
  N  N40  1  0.51581550  0.21967169  0.34942934  1
  N  N41  1  0.43261649  0.08775599  0.05942612  1
  N  N42  1  0.23634643  0.22584087  0.82144097  1
  N  N43  1  0.11539183  0.09177422  0.61280489  1
  N  N44  1  0.91432573  0.19424653  0.39936020  1
  N  N45  1  0.80645212  0.07976888  0.15347281  1
  N  N46  1  0.55518492  0.20494880  0.84078708  1
  N  N47  1  0.45128620  0.08940378  0.60142261  1
  N  N48  1  0.21970267  0.53509041  0.36567643  1
  N  N49  1  0.09112409  0.43194940  0.06538305  1
  N  N50  1  0.89240686  0.54608171  0.83262123  1
  N  N51  1  0.79385942  0.42977350  0.62574618  1
  N  N52  1  0.50965559  0.55660136  0.40614336  1
  N  N53  1  0.45041529  0.44167314  0.06049685  1
  N  N54  1  0.21730690  0.54530716  0.83918500  1
  N  N55  1  0.10339050  0.43606519  0.59643847  1
  N  N56  1  0.91575551  0.54471954  0.32883775  1
  N  N57  1  0.77486203  0.42983194  0.13089292  1
  N  N58  1  0.56668607  0.53996612  0.86534741  1
  N  N59  1  0.41987799  0.40768226  0.60346137  1
  N  N60  1  0.22198019  0.87280232  0.34241246  1
  N  N61  1  0.10075326  0.78972503  0.07426240  1
  N  N62  1  0.89414072  0.86979303  0.83260352  1
  N  N63  1  0.78363810  0.76013154  0.58891749  1
  N  N64  1  0.56431373  0.86715517  0.36441508  1
  N  N65  1  0.42483052  0.75397625  0.07438576  1
  N  N66  1  0.23965202  0.84035643  0.82669173  1
  N  N67  1  0.11400797  0.76144224  0.59228073  1
  N  N68  1  0.91993541  0.82915985  0.33522500  1
  N  N69  1  0.81099624  0.74991286  0.07629781  1
  N  N70  1  0.56211523  0.86776837  0.83675729  1
  N  N71  1  0.42189796  0.80803025  0.58926354  1
