# generated using pymatgen
data_Gd2Al7N9
_symmetry_space_group_name_H-M   'P 1'
_cell_length_a   9.87950201
_cell_length_b   9.86551747
_cell_length_c   10.43796969
_cell_angle_alpha   90.46535936
_cell_angle_beta   90.67072349
_cell_angle_gamma   60.00709690
_symmetry_Int_Tables_number   1
_chemical_formula_structural   Gd2Al7N9
_chemical_formula_sum   'Gd8 Al28 N36'
_cell_volume   881.05169307
_cell_formula_units_Z   4
loop_
 _symmetry_equiv_pos_site_id
 _symmetry_equiv_pos_as_xyz
  1  'x, y, z'
loop_
 _atom_site_type_symbol
 _atom_site_label
 _atom_site_symmetry_multiplicity
 _atom_site_fract_x
 _atom_site_fract_y
 _atom_site_fract_z
 _atom_site_occupancy
  Al  Al0  1  0.11352676  0.08653931  0.41690463  1
  Al  Al1  1  0.78205840  0.09314483  0.89125554  1
  Al  Al2  1  0.88705807  0.20888683  0.65880897  1
  Al  Al3  1  0.44252774  0.09261745  0.42449100  1
  Al  Al4  1  0.22353791  0.21171219  0.63386932  1
  Al  Al5  1  0.90116194  0.19196316  0.14439539  1
  Al  Al6  1  0.44509814  0.09743267  0.88025780  1
  Al  Al7  1  0.55359377  0.20335710  0.66259236  1
  Al  Al8  1  0.10924239  0.43651173  0.41986776  1
  Al  Al9  1  0.77720390  0.43210959  0.90460493  1
  Al  Al10  1  0.89214884  0.53802236  0.65352071  1
  Al  Al11  1  0.42625191  0.42971323  0.41305338  1
  Al  Al12  1  0.54678355  0.54454449  0.12812001  1
  Al  Al13  1  0.11176019  0.43010011  0.88368077  1
  Al  Al14  1  0.21476467  0.54131702  0.65192480  1
  Al  Al15  1  0.89526038  0.54224883  0.13617661  1
  Al  Al16  1  0.44200126  0.43230876  0.89286072  1
  Al  Al17  1  0.11294481  0.75768206  0.40680037  1
  Al  Al18  1  0.21564556  0.87275267  0.15302581  1
  Al  Al19  1  0.78741339  0.75749445  0.89091788  1
  Al  Al20  1  0.89126226  0.87043375  0.65618082  1
  Al  Al21  1  0.43229529  0.77026707  0.40294149  1
  Al  Al22  1  0.11515240  0.75957184  0.89278801  1
  Al  Al23  1  0.22032772  0.87090046  0.64664630  1
  Al  Al24  1  0.79010238  0.75694029  0.40105073  1
  Al  Al25  1  0.90220052  0.86901813  0.13713184  1
  Al  Al26  1  0.44424178  0.75582836  0.89851933  1
  Al  Al27  1  0.55688374  0.87443234  0.64827926  1
  Gd  Gd28  1  0.21513386  0.20934595  0.17394759  1
  Gd  Gd29  1  0.55797676  0.20528460  0.13398090  1
  Gd  Gd30  1  0.12233828  0.09210025  0.88615606  1
  Gd  Gd31  1  0.77549763  0.08979453  0.40352021  1
  Gd  Gd32  1  0.20792404  0.54962932  0.15073095  1
  Gd  Gd33  1  0.77941421  0.43494409  0.37679264  1
  Gd  Gd34  1  0.55407685  0.54361048  0.64742934  1
  Gd  Gd35  1  0.56571110  0.86196418  0.14322099  1
  N  N36  1  0.21878412  0.20504019  0.39976928  1
  N  N37  1  0.10957290  0.08022592  0.09864003  1
  N  N38  1  0.86420891  0.22402556  0.84080198  1
  N  N39  1  0.77633173  0.09530423  0.61871111  1
  N  N40  1  0.51702857  0.21895331  0.35049958  1
  N  N41  1  0.42942289  0.09378271  0.05876544  1
  N  N42  1  0.23755083  0.22383011  0.81653482  1
  N  N43  1  0.10422054  0.09136760  0.60605365  1
  N  N44  1  0.91928353  0.18523756  0.32622363  1
  N  N45  1  0.80694599  0.07964489  0.07855764  1
  N  N46  1  0.55901648  0.20655328  0.84835085  1
  N  N47  1  0.45464928  0.09012621  0.60563974  1
  N  N48  1  0.21569779  0.54061946  0.37009198  1
  N  N49  1  0.09028464  0.42600390  0.06255902  1
  N  N50  1  0.88589478  0.53980327  0.83676090  1
  N  N51  1  0.80674291  0.41387521  0.59283893  1
  N  N52  1  0.51648753  0.55358335  0.34814028  1
  N  N53  1  0.44475229  0.44408306  0.07100164  1
  N  N54  1  0.21991481  0.54269017  0.83954706  1
  N  N55  1  0.10232644  0.43918726  0.60011144  1
  N  N56  1  0.91427890  0.55105301  0.32325452  1
  N  N57  1  0.77591568  0.43249148  0.10061976  1
  N  N58  1  0.56099207  0.53873599  0.86273563  1
  N  N59  1  0.42885346  0.41280555  0.59863525  1
  N  N60  1  0.21800340  0.87324188  0.34442863  1
  N  N61  1  0.10456689  0.78610647  0.07470699  1
  N  N62  1  0.89378916  0.87008544  0.83766582  1
  N  N63  1  0.78218157  0.75925487  0.59084496  1
  N  N64  1  0.55924980  0.87255138  0.36281418  1
  N  N65  1  0.42363432  0.75651052  0.08319357  1
  N  N66  1  0.24212037  0.83769200  0.82534740  1
  N  N67  1  0.10660418  0.76501031  0.59194961  1
  N  N68  1  0.90663279  0.84663943  0.32654954  1
  N  N69  1  0.81215303  0.74910352  0.07275258  1
  N  N70  1  0.56022073  0.86554729  0.83912683  1
  N  N71  1  0.42653966  0.79498407  0.58342254  1
