# generated using pymatgen
data_Gd2Al7N9
_symmetry_space_group_name_H-M   'P 1'
_cell_length_a   9.88575958
_cell_length_b   9.90318805
_cell_length_c   10.51065447
_cell_angle_alpha   90.54165689
_cell_angle_beta   90.32711628
_cell_angle_gamma   59.83623853
_symmetry_Int_Tables_number   1
_chemical_formula_structural   Gd2Al7N9
_chemical_formula_sum   'Gd8 Al28 N36'
_cell_volume   889.62455098
_cell_formula_units_Z   4
loop_
 _symmetry_equiv_pos_site_id
 _symmetry_equiv_pos_as_xyz
  1  'x, y, z'
loop_
 _atom_site_type_symbol
 _atom_site_label
 _atom_site_symmetry_multiplicity
 _atom_site_fract_x
 _atom_site_fract_y
 _atom_site_fract_z
 _atom_site_occupancy
  Al  Al0  1  0.11707101  0.08542473  0.41557619  1
  Al  Al1  1  0.78010561  0.09301671  0.88775595  1
  Al  Al2  1  0.88855499  0.20183127  0.65394184  1
  Al  Al3  1  0.44426066  0.09094042  0.42402626  1
  Al  Al4  1  0.22334495  0.21113983  0.63621425  1
  Al  Al5  1  0.89817398  0.19559950  0.15374400  1
  Al  Al6  1  0.44393322  0.09722126  0.88266599  1
  Al  Al7  1  0.55218804  0.20031268  0.66167345  1
  Al  Al8  1  0.11188543  0.43343959  0.41752378  1
  Al  Al9  1  0.78246950  0.43273610  0.82904684  1
  Al  Al10  1  0.89362367  0.54623565  0.64949703  1
  Al  Al11  1  0.42525831  0.42508196  0.42242711  1
  Al  Al12  1  0.56870022  0.53421041  0.06201908  1
  Al  Al13  1  0.11059539  0.43165090  0.88597407  1
  Al  Al14  1  0.21091518  0.53962868  0.65356998  1
  Al  Al15  1  0.89363399  0.53988323  0.13969420  1
  Al  Al16  1  0.43884628  0.42716723  0.88578896  1
  Al  Al17  1  0.11963319  0.75249886  0.40646657  1
  Al  Al18  1  0.21928437  0.86999439  0.15170041  1
  Al  Al19  1  0.78756348  0.75931765  0.89376574  1
  Al  Al20  1  0.89263264  0.86922447  0.65565560  1
  Al  Al21  1  0.43124889  0.77381514  0.41241191  1
  Al  Al22  1  0.11421065  0.76104522  0.89358294  1
  Al  Al23  1  0.21541260  0.87822598  0.64826570  1
  Al  Al24  1  0.79354085  0.75453365  0.40109792  1
  Al  Al25  1  0.90294329  0.86749476  0.14031904  1
  Al  Al26  1  0.44202078  0.76521882  0.89147479  1
  Al  Al27  1  0.55665635  0.87784678  0.64927181  1
  Gd  Gd28  1  0.21498050  0.21105630  0.17310062  1
  Gd  Gd29  1  0.55656353  0.20842618  0.13604296  1
  Gd  Gd30  1  0.11758080  0.09516962  0.89330294  1
  Gd  Gd31  1  0.77867885  0.08407551  0.40308197  1
  Gd  Gd32  1  0.21332233  0.54890589  0.14802844  1
  Gd  Gd33  1  0.76863766  0.44061529  0.36929547  1
  Gd  Gd34  1  0.53194642  0.55483110  0.63362126  1
  Gd  Gd35  1  0.56387430  0.85908617  0.14569661  1
  N  N36  1  0.22246946  0.20241959  0.39542396  1
  N  N37  1  0.10797281  0.08082828  0.10489142  1
  N  N38  1  0.86638790  0.21698907  0.83515426  1
  N  N39  1  0.77616980  0.09238813  0.61760743  1
  N  N40  1  0.52056452  0.21746998  0.35289675  1
  N  N41  1  0.43198404  0.09173008  0.06016347  1
  N  N42  1  0.23492437  0.22388857  0.81859877  1
  N  N43  1  0.10274781  0.09467446  0.60255340  1
  N  N44  1  0.91894851  0.18624322  0.33694443  1
  N  N45  1  0.80642218  0.08007998  0.08624118  1
  N  N46  1  0.55839152  0.20365683  0.84586307  1
  N  N47  1  0.45305981  0.09059585  0.60422608  1
  N  N48  1  0.21978858  0.53600009  0.36662446  1
  N  N49  1  0.08947995  0.42882387  0.06354550  1
  N  N50  1  0.89124465  0.54627162  0.83184298  1
  N  N51  1  0.79689003  0.42217077  0.62529204  1
  N  N52  1  0.51318225  0.55522113  0.40745811  1
  N  N53  1  0.44821732  0.44234866  0.06205820  1
  N  N54  1  0.21716369  0.54436235  0.83911041  1
  N  N55  1  0.10221754  0.43693371  0.59664372  1
  N  N56  1  0.91533020  0.54880325  0.32884641  1
  N  N57  1  0.77365718  0.43159034  0.13131336  1
  N  N58  1  0.56553484  0.53955002  0.86626846  1
  N  N59  1  0.42180904  0.40656417  0.60600950  1
  N  N60  1  0.22278274  0.87009545  0.34286314  1
  N  N61  1  0.10501211  0.78607128  0.07429174  1
  N  N62  1  0.89341008  0.87075572  0.83736131  1
  N  N63  1  0.78294554  0.76194354  0.58956059  1
  N  N64  1  0.56249228  0.86863224  0.36459809  1
  N  N65  1  0.42659232  0.75365829  0.07390807  1
  N  N66  1  0.23815048  0.84239284  0.82520748  1
  N  N67  1  0.11013160  0.76300909  0.59190517  1
  N  N68  1  0.91323073  0.84066489  0.32733642  1
  N  N69  1  0.81099952  0.74824985  0.07498309  1
  N  N70  1  0.56153728  0.86783501  0.83791524  1
  N  N71  1  0.41950027  0.81030872  0.59001087  1
