# generated using pymatgen
data_Gd2Al7N9
_symmetry_space_group_name_H-M   'P 1'
_cell_length_a   9.87555740
_cell_length_b   9.85676929
_cell_length_c   10.43362368
_cell_angle_alpha   90.44326016
_cell_angle_beta   90.37019420
_cell_angle_gamma   60.03237141
_symmetry_Int_Tables_number   1
_chemical_formula_structural   Gd2Al7N9
_chemical_formula_sum   'Gd8 Al28 N36'
_cell_volume   879.80947386
_cell_formula_units_Z   4
loop_
 _symmetry_equiv_pos_site_id
 _symmetry_equiv_pos_as_xyz
  1  'x, y, z'
loop_
 _atom_site_type_symbol
 _atom_site_label
 _atom_site_symmetry_multiplicity
 _atom_site_fract_x
 _atom_site_fract_y
 _atom_site_fract_z
 _atom_site_occupancy
  Al  Al0  1  0.11447999  0.08621570  0.41853837  1
  Al  Al1  1  0.78155683  0.09349254  0.89217253  1
  Al  Al2  1  0.88749623  0.20861735  0.66021619  1
  Al  Al3  1  0.44444299  0.09188976  0.42439714  1
  Al  Al4  1  0.22458967  0.21118065  0.63330875  1
  Al  Al5  1  0.89911564  0.19402557  0.14498505  1
  Al  Al6  1  0.44422871  0.09789146  0.88000603  1
  Al  Al7  1  0.55419944  0.20395146  0.66285922  1
  Al  Al8  1  0.11134771  0.43609223  0.42080831  1
  Al  Al9  1  0.77421760  0.43275181  0.90843487  1
  Al  Al10  1  0.89265635  0.53775432  0.65456233  1
  Al  Al11  1  0.42749164  0.42925366  0.41046297  1
  Al  Al12  1  0.54027441  0.54715872  0.14605557  1
  Al  Al13  1  0.11118598  0.42957447  0.88310758  1
  Al  Al14  1  0.21650688  0.54092197  0.65228286  1
  Al  Al15  1  0.89350943  0.54133120  0.13613916  1
  Al  Al16  1  0.44177222  0.43415983  0.89648953  1
  Al  Al17  1  0.11393484  0.75754731  0.40723618  1
  Al  Al18  1  0.21423739  0.87347337  0.15316767  1
  Al  Al19  1  0.78743395  0.75705982  0.89135635  1
  Al  Al20  1  0.89162137  0.87037587  0.65636385  1
  Al  Al21  1  0.43306501  0.77119172  0.40082955  1
  Al  Al22  1  0.11496130  0.75979290  0.89266089  1
  Al  Al23  1  0.22197221  0.86975560  0.64691977  1
  Al  Al24  1  0.79151486  0.75627762  0.40065977  1
  Al  Al25  1  0.90134632  0.86981407  0.13733976  1
  Al  Al26  1  0.44413512  0.75364342  0.90191893  1
  Al  Al27  1  0.55776309  0.87352484  0.64864350  1
  Gd  Gd28  1  0.21235429  0.20968416  0.17492534  1
  Gd  Gd29  1  0.55532909  0.20652727  0.13304612  1
  Gd  Gd30  1  0.12232104  0.09223058  0.88633813  1
  Gd  Gd31  1  0.77677277  0.08961043  0.40321478  1
  Gd  Gd32  1  0.20251646  0.55083771  0.14989491  1
  Gd  Gd33  1  0.78128026  0.43498954  0.37841123  1
  Gd  Gd34  1  0.55508046  0.54336078  0.64938686  1
  Gd  Gd35  1  0.56470721  0.86311456  0.14165005  1
  N  N36  1  0.22065921  0.20428386  0.40167054  1
  N  N37  1  0.10769695  0.08061152  0.09863324  1
  N  N38  1  0.86375280  0.22444076  0.84244872  1
  N  N39  1  0.77710654  0.09522109  0.61888068  1
  N  N40  1  0.51913010  0.21804201  0.34985268  1
  N  N41  1  0.42609502  0.09527660  0.05843254  1
  N  N42  1  0.23776159  0.22358960  0.81558773  1
  N  N43  1  0.10520128  0.09052900  0.60724661  1
  N  N44  1  0.92108590  0.18601882  0.32731692  1
  N  N45  1  0.80542011  0.08054465  0.08004567  1
  N  N46  1  0.55831526  0.20782540  0.84934678  1
  N  N47  1  0.45649866  0.08930204  0.60571966  1
  N  N48  1  0.21726173  0.54063704  0.36940413  1
  N  N49  1  0.08822502  0.42406332  0.06145382  1
  N  N50  1  0.88487571  0.53957014  0.83766381  1
  N  N51  1  0.80780575  0.41322197  0.59355603  1
  N  N52  1  0.51720731  0.55425164  0.33859788  1
  N  N53  1  0.44216662  0.44731760  0.07476914  1
  N  N54  1  0.22052888  0.54225498  0.84025607  1
  N  N55  1  0.10337941  0.43938371  0.60094955  1
  N  N56  1  0.91740234  0.54906247  0.32342409  1
  N  N57  1  0.77215657  0.43378142  0.10432428  1
  N  N58  1  0.56025043  0.53826055  0.86203956  1
  N  N59  1  0.43076085  0.41299302  0.59595221  1
  N  N60  1  0.21837540  0.87345114  0.34486851  1
  N  N61  1  0.10352408  0.78706525  0.07429993  1
  N  N62  1  0.89353082  0.87029259  0.83796204  1
  N  N63  1  0.78290973  0.75864994  0.59078358  1
  N  N64  1  0.56119279  0.87183767  0.36148452  1
  N  N65  1  0.42310761  0.75600584  0.08642628  1
  N  N66  1  0.24348945  0.83680876  0.82575211  1
  N  N67  1  0.10763987  0.76448261  0.59245332  1
  N  N68  1  0.90843317  0.84578376  0.32684632  1
  N  N69  1  0.81271882  0.74846594  0.07344501  1
  N  N70  1  0.56009341  0.86484258  0.84006094  1
  N  N71  1  0.42832875  0.79323676  0.58134909  1
