# generated using pymatgen
data_Gd2Al7N9
_symmetry_space_group_name_H-M   'P 1'
_cell_length_a   9.91542163
_cell_length_b   9.87756475
_cell_length_c   10.48452511
_cell_angle_alpha   89.20770256
_cell_angle_beta   88.88383504
_cell_angle_gamma   60.21895707
_symmetry_Int_Tables_number   1
_chemical_formula_structural   Gd2Al7N9
_chemical_formula_sum   'Gd8 Al28 N36'
_cell_volume   891.06024725
_cell_formula_units_Z   4
loop_
 _symmetry_equiv_pos_site_id
 _symmetry_equiv_pos_as_xyz
  1  'x, y, z'
loop_
 _atom_site_type_symbol
 _atom_site_label
 _atom_site_symmetry_multiplicity
 _atom_site_fract_x
 _atom_site_fract_y
 _atom_site_fract_z
 _atom_site_occupancy
  Al  Al0  1  0.12159061  0.09455082  0.38532747  1
  Al  Al1  1  0.77049888  0.09220442  0.78584067  1
  Al  Al2  1  0.89278209  0.20898748  0.56015750  1
  Al  Al3  1  0.44270541  0.10152013  0.32383917  1
  Al  Al4  1  0.22901440  0.21426304  0.55672453  1
  Al  Al5  1  0.87775166  0.20190140  0.02624977  1
  Al  Al6  1  0.44630744  0.09345200  0.78557410  1
  Al  Al7  1  0.54594413  0.20856497  0.55766358  1
  Al  Al8  1  0.10635596  0.43711440  0.31948702  1
  Al  Al9  1  0.77957057  0.42761070  0.81127024  1
  Al  Al10  1  0.89924767  0.53942907  0.56293974  1
  Al  Al11  1  0.44000279  0.43819329  0.31052205  1
  Al  Al12  1  0.55128900  0.53592379  0.03265967  1
  Al  Al13  1  0.11625543  0.43058587  0.79308458  1
  Al  Al14  1  0.21832816  0.53989335  0.54702526  1
  Al  Al15  1  0.88953756  0.54166449  0.04219508  1
  Al  Al16  1  0.43216561  0.42237790  0.78883844  1
  Al  Al17  1  0.11470525  0.76591903  0.30849452  1
  Al  Al18  1  0.21048599  0.86417337  0.03566261  1
  Al  Al19  1  0.77858714  0.76228645  0.79771183  1
  Al  Al20  1  0.89431935  0.86420614  0.55518443  1
  Al  Al21  1  0.44066927  0.76889139  0.34495204  1
  Al  Al22  1  0.11040357  0.74955366  0.79292290  1
  Al  Al23  1  0.22306787  0.86621967  0.56137920  1
  Al  Al24  1  0.79871545  0.75379683  0.31162533  1
  Al  Al25  1  0.89692539  0.87168138  0.05011160  1
  Al  Al26  1  0.44086326  0.75941100  0.81128924  1
  Al  Al27  1  0.55916498  0.87571481  0.56040434  1
  Gd  Gd28  1  0.21210852  0.20249940  0.07139275  1
  Gd  Gd29  1  0.55670677  0.20419249  0.04086563  1
  Gd  Gd30  1  0.10827186  0.09240475  0.80747625  1
  Gd  Gd31  1  0.78178083  0.09276738  0.31256333  1
  Gd  Gd32  1  0.21526434  0.54515477  0.06722072  1
  Gd  Gd33  1  0.78514332  0.43965949  0.28515114  1
  Gd  Gd34  1  0.56405504  0.53444333  0.57766247  1
  Gd  Gd35  1  0.56178859  0.85842102  0.06337262  1
  N  N36  1  0.22390209  0.21309499  0.37054335  1
  N  N37  1  0.08983578  0.07903940  0.04142318  1
  N  N38  1  0.84963367  0.21579240  0.84787385  1
  N  N39  1  0.78010036  0.09225469  0.59862276  1
  N  N40  1  0.52866299  0.22706041  0.37625319  1
  N  N41  1  0.44928094  0.09009773  0.14834958  1
  N  N42  1  0.24004304  0.22050868  0.84941679  1
  N  N43  1  0.11822559  0.09188925  0.57876848  1
  N  N44  1  0.90866026  0.20911368  0.37868237  1
  N  N45  1  0.79683624  0.08201712  0.09815355  1
  N  N46  1  0.55416148  0.20056178  0.82256979  1
  N  N47  1  0.44445978  0.09245800  0.60242664  1
  N  N48  1  0.22166477  0.54484947  0.35727501  1
  N  N49  1  0.06833646  0.44078100  0.14263076  1
  N  N50  1  0.89517920  0.54189909  0.85700447  1
  N  N51  1  0.81900754  0.41136194  0.62757585  1
  N  N52  1  0.53634081  0.55518966  0.36289373  1
  N  N53  1  0.46480181  0.43396872  0.12911164  1
  N  N54  1  0.21900930  0.53705777  0.84687825  1
  N  N55  1  0.11443359  0.43039247  0.60843902  1
  N  N56  1  0.90044799  0.55267202  0.38448886  1
  N  N57  1  0.77267256  0.43161315  0.06352085  1
  N  N58  1  0.55142774  0.53228802  0.83745036  1
  N  N59  1  0.42228743  0.41909724  0.61006665  1
  N  N60  1  0.22374137  0.87280389  0.37272148  1
  N  N61  1  0.09504348  0.78937702  0.12662120  1
  N  N62  1  0.88906883  0.86956632  0.85604087  1
  N  N63  1  0.77909309  0.76178922  0.61509952  1
  N  N64  1  0.56489622  0.86943455  0.36890294  1
  N  N65  1  0.42186890  0.74534480  0.07002855  1
  N  N66  1  0.22833293  0.83590322  0.85023961  1
  N  N67  1  0.11096543  0.75782431  0.60860148  1
  N  N68  1  0.90934237  0.84664300  0.37617542  1
  N  N69  1  0.81227427  0.74476834  0.12280875  1
  N  N70  1  0.55481827  0.87420430  0.84120023  1
  N  N71  1  0.43005671  0.79055533  0.61444916  1
