# generated using pymatgen
data_Gd2Al7N9
_symmetry_space_group_name_H-M   'P 1'
_cell_length_a   9.75882905
_cell_length_b   9.81410950
_cell_length_c   11.02366360
_cell_angle_alpha   89.54650182
_cell_angle_beta   89.33129559
_cell_angle_gamma   60.06147291
_symmetry_Int_Tables_number   1
_chemical_formula_structural   Gd2Al7N9
_chemical_formula_sum   'Gd8 Al28 N36'
_cell_volume   914.83555893
_cell_formula_units_Z   4
loop_
 _symmetry_equiv_pos_site_id
 _symmetry_equiv_pos_as_xyz
  1  'x, y, z'
loop_
 _atom_site_type_symbol
 _atom_site_label
 _atom_site_symmetry_multiplicity
 _atom_site_fract_x
 _atom_site_fract_y
 _atom_site_fract_z
 _atom_site_occupancy
  Al  Al0  1  0.12771600  0.08751429  0.42566133  1
  Al  Al1  1  0.77084291  0.09614514  0.81360668  1
  Al  Al2  1  0.89672764  0.20343073  0.59019108  1
  Al  Al3  1  0.44251856  0.09701362  0.42318593  1
  Al  Al4  1  0.23336189  0.20724412  0.65057369  1
  Al  Al5  1  0.87431069  0.20731744  0.06222574  1
  Al  Al6  1  0.44626302  0.08694026  0.88142609  1
  Al  Al7  1  0.55452018  0.21008518  0.58699766  1
  Al  Al8  1  0.12573625  0.42689462  0.43081982  1
  Al  Al9  1  0.77587254  0.42137689  0.82775959  1
  Al  Al10  1  0.89682711  0.53206027  0.60224254  1
  Al  Al11  1  0.43785380  0.44172629  0.33856063  1
  Al  Al12  1  0.54380859  0.54087606  0.06978897  1
  Al  Al13  1  0.11897085  0.42281266  0.88297155  1
  Al  Al14  1  0.21349739  0.54174086  0.65800576  1
  Al  Al15  1  0.88181193  0.52921110  0.03996047  1
  Al  Al16  1  0.44421292  0.41763107  0.81954248  1
  Al  Al17  1  0.12709072  0.75246883  0.42201693  1
  Al  Al18  1  0.21163587  0.87514602  0.13834116  1
  Al  Al19  1  0.77824691  0.75963191  0.87210934  1
  Al  Al20  1  0.89384724  0.87398318  0.59584727  1
  Al  Al21  1  0.43382252  0.78313406  0.40782357  1
  Al  Al22  1  0.12319893  0.75229901  0.88368560  1
  Al  Al23  1  0.22907877  0.86918257  0.64995683  1
  Al  Al24  1  0.77481455  0.76325757  0.43211475  1
  Al  Al25  1  0.88705954  0.88603154  0.04249011  1
  Al  Al26  1  0.44440260  0.75351798  0.89086421  1
  Al  Al27  1  0.55210206  0.88027901  0.65352879  1
  Gd  Gd28  1  0.21240212  0.20247824  0.16338176  1
  Gd  Gd29  1  0.54967708  0.22602719  0.06458256  1
  Gd  Gd30  1  0.11924102  0.08451280  0.87905593  1
  Gd  Gd31  1  0.78914340  0.08290848  0.33332062  1
  Gd  Gd32  1  0.16997529  0.57130929  0.15887025  1
  Gd  Gd33  1  0.78531753  0.43525943  0.32225142  1
  Gd  Gd34  1  0.55618296  0.54015725  0.59493764  1
  Gd  Gd35  1  0.57262877  0.85392161  0.14989710  1
  N  N36  1  0.22504870  0.20769940  0.37859085  1
  N  N37  1  0.09267017  0.08666349  0.08906482  1
  N  N38  1  0.85376773  0.21494745  0.88769687  1
  N  N39  1  0.78015808  0.09686935  0.63758763  1
  N  N40  1  0.53508199  0.22997532  0.40642199  1
  N  N41  1  0.43678122  0.08149866  0.05813735  1
  N  N42  1  0.23999776  0.21684754  0.82152326  1
  N  N43  1  0.12241371  0.08889404  0.60984939  1
  N  N44  1  0.90770080  0.20285134  0.41670581  1
  N  N45  1  0.79526796  0.07745067  0.12454953  1
  N  N46  1  0.55542333  0.19997130  0.86030864  1
  N  N47  1  0.45088335  0.09109020  0.59768699  1
  N  N48  1  0.21629727  0.54379636  0.36732565  1
  N  N49  1  0.09985749  0.41927622  0.05683092  1
  N  N50  1  0.88531806  0.53241523  0.86538874  1
  N  N51  1  0.80973211  0.40772108  0.65556438  1
  N  N52  1  0.53384183  0.56007944  0.39012974  1
  N  N53  1  0.43878011  0.45707720  0.16228485  1
  N  N54  1  0.21425841  0.54135567  0.83613643  1
  N  N55  1  0.12063754  0.42528650  0.60408138  1
  N  N56  1  0.89969342  0.54566708  0.41876409  1
  N  N57  1  0.76944416  0.43270989  0.10698135  1
  N  N58  1  0.55347024  0.52582924  0.88129024  1
  N  N59  1  0.43432029  0.41256800  0.64987564  1
  N  N60  1  0.21940079  0.87845375  0.34173314  1
  N  N61  1  0.10605674  0.78725379  0.05721644  1
  N  N62  1  0.88863428  0.87856464  0.86295330  1
  N  N63  1  0.77444280  0.76227167  0.61307730  1
  N  N64  1  0.56346050  0.87906491  0.36402877  1
  N  N65  1  0.42310215  0.76187043  0.06778180  1
  N  N66  1  0.24643121  0.83354287  0.81823539  1
  N  N67  1  0.12608521  0.75601611  0.59855850  1
  N  N68  1  0.90373821  0.85228066  0.41865161  1
  N  N69  1  0.80605222  0.74662136  0.05724690  1
  N  N70  1  0.55307627  0.86586430  0.83123938  1
  N  N71  1  0.42931015  0.80165227  0.58192177  1
