# generated using pymatgen
data_Gd2Al7N9
_symmetry_space_group_name_H-M   'P 1'
_cell_length_a   9.88135055
_cell_length_b   9.86877532
_cell_length_c   10.44063149
_cell_angle_alpha   90.46981827
_cell_angle_beta   90.70546981
_cell_angle_gamma   60.00348996
_symmetry_Int_Tables_number   1
_chemical_formula_structural   Gd2Al7N9
_chemical_formula_sum   'Gd8 Al28 N36'
_cell_volume   881.69445128
_cell_formula_units_Z   4
loop_
 _symmetry_equiv_pos_site_id
 _symmetry_equiv_pos_as_xyz
  1  'x, y, z'
loop_
 _atom_site_type_symbol
 _atom_site_label
 _atom_site_symmetry_multiplicity
 _atom_site_fract_x
 _atom_site_fract_y
 _atom_site_fract_z
 _atom_site_occupancy
  Al  Al0  1  0.11337705  0.08664511  0.41674168  1
  Al  Al1  1  0.78207060  0.09307997  0.89123180  1
  Al  Al2  1  0.88701358  0.20894856  0.65852718  1
  Al  Al3  1  0.44243642  0.09263896  0.42458144  1
  Al  Al4  1  0.22351798  0.21174200  0.63388637  1
  Al  Al5  1  0.90156697  0.19135327  0.14446633  1
  Al  Al6  1  0.44518466  0.09739853  0.88048014  1
  Al  Al7  1  0.55355445  0.20314317  0.66267372  1
  Al  Al8  1  0.10891567  0.43651509  0.41978001  1
  Al  Al9  1  0.77873187  0.43158917  0.90333343  1
  Al  Al10  1  0.89210663  0.53803708  0.65325038  1
  Al  Al11  1  0.42603011  0.42988192  0.41451614  1
  Al  Al12  1  0.54930334  0.54365183  0.11573350  1
  Al  Al13  1  0.11183007  0.43013325  0.88379252  1
  Al  Al14  1  0.21443464  0.54131776  0.65199915  1
  Al  Al15  1  0.89557347  0.54245576  0.13629177  1
  Al  Al16  1  0.44138000  0.43155673  0.89194080  1
  Al  Al17  1  0.11315226  0.75751848  0.40683936  1
  Al  Al18  1  0.21575656  0.87265762  0.15319847  1
  Al  Al19  1  0.78741596  0.75761703  0.89094390  1
  Al  Al20  1  0.89128631  0.87042480  0.65618787  1
  Al  Al21  1  0.43221147  0.76993758  0.40430142  1
  Al  Al22  1  0.11508849  0.75958436  0.89292507  1
  Al  Al23  1  0.22003735  0.87122569  0.64670381  1
  Al  Al24  1  0.79004881  0.75696309  0.40112250  1
  Al  Al25  1  0.90225134  0.86898183  0.13724368  1
  Al  Al26  1  0.44388068  0.75724212  0.89744342  1
  Al  Al27  1  0.55682166  0.87470673  0.64830183  1
  Gd  Gd28  1  0.21530298  0.20931699  0.17398178  1
  Gd  Gd29  1  0.55816836  0.20520147  0.13452818  1
  Gd  Gd30  1  0.12230815  0.09211941  0.88613390  1
  Gd  Gd31  1  0.77542663  0.08980380  0.40368313  1
  Gd  Gd32  1  0.20830608  0.54960266  0.15116788  1
  Gd  Gd33  1  0.77831964  0.43533679  0.37628993  1
  Gd  Gd34  1  0.55365952  0.54380429  0.64664401  1
  Gd  Gd35  1  0.56575298  0.86178521  0.14377788  1
  N  N36  1  0.21865598  0.20505678  0.39964723  1
  N  N37  1  0.10981387  0.08008129  0.09859963  1
  N  N38  1  0.86432798  0.22383520  0.84051533  1
  N  N39  1  0.77629411  0.09527905  0.61879768  1
  N  N40  1  0.51683949  0.21912935  0.35089136  1
  N  N41  1  0.42981443  0.09358549  0.05903943  1
  N  N42  1  0.23756288  0.22384011  0.81670574  1
  N  N43  1  0.10403742  0.09153269  0.60594712  1
  N  N44  1  0.91903404  0.18511965  0.32606651  1
  N  N45  1  0.80693808  0.07962211  0.07844561  1
  N  N46  1  0.55915827  0.20621833  0.84833192  1
  N  N47  1  0.45451693  0.09022168  0.60568587  1
  N  N48  1  0.21555017  0.54039274  0.37028384  1
  N  N49  1  0.09048508  0.42618201  0.06270490  1
  N  N50  1  0.88612016  0.53990429  0.83656423  1
  N  N51  1  0.80660123  0.41400198  0.59294986  1
  N  N52  1  0.51632467  0.55345928  0.35724118  1
  N  N53  1  0.44431022  0.44334836  0.07023271  1
  N  N54  1  0.21953338  0.54288263  0.83953118  1
  N  N55  1  0.10218300  0.43913207  0.60003786  1
  N  N56  1  0.91384843  0.55137066  0.32314828  1
  N  N57  1  0.77708689  0.43191584  0.09948015  1
  N  N58  1  0.56119775  0.53887087  0.86484517  1
  N  N59  1  0.42833986  0.41249692  0.60009209  1
  N  N60  1  0.21812049  0.87326266  0.34440371  1
  N  N61  1  0.10466299  0.78600036  0.07485297  1
  N  N62  1  0.89379720  0.87008338  0.83770462  1
  N  N63  1  0.78220008  0.75932280  0.59092679  1
  N  N64  1  0.55909958  0.87254995  0.36317526  1
  N  N65  1  0.42338890  0.75711110  0.08225687  1
  N  N66  1  0.24175614  0.83788132  0.82533973  1
  N  N67  1  0.10659707  0.76503555  0.59197581  1
  N  N68  1  0.90658813  0.84670062  0.32653908  1
  N  N69  1  0.81195163  0.74923485  0.07273880  1
  N  N70  1  0.56030511  0.86576360  0.83909159  1
  N  N71  1  0.42611101  0.79593121  0.58465759  1
