# generated using pymatgen
data_Gd2Al7N9
_symmetry_space_group_name_H-M   'P 1'
_cell_length_a   9.92609756
_cell_length_b   9.88467731
_cell_length_c   10.48732989
_cell_angle_alpha   89.19704368
_cell_angle_beta   88.83472388
_cell_angle_gamma   60.20953042
_symmetry_Int_Tables_number   1
_chemical_formula_structural   Gd2Al7N9
_chemical_formula_sum   'Gd8 Al28 N36'
_cell_volume   892.80260961
_cell_formula_units_Z   4
loop_
 _symmetry_equiv_pos_site_id
 _symmetry_equiv_pos_as_xyz
  1  'x, y, z'
loop_
 _atom_site_type_symbol
 _atom_site_label
 _atom_site_symmetry_multiplicity
 _atom_site_fract_x
 _atom_site_fract_y
 _atom_site_fract_z
 _atom_site_occupancy
  Al  Al0  1  0.12143634  0.09453740  0.38489396  1
  Al  Al1  1  0.77044901  0.09216029  0.78579685  1
  Al  Al2  1  0.89263237  0.20933756  0.55988389  1
  Al  Al3  1  0.44310372  0.10168859  0.32358673  1
  Al  Al4  1  0.22919667  0.21410329  0.55654251  1
  Al  Al5  1  0.87790233  0.20153722  0.02634461  1
  Al  Al6  1  0.44634117  0.09317850  0.78590515  1
  Al  Al7  1  0.54562982  0.20889253  0.55745076  1
  Al  Al8  1  0.10637886  0.43713667  0.31947278  1
  Al  Al9  1  0.78045896  0.42694712  0.81079204  1
  Al  Al10  1  0.89939980  0.53945569  0.56289218  1
  Al  Al11  1  0.44028885  0.43889506  0.31110690  1
  Al  Al12  1  0.55343315  0.53204328  0.03248646  1
  Al  Al13  1  0.11634110  0.43068766  0.79295773  1
  Al  Al14  1  0.21819577  0.53976066  0.54666372  1
  Al  Al15  1  0.88976848  0.54153164  0.04217370  1
  Al  Al16  1  0.43176573  0.42145720  0.78865782  1
  Al  Al17  1  0.11518994  0.76627389  0.30834721  1
  Al  Al18  1  0.20792862  0.86504210  0.03364533  1
  Al  Al19  1  0.77820201  0.76233237  0.79791019  1
  Al  Al20  1  0.89433468  0.86412961  0.55485055  1
  Al  Al21  1  0.44150192  0.77028775  0.37031883  1
  Al  Al22  1  0.10945767  0.74956093  0.79195489  1
  Al  Al23  1  0.21985937  0.86779083  0.56153933  1
  Al  Al24  1  0.79889025  0.75424348  0.31180248  1
  Al  Al25  1  0.89701475  0.87150499  0.04984181  1
  Al  Al26  1  0.44121384  0.75589496  0.83631260  1
  Al  Al27  1  0.56101296  0.87716046  0.55976402  1
  Gd  Gd28  1  0.21186705  0.20264667  0.07120509  1
  Gd  Gd29  1  0.55691577  0.20417362  0.04107862  1
  Gd  Gd30  1  0.10756540  0.09404623  0.80665257  1
  Gd  Gd31  1  0.78187798  0.09291314  0.31286966  1
  Gd  Gd32  1  0.21550569  0.54468580  0.06727219  1
  Gd  Gd33  1  0.78448364  0.44034675  0.28599339  1
  Gd  Gd34  1  0.56410368  0.53377453  0.58108870  1
  Gd  Gd35  1  0.56175389  0.85765488  0.06729742  1
  N  N36  1  0.22416390  0.21287545  0.37049113  1
  N  N37  1  0.08987397  0.07904101  0.04110372  1
  N  N38  1  0.84944668  0.21568764  0.84815575  1
  N  N39  1  0.78000040  0.09243780  0.59857101  1
  N  N40  1  0.52861977  0.22730611  0.37605475  1
  N  N41  1  0.44867991  0.09077797  0.14787006  1
  N  N42  1  0.24016621  0.22087242  0.84955118  1
  N  N43  1  0.11756114  0.09257037  0.57889083  1
  N  N44  1  0.90860194  0.20936335  0.37862096  1
  N  N45  1  0.79699104  0.08170902  0.09824381  1
  N  N46  1  0.55425135  0.20012368  0.82299631  1
  N  N47  1  0.44453233  0.09286010  0.60293119  1
  N  N48  1  0.22169210  0.54487192  0.35693952  1
  N  N49  1  0.06833089  0.44076516  0.14252847  1
  N  N50  1  0.89513929  0.54171339  0.85703321  1
  N  N51  1  0.81983182  0.41119906  0.62761097  1
  N  N52  1  0.53685208  0.55500794  0.36334291  1
  N  N53  1  0.46471312  0.43450240  0.12943268  1
  N  N54  1  0.21882308  0.53740900  0.84696978  1
  N  N55  1  0.11440928  0.43034339  0.60838412  1
  N  N56  1  0.90055606  0.55295805  0.38447582  1
  N  N57  1  0.77295776  0.43139173  0.06388859  1
  N  N58  1  0.55287436  0.52911807  0.83584340  1
  N  N59  1  0.42146538  0.41886251  0.61011344  1
  N  N60  1  0.22167612  0.87387018  0.37149112  1
  N  N61  1  0.09570393  0.78892493  0.12594224  1
  N  N62  1  0.88873541  0.86952131  0.85600702  1
  N  N63  1  0.77937891  0.76195480  0.61532551  1
  N  N64  1  0.56763508  0.87101219  0.36751264  1
  N  N65  1  0.42263477  0.74401589  0.04836120  1
  N  N66  1  0.22531924  0.83841770  0.84575538  1
  N  N67  1  0.11028976  0.75740292  0.60811115  1
  N  N68  1  0.90969475  0.84672709  0.37582206  1
  N  N69  1  0.81266954  0.74472351  0.12231986  1
  N  N70  1  0.55462097  0.87388265  0.84177954  1
  N  N71  1  0.43099390  0.79087246  0.59232597  1
