# generated using pymatgen
data_Gd2Al7N9
_symmetry_space_group_name_H-M   'P 1'
_cell_length_a   9.80477443
_cell_length_b   9.84980230
_cell_length_c   10.71096398
_cell_angle_alpha   90.08138831
_cell_angle_beta   88.94751815
_cell_angle_gamma   60.27428183
_symmetry_Int_Tables_number   1
_chemical_formula_structural   Gd2Al7N9
_chemical_formula_sum   'Gd8 Al28 N36'
_cell_volume   898.07540776
_cell_formula_units_Z   4
loop_
 _symmetry_equiv_pos_site_id
 _symmetry_equiv_pos_as_xyz
  1  'x, y, z'
loop_
 _atom_site_type_symbol
 _atom_site_label
 _atom_site_symmetry_multiplicity
 _atom_site_fract_x
 _atom_site_fract_y
 _atom_site_fract_z
 _atom_site_occupancy
  Al  Al0  1  0.13182267  0.08037767  0.43034443  1
  Al  Al1  1  0.77973928  0.09442750  0.82805679  1
  Al  Al2  1  0.90074198  0.20199266  0.59827916  1
  Al  Al3  1  0.44918217  0.09745208  0.41782085  1
  Al  Al4  1  0.23439484  0.20547139  0.64588201  1
  Al  Al5  1  0.87474512  0.20796563  0.07075277  1
  Al  Al6  1  0.44621340  0.08962292  0.88784564  1
  Al  Al7  1  0.55290005  0.19702253  0.66110858  1
  Al  Al8  1  0.12282110  0.42362517  0.43490002  1
  Al  Al9  1  0.76919770  0.42139768  0.83952209  1
  Al  Al10  1  0.89833446  0.53604237  0.66415585  1
  Al  Al11  1  0.43441612  0.44433469  0.33161053  1
  Al  Al12  1  0.53125046  0.54998247  0.07005591  1
  Al  Al13  1  0.12503103  0.42437264  0.88504897  1
  Al  Al14  1  0.21333056  0.54320184  0.65015773  1
  Al  Al15  1  0.87711664  0.53742109  0.04380774  1
  Al  Al16  1  0.43318673  0.43184919  0.83015051  1
  Al  Al17  1  0.12581556  0.75414932  0.41461871  1
  Al  Al18  1  0.20944918  0.87657373  0.14854160  1
  Al  Al19  1  0.77701896  0.77438819  0.88517776  1
  Al  Al20  1  0.89892451  0.86366046  0.65385208  1
  Al  Al21  1  0.44291626  0.77526629  0.40907287  1
  Al  Al22  1  0.11311265  0.75900477  0.89701920  1
  Al  Al23  1  0.22823376  0.86713298  0.65314680  1
  Al  Al24  1  0.80374063  0.74230497  0.40979230  1
  Al  Al25  1  0.89114308  0.88143280  0.13440290  1
  Al  Al26  1  0.44170006  0.75926432  0.89016124  1
  Al  Al27  1  0.56026253  0.87415655  0.64594637  1
  Gd  Gd28  1  0.20509029  0.21243020  0.17285931  1
  Gd  Gd29  1  0.54104102  0.22727916  0.10618294  1
  Gd  Gd30  1  0.12513820  0.08780831  0.88414062  1
  Gd  Gd31  1  0.77913970  0.08164919  0.36792342  1
  Gd  Gd32  1  0.14040627  0.57925214  0.18094243  1
  Gd  Gd33  1  0.79285852  0.42254637  0.31701167  1
  Gd  Gd34  1  0.56052143  0.53141659  0.59674958  1
  Gd  Gd35  1  0.56454939  0.85855001  0.15190912  1
  N  N36  1  0.22924276  0.19951737  0.39428209  1
  N  N37  1  0.09137039  0.09025915  0.09975217  1
  N  N38  1  0.85968225  0.21347473  0.89348207  1
  N  N39  1  0.78077101  0.09448483  0.63964789  1
  N  N40  1  0.51877046  0.22165176  0.33399735  1
  N  N41  1  0.42705602  0.08641555  0.06211391  1
  N  N42  1  0.24562841  0.21939244  0.82136363  1
  N  N43  1  0.12431398  0.08538668  0.61918413  1
  N  N44  1  0.91438034  0.19656071  0.42235697  1
  N  N45  1  0.79257875  0.09551102  0.14871153  1
  N  N46  1  0.55741895  0.20039317  0.85240755  1
  N  N47  1  0.45922259  0.08895532  0.59770645  1
  N  N48  1  0.22845451  0.53572194  0.39029147  1
  N  N49  1  0.09042055  0.42311162  0.05689486  1
  N  N50  1  0.88309392  0.54425567  0.85433760  1
  N  N51  1  0.80870968  0.40620011  0.66301671  1
  N  N52  1  0.54131679  0.55279219  0.38677115  1
  N  N53  1  0.41129241  0.48051921  0.15384279  1
  N  N54  1  0.20900203  0.55037769  0.83805548  1
  N  N55  1  0.11013424  0.42907143  0.61150526  1
  N  N56  1  0.92726711  0.53456804  0.36083966  1
  N  N57  1  0.75991113  0.44098403  0.09830518  1
  N  N58  1  0.54882523  0.53277459  0.87980650  1
  N  N59  1  0.43170465  0.41130775  0.65302261  1
  N  N60  1  0.22897931  0.87319921  0.34417901  1
  N  N61  1  0.09518487  0.79225008  0.07220633  1
  N  N62  1  0.89538770  0.87049308  0.83302283  1
  N  N63  1  0.78912693  0.75410020  0.59943463  1
  N  N64  1  0.57417421  0.86996164  0.36833589  1
  N  N65  1  0.41677850  0.76893159  0.06947162  1
  N  N66  1  0.24088668  0.83604241  0.82552289  1
  N  N67  1  0.11299490  0.76544026  0.59427698  1
  N  N68  1  0.92915461  0.82249933  0.32462833  1
  N  N69  1  0.80605670  0.75640221  0.06321491  1
  N  N70  1  0.55805820  0.86788137  0.83175229  1
  N  N71  1  0.43254004  0.79398456  0.58770146  1
