# generated using pymatgen
data_Gd2Al7N9
_symmetry_space_group_name_H-M   'P 1'
_cell_length_a   9.91791970
_cell_length_b   9.84634381
_cell_length_c   10.57076662
_cell_angle_alpha   89.19911774
_cell_angle_beta   88.89766981
_cell_angle_gamma   60.02696295
_symmetry_Int_Tables_number   1
_chemical_formula_structural   Gd2Al7N9
_chemical_formula_sum   'Gd8 Al28 N36'
_cell_volume   894.05601871
_cell_formula_units_Z   4
loop_
 _symmetry_equiv_pos_site_id
 _symmetry_equiv_pos_as_xyz
  1  'x, y, z'
loop_
 _atom_site_type_symbol
 _atom_site_label
 _atom_site_symmetry_multiplicity
 _atom_site_fract_x
 _atom_site_fract_y
 _atom_site_fract_z
 _atom_site_occupancy
  Al  Al0  1  0.12740984  0.08594539  0.38444752  1
  Al  Al1  1  0.77083002  0.09281542  0.78517424  1
  Al  Al2  1  0.89500284  0.20617836  0.55863304  1
  Al  Al3  1  0.44352761  0.10332074  0.32124680  1
  Al  Al4  1  0.23024391  0.21083351  0.55569253  1
  Al  Al5  1  0.87758515  0.20168634  0.02828697  1
  Al  Al6  1  0.44791682  0.08930460  0.78671679  1
  Al  Al7  1  0.54649866  0.20865526  0.55847415  1
  Al  Al8  1  0.10858028  0.43527635  0.31886268  1
  Al  Al9  1  0.77883112  0.42809301  0.80913395  1
  Al  Al10  1  0.89985786  0.53886052  0.56236784  1
  Al  Al11  1  0.44165593  0.43740774  0.31147602  1
  Al  Al12  1  0.55319974  0.52913857  0.03632709  1
  Al  Al13  1  0.11665272  0.43144167  0.79241310  1
  Al  Al14  1  0.21845568  0.53815868  0.54621064  1
  Al  Al15  1  0.88928517  0.54246430  0.04247224  1
  Al  Al16  1  0.43317666  0.42231112  0.78775321  1
  Al  Al17  1  0.11080605  0.76126397  0.31192921  1
  Al  Al18  1  0.20795821  0.87982088  0.11953244  1
  Al  Al19  1  0.77443078  0.76256931  0.79947248  1
  Al  Al20  1  0.89242017  0.86477193  0.55450546  1
  Al  Al21  1  0.43699761  0.77324387  0.37190761  1
  Al  Al22  1  0.10904718  0.74899498  0.78635970  1
  Al  Al23  1  0.22815942  0.86484302  0.61056364  1
  Al  Al24  1  0.79993569  0.75447879  0.30904030  1
  Al  Al25  1  0.89621373  0.87199353  0.04726630  1
  Al  Al26  1  0.43264301  0.75697406  0.86178484  1
  Al  Al27  1  0.56277575  0.87931600  0.54723328  1
  Gd  Gd28  1  0.21122421  0.20657595  0.06884027  1
  Gd  Gd29  1  0.55675656  0.20298338  0.03740471  1
  Gd  Gd30  1  0.10667847  0.09578153  0.81515294  1
  Gd  Gd31  1  0.78123013  0.09340747  0.31085493  1
  Gd  Gd32  1  0.21630491  0.54910915  0.06409054  1
  Gd  Gd33  1  0.78717823  0.43792923  0.28904122  1
  Gd  Gd34  1  0.56108499  0.53995086  0.57958354  1
  Gd  Gd35  1  0.55726079  0.85450883  0.08011446  1
  N  N36  1  0.22570839  0.21095512  0.37152293  1
  N  N37  1  0.09302440  0.07418829  0.04184816  1
  N  N38  1  0.84795040  0.21707227  0.85142221  1
  N  N39  1  0.78031631  0.09252918  0.59988871  1
  N  N40  1  0.52922380  0.22645420  0.37799350  1
  N  N41  1  0.44608049  0.09404917  0.14646340  1
  N  N42  1  0.24130207  0.22159148  0.85073221  1
  N  N43  1  0.12024963  0.08710786  0.57738310  1
  N  N44  1  0.91247486  0.20414392  0.37929166  1
  N  N45  1  0.79588898  0.08239065  0.09746554  1
  N  N46  1  0.55436215  0.19937318  0.82126463  1
  N  N47  1  0.44614058  0.09059266  0.60413659  1
  N  N48  1  0.22342542  0.54236525  0.35919537  1
  N  N49  1  0.06970030  0.44404624  0.14235070  1
  N  N50  1  0.89552986  0.53993077  0.85769057  1
  N  N51  1  0.81841459  0.41074162  0.62664756  1
  N  N52  1  0.53896069  0.55247473  0.36134032  1
  N  N53  1  0.46455645  0.43178200  0.13078412  1
  N  N54  1  0.21928554  0.53984226  0.84566147  1
  N  N55  1  0.11518049  0.42810661  0.60937991  1
  N  N56  1  0.90262490  0.55296480  0.38462619  1
  N  N57  1  0.77214468  0.43329743  0.06877050  1
  N  N58  1  0.55289989  0.52980205  0.83998868  1
  N  N59  1  0.42272558  0.42060813  0.61035459  1
  N  N60  1  0.22792629  0.88232955  0.30930033  1
  N  N61  1  0.08622721  0.78696783  0.13270238  1
  N  N62  1  0.89091050  0.86909967  0.85449849  1
  N  N63  1  0.77577840  0.76250653  0.61611095  1
  N  N64  1  0.57354422  0.87193706  0.35718236  1
  N  N65  1  0.40635374  0.74589846  0.04257186  1
  N  N66  1  0.23968039  0.83753614  0.78825062  1
  N  N67  1  0.10767469  0.75540173  0.60151123  1
  N  N68  1  0.90675504  0.84831613  0.37742983  1
  N  N69  1  0.81031198  0.74669330  0.11915978  1
  N  N70  1  0.55297266  0.87154154  0.85181126  1
  N  N71  1  0.42717184  0.79785717  0.55033194  1
