# generated using pymatgen
data_Gd2Al7N9
_symmetry_space_group_name_H-M   'P 1'
_cell_length_a   9.94710230
_cell_length_b   9.86367436
_cell_length_c   10.53233147
_cell_angle_alpha   89.16489441
_cell_angle_beta   88.81384226
_cell_angle_gamma   59.96015802
_symmetry_Int_Tables_number   1
_chemical_formula_structural   Gd2Al7N9
_chemical_formula_sum   'Gd8 Al28 N36'
_cell_volume   894.37107838
_cell_formula_units_Z   4
loop_
 _symmetry_equiv_pos_site_id
 _symmetry_equiv_pos_as_xyz
  1  'x, y, z'
loop_
 _atom_site_type_symbol
 _atom_site_label
 _atom_site_symmetry_multiplicity
 _atom_site_fract_x
 _atom_site_fract_y
 _atom_site_fract_z
 _atom_site_occupancy
  Al  Al0  1  0.12656076  0.08623298  0.38740331  1
  Al  Al1  1  0.77080666  0.09335799  0.78463445  1
  Al  Al2  1  0.89510050  0.20812596  0.55910949  1
  Al  Al3  1  0.44461020  0.10134275  0.32272122  1
  Al  Al4  1  0.23113963  0.21208438  0.55548436  1
  Al  Al5  1  0.87423595  0.20263196  0.02567132  1
  Al  Al6  1  0.44825710  0.09064340  0.78871899  1
  Al  Al7  1  0.54591070  0.20868655  0.55809618  1
  Al  Al8  1  0.10749405  0.43530164  0.32035744  1
  Al  Al9  1  0.77921029  0.42918604  0.80909199  1
  Al  Al10  1  0.90064598  0.53978307  0.56375703  1
  Al  Al11  1  0.44131219  0.43810102  0.31053710  1
  Al  Al12  1  0.55126775  0.52844975  0.03118875  1
  Al  Al13  1  0.11814150  0.43227901  0.79405358  1
  Al  Al14  1  0.21839025  0.53886713  0.54556886  1
  Al  Al15  1  0.88838071  0.54171966  0.04172214  1
  Al  Al16  1  0.43243695  0.42243927  0.78801117  1
  Al  Al17  1  0.11408094  0.76420489  0.31191700  1
  Al  Al18  1  0.20486313  0.87433765  0.09064339  1
  Al  Al19  1  0.77602005  0.76367906  0.80019222  1
  Al  Al20  1  0.89413899  0.86468265  0.55389714  1
  Al  Al21  1  0.43623450  0.77248392  0.37928868  1
  Al  Al22  1  0.10907478  0.75080829  0.78751825  1
  Al  Al23  1  0.22765274  0.86534583  0.60775258  1
  Al  Al24  1  0.80024180  0.75505185  0.31081663  1
  Al  Al25  1  0.89460754  0.87199890  0.04751409  1
  Al  Al26  1  0.43529669  0.75846273  0.85353448  1
  Al  Al27  1  0.56502550  0.87796453  0.55165723  1
  Gd  Gd28  1  0.20997899  0.20162957  0.07494150  1
  Gd  Gd29  1  0.55609312  0.20071489  0.03897709  1
  Gd  Gd30  1  0.10568117  0.10208479  0.81087099  1
  Gd  Gd31  1  0.78239486  0.09479342  0.31251944  1
  Gd  Gd32  1  0.21381192  0.54382742  0.06646867  1
  Gd  Gd33  1  0.78657746  0.44040068  0.28803155  1
  Gd  Gd34  1  0.56425198  0.53440641  0.58036770  1
  Gd  Gd35  1  0.55729496  0.85061873  0.08274072  1
  N  N36  1  0.22608881  0.21038636  0.37116552  1
  N  N37  1  0.08904689  0.07552560  0.03592503  1
  N  N38  1  0.84711569  0.21816112  0.84888024  1
  N  N39  1  0.78044795  0.09357807  0.59857740  1
  N  N40  1  0.52918841  0.22624323  0.37680674  1
  N  N41  1  0.44716062  0.09001918  0.14730240  1
  N  N42  1  0.24292580  0.22351856  0.85592276  1
  N  N43  1  0.12037826  0.08986554  0.57861404  1
  N  N44  1  0.91213275  0.20763743  0.37927172  1
  N  N45  1  0.79569190  0.08241401  0.09808126  1
  N  N46  1  0.55500364  0.19999445  0.82211475  1
  N  N47  1  0.44606795  0.09099886  0.60523299  1
  N  N48  1  0.22280566  0.54244854  0.35704493  1
  N  N49  1  0.06593614  0.44062089  0.14381340  1
  N  N50  1  0.89653146  0.54049151  0.85741025  1
  N  N51  1  0.82046199  0.41142724  0.62728471  1
  N  N52  1  0.53878261  0.55241132  0.36156916  1
  N  N53  1  0.46294740  0.43243519  0.12824972  1
  N  N54  1  0.21952106  0.54141931  0.84740767  1
  N  N55  1  0.11604775  0.42846924  0.61009225  1
  N  N56  1  0.90229732  0.55369546  0.38578461  1
  N  N57  1  0.76931411  0.43452524  0.06587482  1
  N  N58  1  0.55310715  0.53024100  0.83554613  1
  N  N59  1  0.42148794  0.41982047  0.61025908  1
  N  N60  1  0.22517004  0.87801654  0.33068858  1
  N  N61  1  0.08772004  0.78525125  0.12961147  1
  N  N62  1  0.89054991  0.87016479  0.85511911  1
  N  N63  1  0.77832494  0.76332097  0.61679279  1
  N  N64  1  0.57287432  0.87094105  0.36072576  1
  N  N65  1  0.40747563  0.74494680  0.03503212  1
  N  N66  1  0.23603766  0.84297678  0.78953330  1
  N  N67  1  0.10809532  0.75511520  0.60265767  1
  N  N68  1  0.90814006  0.84857295  0.37588488  1
  N  N69  1  0.81057508  0.74580564  0.11949724  1
  N  N70  1  0.55496189  0.87221629  0.85158178  1
  N  N71  1  0.43365995  0.79252284  0.56081965  1
