# generated using pymatgen
data_Gd2Al7N9
_symmetry_space_group_name_H-M   'P 1'
_cell_length_a   9.86420103
_cell_length_b   9.82729619
_cell_length_c   10.76539733
_cell_angle_alpha   89.49455895
_cell_angle_beta   89.10913990
_cell_angle_gamma   59.81699068
_symmetry_Int_Tables_number   1
_chemical_formula_structural   Gd2Al7N9
_chemical_formula_sum   'Gd8 Al28 N36'
_cell_volume   901.98645109
_cell_formula_units_Z   4
loop_
 _symmetry_equiv_pos_site_id
 _symmetry_equiv_pos_as_xyz
  1  'x, y, z'
loop_
 _atom_site_type_symbol
 _atom_site_label
 _atom_site_symmetry_multiplicity
 _atom_site_fract_x
 _atom_site_fract_y
 _atom_site_fract_z
 _atom_site_occupancy
  Al  Al0  1  0.12660551  0.08423596  0.38455001  1
  Al  Al1  1  0.77052683  0.09846730  0.78241739  1
  Al  Al2  1  0.89507130  0.20326336  0.55512966  1
  Al  Al3  1  0.44519578  0.10021135  0.32239655  1
  Al  Al4  1  0.23232352  0.20786904  0.55279379  1
  Al  Al5  1  0.87293045  0.20705995  0.02453463  1
  Al  Al6  1  0.44355863  0.10297432  0.78755308  1
  Al  Al7  1  0.54982258  0.20496043  0.55379565  1
  Al  Al8  1  0.10350360  0.43857473  0.32110627  1
  Al  Al9  1  0.77691035  0.42642959  0.80410803  1
  Al  Al10  1  0.90584269  0.52641441  0.57250368  1
  Al  Al11  1  0.44213489  0.43738443  0.30759702  1
  Al  Al12  1  0.54595585  0.53647833  0.03377466  1
  Al  Al13  1  0.12080683  0.42893377  0.79312133  1
  Al  Al14  1  0.22281648  0.53228155  0.54834979  1
  Al  Al15  1  0.88531380  0.53707557  0.02917335  1
  Al  Al16  1  0.43533677  0.42554360  0.78757428  1
  Al  Al17  1  0.11311223  0.75936286  0.32512195  1
  Al  Al18  1  0.20794864  0.87943801  0.11782504  1
  Al  Al19  1  0.77922404  0.76245126  0.84622543  1
  Al  Al20  1  0.89666057  0.87153830  0.56395112  1
  Al  Al21  1  0.44021202  0.77505602  0.38003237  1
  Al  Al22  1  0.11481704  0.74982739  0.78128394  1
  Al  Al23  1  0.23196663  0.86543980  0.61230931  1
  Al  Al24  1  0.77961806  0.75859069  0.40483395  1
  Al  Al25  1  0.89834292  0.88099813  0.02565707  1
  Al  Al26  1  0.43588600  0.76158630  0.86022453  1
  Al  Al27  1  0.55600071  0.87194518  0.62243111  1
  Gd  Gd28  1  0.20824472  0.20827926  0.07593088  1
  Gd  Gd29  1  0.54787226  0.20781658  0.03656873  1
  Gd  Gd30  1  0.10850898  0.09987711  0.81724125  1
  Gd  Gd31  1  0.78725270  0.08171259  0.29957392  1
  Gd  Gd32  1  0.20117490  0.55235924  0.06281918  1
  Gd  Gd33  1  0.79333514  0.43495390  0.28549021  1
  Gd  Gd34  1  0.56467018  0.53231830  0.57103734  1
  Gd  Gd35  1  0.57315974  0.83726891  0.12713457  1
  N  N36  1  0.22571871  0.20982573  0.37113275  1
  N  N37  1  0.09037432  0.07744790  0.04281326  1
  N  N38  1  0.84999213  0.21822137  0.85113527  1
  N  N39  1  0.77862508  0.09700910  0.60193161  1
  N  N40  1  0.53516404  0.22221035  0.37523722  1
  N  N41  1  0.44820599  0.09083465  0.14814404  1
  N  N42  1  0.24434279  0.22432038  0.86266936  1
  N  N43  1  0.12134669  0.08660972  0.57501737  1
  N  N44  1  0.90947461  0.20012970  0.37777308  1
  N  N45  1  0.79093168  0.08632096  0.08781161  1
  N  N46  1  0.55561881  0.20305069  0.82534755  1
  N  N47  1  0.44355982  0.09599463  0.60804823  1
  N  N48  1  0.22459068  0.53824683  0.36299133  1
  N  N49  1  0.04836601  0.45311690  0.14854230  1
  N  N50  1  0.90194169  0.52500599  0.84795605  1
  N  N51  1  0.81795596  0.40453776  0.62756209  1
  N  N52  1  0.54091069  0.55240020  0.35897812  1
  N  N53  1  0.45229006  0.44269860  0.12864208  1
  N  N54  1  0.21909106  0.54288070  0.84462144  1
  N  N55  1  0.12142494  0.42155239  0.61372465  1
  N  N56  1  0.90501993  0.54088911  0.39716733  1
  N  N57  1  0.76512250  0.43746952  0.06758623  1
  N  N58  1  0.55131484  0.53269954  0.84101736  1
  N  N59  1  0.42708281  0.41549433  0.61208947  1
  N  N60  1  0.22914995  0.87841577  0.31188761  1
  N  N61  1  0.08020289  0.79131634  0.12826712  1
  N  N62  1  0.89750129  0.87744833  0.83565913  1
  N  N63  1  0.77751491  0.76079927  0.58911411  1
  N  N64  1  0.57228058  0.86477676  0.34207246  1
  N  N65  1  0.41177876  0.75978246  0.03842551  1
  N  N66  1  0.24123290  0.84202268  0.78694707  1
  N  N67  1  0.11714023  0.75239405  0.59806262  1
  N  N68  1  0.90748181  0.84841420  0.38787856  1
  N  N69  1  0.79960191  0.75795536  0.02646234  1
  N  N70  1  0.55286887  0.86798739  0.80646982  1
  N  N71  1  0.43353899  0.79394538  0.55500123  1
