# generated using pymatgen
data_Gd2Al7N9
_symmetry_space_group_name_H-M   'P 1'
_cell_length_a   9.74139643
_cell_length_b   9.76808589
_cell_length_c   11.27890699
_cell_angle_alpha   89.86409509
_cell_angle_beta   89.47406936
_cell_angle_gamma   59.90646303
_symmetry_Int_Tables_number   1
_chemical_formula_structural   Gd2Al7N9
_chemical_formula_sum   'Gd8 Al28 N36'
_cell_volume   928.53543518
_cell_formula_units_Z   4
loop_
 _symmetry_equiv_pos_site_id
 _symmetry_equiv_pos_as_xyz
  1  'x, y, z'
loop_
 _atom_site_type_symbol
 _atom_site_label
 _atom_site_symmetry_multiplicity
 _atom_site_fract_x
 _atom_site_fract_y
 _atom_site_fract_z
 _atom_site_occupancy
  Al  Al0  1  0.12858317  0.08666513  0.42002272  1
  Al  Al1  1  0.76639306  0.09962114  0.79551696  1
  Al  Al2  1  0.89436594  0.20247145  0.57427677  1
  Al  Al3  1  0.44408700  0.10009876  0.33898050  1
  Al  Al4  1  0.22853886  0.21236857  0.62583719  1
  Al  Al5  1  0.86979763  0.20922924  0.03257345  1
  Al  Al6  1  0.45307803  0.09846341  0.78808502  1
  Al  Al7  1  0.55183067  0.20230053  0.56139820  1
  Al  Al8  1  0.12852983  0.42815562  0.41336008  1
  Al  Al9  1  0.77437623  0.42751412  0.80699054  1
  Al  Al10  1  0.89851238  0.53071756  0.57940544  1
  Al  Al11  1  0.44270170  0.43775842  0.31785314  1
  Al  Al12  1  0.55092083  0.53302696  0.04213472  1
  Al  Al13  1  0.11967571  0.42806839  0.86774732  1
  Al  Al14  1  0.21453304  0.53937100  0.64256503  1
  Al  Al15  1  0.88418355  0.53388020  0.02214490  1
  Al  Al16  1  0.44572443  0.41762473  0.80144609  1
  Al  Al17  1  0.13091526  0.75250640  0.41004647  1
  Al  Al18  1  0.21420367  0.87601333  0.06723630  1
  Al  Al19  1  0.77225541  0.76434381  0.85912763  1
  Al  Al20  1  0.89405815  0.87396053  0.57713131  1
  Al  Al21  1  0.43395152  0.78203606  0.40202444  1
  Al  Al22  1  0.11653224  0.75543124  0.85892745  1
  Al  Al23  1  0.23140843  0.86367689  0.63329168  1
  Al  Al24  1  0.77753617  0.76195347  0.41658554  1
  Al  Al25  1  0.88243763  0.88988080  0.02113702  1
  Al  Al26  1  0.44677766  0.75550390  0.86503889  1
  Al  Al27  1  0.56134369  0.86604429  0.63276289  1
  Gd  Gd28  1  0.17482902  0.21581925  0.16083399  1
  Gd  Gd29  1  0.53389737  0.21094727  0.05308203  1
  Gd  Gd30  1  0.11012546  0.09968503  0.84001235  1
  Gd  Gd31  1  0.79681891  0.07904214  0.31043883  1
  Gd  Gd32  1  0.18007355  0.57163609  0.14147209  1
  Gd  Gd33  1  0.78418583  0.43517857  0.30363971  1
  Gd  Gd34  1  0.56256126  0.52455936  0.57146302  1
  Gd  Gd35  1  0.57225057  0.83649677  0.14882501  1
  N  N36  1  0.22124330  0.20853742  0.37177082  1
  N  N37  1  0.09518041  0.08778227  0.04668952  1
  N  N38  1  0.84639975  0.22179350  0.86442993  1
  N  N39  1  0.77782836  0.09708024  0.62149067  1
  N  N40  1  0.53926292  0.22283201  0.38766555  1
  N  N41  1  0.43490216  0.09486177  0.16489580  1
  N  N42  1  0.23444971  0.22932253  0.79740606  1
  N  N43  1  0.12106500  0.08867418  0.59846136  1
  N  N44  1  0.90511262  0.20480236  0.40340343  1
  N  N45  1  0.79130708  0.08457223  0.10097064  1
  N  N46  1  0.55243765  0.20094461  0.84970570  1
  N  N47  1  0.45695737  0.08763057  0.61604644  1
  N  N48  1  0.22013173  0.54327444  0.34693382  1
  N  N49  1  0.10688141  0.42210696  0.03964940  1
  N  N50  1  0.88528236  0.53524266  0.85254258  1
  N  N51  1  0.81339123  0.40835065  0.63938258  1
  N  N52  1  0.53529538  0.55751287  0.37150883  1
  N  N53  1  0.45201688  0.44707251  0.13996008  1
  N  N54  1  0.21469487  0.54328721  0.81493874  1
  N  N55  1  0.12096797  0.42819035  0.58177234  1
  N  N56  1  0.90137861  0.54294734  0.39923294  1
  N  N57  1  0.77574497  0.43338424  0.08804560  1
  N  N58  1  0.55402823  0.52752973  0.85940177  1
  N  N59  1  0.43636430  0.40480170  0.63405826  1
  N  N60  1  0.21945967  0.88016846  0.35647105  1
  N  N61  1  0.10267505  0.78099058  0.02920136  1
  N  N62  1  0.88305093  0.88211717  0.84532411  1
  N  N63  1  0.77977696  0.75837961  0.59176798  1
  N  N64  1  0.56780416  0.86795982  0.35652047  1
  N  N65  1  0.42895648  0.75860837  0.03788288  1
  N  N66  1  0.24219412  0.83889231  0.80151058  1
  N  N67  1  0.12532535  0.75293875  0.58452062  1
  N  N68  1  0.90514135  0.85342197  0.40303597  1
  N  N69  1  0.79374000  0.75754051  0.03947154  1
  N  N70  1  0.55436808  0.86655839  0.80947492  1
  N  N71  1  0.43695396  0.78659698  0.57315898  1
