# generated using pymatgen
data_Gd2Al7N9
_symmetry_space_group_name_H-M   'P 1'
_cell_length_a   9.77492279
_cell_length_b   9.75172766
_cell_length_c   11.24161314
_cell_angle_alpha   89.27703991
_cell_angle_beta   88.14346145
_cell_angle_gamma   60.03878616
_symmetry_Int_Tables_number   1
_chemical_formula_structural   Gd2Al7N9
_chemical_formula_sum   'Gd8 Al28 N36'
_cell_volume   927.88054233
_cell_formula_units_Z   4
loop_
 _symmetry_equiv_pos_site_id
 _symmetry_equiv_pos_as_xyz
  1  'x, y, z'
loop_
 _atom_site_type_symbol
 _atom_site_label
 _atom_site_symmetry_multiplicity
 _atom_site_fract_x
 _atom_site_fract_y
 _atom_site_fract_z
 _atom_site_occupancy
  Al  Al0  1  0.13633239  0.08252971  0.42735946  1
  Al  Al1  1  0.76411137  0.09969483  0.79442586  1
  Al  Al2  1  0.89707398  0.20490695  0.57355585  1
  Al  Al3  1  0.45503064  0.09793922  0.34289331  1
  Al  Al4  1  0.23946509  0.20156572  0.61013267  1
  Al  Al5  1  0.86112478  0.21143526  0.03076437  1
  Al  Al6  1  0.45249445  0.09784858  0.78481517  1
  Al  Al7  1  0.55941844  0.20107468  0.55809876  1
  Al  Al8  1  0.13406707  0.43041019  0.42163853  1
  Al  Al9  1  0.76935689  0.42683672  0.80846179  1
  Al  Al10  1  0.89505093  0.53621535  0.57938092  1
  Al  Al11  1  0.45052287  0.43869969  0.31469385  1
  Al  Al12  1  0.54017253  0.53385817  0.04145108  1
  Al  Al13  1  0.10330762  0.43598270  0.79437082  1
  Al  Al14  1  0.22406041  0.54753803  0.63279379  1
  Al  Al15  1  0.88372142  0.52883574  0.02578721  1
  Al  Al16  1  0.44298781  0.41753816  0.79835234  1
  Al  Al17  1  0.13767161  0.75792900  0.41071764  1
  Al  Al18  1  0.20408569  0.87386318  0.05763336  1
  Al  Al19  1  0.76789816  0.76467679  0.85927714  1
  Al  Al20  1  0.89628586  0.87713218  0.57708683  1
  Al  Al21  1  0.44342526  0.78092262  0.40086911  1
  Al  Al22  1  0.11165315  0.75355029  0.85840622  1
  Al  Al23  1  0.23441532  0.86335913  0.63614867  1
  Al  Al24  1  0.78642116  0.76308760  0.41608778  1
  Al  Al25  1  0.87499205  0.88793299  0.01988571  1
  Al  Al26  1  0.44340114  0.75512689  0.86392886  1
  Al  Al27  1  0.56495366  0.86421404  0.63163369  1
  Gd  Gd28  1  0.17234015  0.19247334  0.18178858  1
  Gd  Gd29  1  0.52670949  0.21027927  0.05436798  1
  Gd  Gd30  1  0.10677019  0.10238454  0.84033823  1
  Gd  Gd31  1  0.80575833  0.08234535  0.30638293  1
  Gd  Gd32  1  0.16760740  0.57322607  0.15729867  1
  Gd  Gd33  1  0.80237472  0.44134399  0.29407115  1
  Gd  Gd34  1  0.57183092  0.52100346  0.56436914  1
  Gd  Gd35  1  0.56343471  0.83485479  0.14806922  1
  N  N36  1  0.23787052  0.20465468  0.40033035  1
  N  N37  1  0.08613220  0.08813640  0.04673504  1
  N  N38  1  0.84353101  0.22033210  0.86183496  1
  N  N39  1  0.77969392  0.09999404  0.61859754  1
  N  N40  1  0.55026199  0.22214940  0.38478472  1
  N  N41  1  0.43007610  0.09412411  0.17170427  1
  N  N42  1  0.23624318  0.22320641  0.78879886  1
  N  N43  1  0.12091138  0.08620652  0.60022833  1
  N  N44  1  0.91720705  0.20899095  0.39788665  1
  N  N45  1  0.78336866  0.08354857  0.09893843  1
  N  N46  1  0.54863823  0.20134824  0.84748491  1
  N  N47  1  0.46571209  0.08436382  0.61224173  1
  N  N48  1  0.23166426  0.54304705  0.36129796  1
  N  N49  1  0.05985377  0.43168475  0.11642581  1
  N  N50  1  0.89009998  0.52950583  0.85189192  1
  N  N51  1  0.81445494  0.40983863  0.64020688  1
  N  N52  1  0.54858573  0.55748154  0.36245088  1
  N  N53  1  0.44114846  0.44655179  0.13988259  1
  N  N54  1  0.21274774  0.54469461  0.80693054  1
  N  N55  1  0.11626924  0.43533135  0.60096638  1
  N  N56  1  0.91164429  0.54284333  0.40753756  1
  N  N57  1  0.75866264  0.43562968  0.08004525  1
  N  N58  1  0.54840851  0.52812622  0.85587416  1
  N  N59  1  0.44105629  0.40527080  0.62860805  1
  N  N60  1  0.23036171  0.88230850  0.35537631  1
  N  N61  1  0.09400517  0.77463088  0.02907621  1
  N  N62  1  0.88029772  0.88123764  0.84200300  1
  N  N63  1  0.78245709  0.76199704  0.59242499  1
  N  N64  1  0.57980022  0.86484462  0.35664266  1
  N  N65  1  0.41962005  0.75977901  0.03625070  1
  N  N66  1  0.23871566  0.84007441  0.80441849  1
  N  N67  1  0.12579302  0.76054845  0.58340386  1
  N  N68  1  0.91348894  0.85560203  0.40030995  1
  N  N69  1  0.78106259  0.75896104  0.03390790  1
  N  N70  1  0.55278011  0.86502767  0.80732953  1
  N  N71  1  0.44080826  0.78401079  0.57299962  1
