# generated using pymatgen
data_Gd2Al7N9
_symmetry_space_group_name_H-M   'P 1'
_cell_length_a   9.75157825
_cell_length_b   9.81112762
_cell_length_c   11.03566579
_cell_angle_alpha   89.66952103
_cell_angle_beta   89.42801157
_cell_angle_gamma   60.03817016
_symmetry_Int_Tables_number   1
_chemical_formula_structural   Gd2Al7N9
_chemical_formula_sum   'Gd8 Al28 N36'
_cell_volume   914.67772025
_cell_formula_units_Z   4
loop_
 _symmetry_equiv_pos_site_id
 _symmetry_equiv_pos_as_xyz
  1  'x, y, z'
loop_
 _atom_site_type_symbol
 _atom_site_label
 _atom_site_symmetry_multiplicity
 _atom_site_fract_x
 _atom_site_fract_y
 _atom_site_fract_z
 _atom_site_occupancy
  Al  Al0  1  0.12725516  0.08696486  0.40684437  1
  Al  Al1  1  0.77211441  0.09584947  0.79528808  1
  Al  Al2  1  0.89703562  0.20278012  0.57166776  1
  Al  Al3  1  0.44236223  0.09631694  0.40522901  1
  Al  Al4  1  0.23276445  0.20679170  0.63193719  1
  Al  Al5  1  0.87352987  0.20817278  0.04431596  1
  Al  Al6  1  0.44669330  0.08698568  0.86180747  1
  Al  Al7  1  0.55468869  0.20954826  0.56885994  1
  Al  Al8  1  0.12570839  0.42637236  0.41248044  1
  Al  Al9  1  0.77714756  0.42060577  0.80916157  1
  Al  Al10  1  0.89684355  0.53167681  0.58353382  1
  Al  Al11  1  0.43764344  0.44108283  0.31996198  1
  Al  Al12  1  0.54347522  0.54123598  0.05133677  1
  Al  Al13  1  0.11911182  0.42302502  0.86432502  1
  Al  Al14  1  0.21352976  0.54160928  0.63977011  1
  Al  Al15  1  0.88171228  0.52967666  0.02136932  1
  Al  Al16  1  0.44473936  0.41766842  0.80099028  1
  Al  Al17  1  0.12699496  0.75169990  0.40364219  1
  Al  Al18  1  0.21120313  0.87571489  0.12205938  1
  Al  Al19  1  0.77830533  0.75969222  0.85367302  1
  Al  Al20  1  0.89383312  0.87369982  0.57707629  1
  Al  Al21  1  0.43382053  0.78233578  0.38934106  1
  Al  Al22  1  0.12323191  0.75275027  0.86541555  1
  Al  Al23  1  0.22887595  0.86942643  0.63168747  1
  Al  Al24  1  0.77462420  0.76263677  0.41352122  1
  Al  Al25  1  0.88650020  0.88688420  0.02376790  1
  Al  Al26  1  0.44490402  0.75302437  0.87224226  1
  Al  Al27  1  0.55227465  0.87962894  0.63486056  1
  Gd  Gd28  1  0.21248289  0.20400507  0.14598892  1
  Gd  Gd29  1  0.54800491  0.22657865  0.04571974  1
  Gd  Gd30  1  0.12225640  0.08328373  0.86480952  1
  Gd  Gd31  1  0.78854576  0.08234203  0.31444327  1
  Gd  Gd32  1  0.16918225  0.57266985  0.14020161  1
  Gd  Gd33  1  0.78521871  0.43442663  0.30349102  1
  Gd  Gd34  1  0.55654325  0.53933559  0.57604593  1
  Gd  Gd35  1  0.57208899  0.85449591  0.13116812  1
  N  N36  1  0.22485985  0.20705622  0.36058456  1
  N  N37  1  0.09152233  0.08808260  0.07431631  1
  N  N38  1  0.85643135  0.21392497  0.86943316  1
  N  N39  1  0.78050789  0.09644825  0.61941290  1
  N  N40  1  0.53475807  0.22944092  0.38822316  1
  N  N41  1  0.43528999  0.08162684  0.03851597  1
  N  N42  1  0.23983477  0.21692362  0.80255349  1
  N  N43  1  0.12270033  0.08835362  0.59024327  1
  N  N44  1  0.90692928  0.20224939  0.39823445  1
  N  N45  1  0.79373822  0.07862746  0.10564155  1
  N  N46  1  0.55623062  0.19991754  0.84174522  1
  N  N47  1  0.45097012  0.09059261  0.57947805  1
  N  N48  1  0.21595162  0.54309299  0.34843693  1
  N  N49  1  0.10008122  0.41969426  0.03808650  1
  N  N50  1  0.88549411  0.53263381  0.84699508  1
  N  N51  1  0.81015975  0.40720467  0.63720184  1
  N  N52  1  0.53381971  0.55928091  0.37159274  1
  N  N53  1  0.43840931  0.45750827  0.14382541  1
  N  N54  1  0.21455084  0.54153800  0.81779675  1
  N  N55  1  0.12073886  0.42508132  0.58551304  1
  N  N56  1  0.89947119  0.54490092  0.40029125  1
  N  N57  1  0.76908890  0.43360899  0.08844041  1
  N  N58  1  0.55430029  0.52533228  0.86296954  1
  N  N59  1  0.43451488  0.41226061  0.63161769  1
  N  N60  1  0.21928563  0.87737819  0.32288069  1
  N  N61  1  0.10566627  0.78876978  0.03880527  1
  N  N62  1  0.88870590  0.87844044  0.84462877  1
  N  N63  1  0.77455218  0.76190847  0.59422400  1
  N  N64  1  0.56308690  0.87849195  0.34543687  1
  N  N65  1  0.42239783  0.76240451  0.04920997  1
  N  N66  1  0.24644593  0.83384716  0.79973521  1
  N  N67  1  0.12618829  0.75566593  0.57995212  1
  N  N68  1  0.90347855  0.85180513  0.39998038  1
  N  N69  1  0.80574146  0.74725081  0.03876255  1
  N  N70  1  0.55325308  0.86555661  0.81237802  1
  N  N71  1  0.42939460  0.80090557  0.56334718  1
