# generated using pymatgen
data_Gd2Al7N9
_symmetry_space_group_name_H-M   'P 1'
_cell_length_a   9.85138600
_cell_length_b   9.75899206
_cell_length_c   11.07238974
_cell_angle_alpha   89.13815242
_cell_angle_beta   89.29251555
_cell_angle_gamma   59.71996950
_symmetry_Int_Tables_number   1
_chemical_formula_structural   Gd2Al7N9
_chemical_formula_sum   'Gd8 Al28 N36'
_cell_volume   919.14947754
_cell_formula_units_Z   4
loop_
 _symmetry_equiv_pos_site_id
 _symmetry_equiv_pos_as_xyz
  1  'x, y, z'
loop_
 _atom_site_type_symbol
 _atom_site_label
 _atom_site_symmetry_multiplicity
 _atom_site_fract_x
 _atom_site_fract_y
 _atom_site_fract_z
 _atom_site_occupancy
  Al  Al0  1  0.12330955  0.08538128  0.41710614  1
  Al  Al1  1  0.77156899  0.09622006  0.79191176  1
  Al  Al2  1  0.89415395  0.20795894  0.57333603  1
  Al  Al3  1  0.44869527  0.10297630  0.34094595  1
  Al  Al4  1  0.23342679  0.21318670  0.57027863  1
  Al  Al5  1  0.86670340  0.20280649  0.02922531  1
  Al  Al6  1  0.44596760  0.10422014  0.79699475  1
  Al  Al7  1  0.55191117  0.20683515  0.56372985  1
  Al  Al8  1  0.09997594  0.44742457  0.34277376  1
  Al  Al9  1  0.77690600  0.42582528  0.81191537  1
  Al  Al10  1  0.90517033  0.53110172  0.58417359  1
  Al  Al11  1  0.44281568  0.44252627  0.31117330  1
  Al  Al12  1  0.55139368  0.52847388  0.03911647  1
  Al  Al13  1  0.11986295  0.42461604  0.81109255  1
  Al  Al14  1  0.21989706  0.54397174  0.63768480  1
  Al  Al15  1  0.88485827  0.52725448  0.04179824  1
  Al  Al16  1  0.45033417  0.41885912  0.79928441  1
  Al  Al17  1  0.12842600  0.75695789  0.39742785  1
  Al  Al18  1  0.21106023  0.86763377  0.06435774  1
  Al  Al19  1  0.77606610  0.75852493  0.86060446  1
  Al  Al20  1  0.89636403  0.87624045  0.57560151  1
  Al  Al21  1  0.43389772  0.78538563  0.39840663  1
  Al  Al22  1  0.11521583  0.75799709  0.85722890  1
  Al  Al23  1  0.23283956  0.86485881  0.63224407  1
  Al  Al24  1  0.77807278  0.76548032  0.41985024  1
  Al  Al25  1  0.88341257  0.88200975  0.02313828  1
  Al  Al26  1  0.44555639  0.75805702  0.86442990  1
  Al  Al27  1  0.56004686  0.87122624  0.63476705  1
  Gd  Gd28  1  0.18440703  0.18055402  0.16104661  1
  Gd  Gd29  1  0.53793162  0.19935279  0.04564926  1
  Gd  Gd30  1  0.11237499  0.11024337  0.83437610  1
  Gd  Gd31  1  0.78972861  0.08765525  0.30856166  1
  Gd  Gd32  1  0.19774303  0.54142805  0.11586190  1
  Gd  Gd33  1  0.79282967  0.44162902  0.29641469  1
  Gd  Gd34  1  0.56870409  0.52754571  0.56892229  1
  Gd  Gd35  1  0.56972225  0.83539885  0.14845492  1
  N  N36  1  0.22475699  0.21315353  0.39014997  1
  N  N37  1  0.08630832  0.07891379  0.04193579  1
  N  N38  1  0.85012646  0.21688774  0.85977443  1
  N  N39  1  0.77948965  0.10002309  0.61573245  1
  N  N40  1  0.53696529  0.22821235  0.38850733  1
  N  N41  1  0.43677024  0.09497022  0.16957128  1
  N  N42  1  0.25336285  0.22428645  0.87457411  1
  N  N43  1  0.12135464  0.09116308  0.59467486  1
  N  N44  1  0.90605448  0.20975650  0.39716733  1
  N  N45  1  0.78972991  0.07722803  0.09902625  1
  N  N46  1  0.56074352  0.19942275  0.83962427  1
  N  N47  1  0.44654134  0.09799789  0.62017027  1
  N  N48  1  0.21817864  0.55182641  0.32803253  1
  N  N49  1  0.03566931  0.44385759  0.17164722  1
  N  N50  1  0.90264283  0.52083086  0.86538521  1
  N  N51  1  0.81556358  0.41106947  0.64173442  1
  N  N52  1  0.53647286  0.56233753  0.36349561  1
  N  N53  1  0.46201062  0.43158995  0.13327240  1
  N  N54  1  0.22214943  0.54408166  0.81822602  1
  N  N55  1  0.11742122  0.42367633  0.63187913  1
  N  N56  1  0.90261676  0.54535619  0.41322226  1
  N  N57  1  0.76739083  0.42659278  0.08179930  1
  N  N58  1  0.55578713  0.53009704  0.85449060  1
  N  N59  1  0.43683199  0.41270354  0.62814294  1
  N  N60  1  0.22123735  0.88641007  0.34528822  1
  N  N61  1  0.10022658  0.77268726  0.03113583  1
  N  N62  1  0.88593317  0.87662885  0.84228730  1
  N  N63  1  0.77968911  0.76445459  0.59719147  1
  N  N64  1  0.57007274  0.87010058  0.35960242  1
  N  N65  1  0.42525632  0.75616021  0.03949262  1
  N  N66  1  0.23970159  0.84474518  0.80318161  1
  N  N67  1  0.12754875  0.75598928  0.57755264  1
  N  N68  1  0.90444655  0.85666441  0.39910779  1
  N  N69  1  0.79007352  0.75476002  0.03932193  1
  N  N70  1  0.55686747  0.86511201  0.81168861  1
  N  N71  1  0.43641025  0.79112679  0.57249507  1
