# generated using pymatgen
data_Gd2Al7N9
_symmetry_space_group_name_H-M   'P 1'
_cell_length_a   9.73083493
_cell_length_b   9.79386218
_cell_length_c   11.11445451
_cell_angle_alpha   90.05508732
_cell_angle_beta   89.78407053
_cell_angle_gamma   59.99535266
_symmetry_Int_Tables_number   1
_chemical_formula_structural   Gd2Al7N9
_chemical_formula_sum   'Gd8 Al28 N36'
_cell_volume   917.26982895
_cell_formula_units_Z   4
loop_
 _symmetry_equiv_pos_site_id
 _symmetry_equiv_pos_as_xyz
  1  'x, y, z'
loop_
 _atom_site_type_symbol
 _atom_site_label
 _atom_site_symmetry_multiplicity
 _atom_site_fract_x
 _atom_site_fract_y
 _atom_site_fract_z
 _atom_site_occupancy
  Al  Al0  1  0.12538991  0.08318560  0.40869915  1
  Al  Al1  1  0.78004868  0.09529798  0.79567699  1
  Al  Al2  1  0.89630068  0.20162198  0.57013250  1
  Al  Al3  1  0.44419223  0.09335564  0.40905923  1
  Al  Al4  1  0.21928696  0.21212330  0.62469368  1
  Al  Al5  1  0.86963504  0.20948121  0.04295744  1
  Al  Al6  1  0.45414927  0.09644656  0.79109658  1
  Al  Al7  1  0.55846218  0.21013774  0.57020765  1
  Al  Al8  1  0.12563886  0.42785042  0.41385333  1
  Al  Al9  1  0.78207180  0.41959052  0.80779068  1
  Al  Al10  1  0.89661255  0.53147813  0.58215406  1
  Al  Al11  1  0.43878497  0.43660370  0.31875690  1
  Al  Al12  1  0.54562822  0.53760785  0.04913314  1
  Al  Al13  1  0.11912881  0.42723251  0.86303370  1
  Al  Al14  1  0.21317163  0.54377830  0.64145874  1
  Al  Al15  1  0.88263078  0.53198380  0.01987406  1
  Al  Al16  1  0.44717372  0.42161973  0.80032419  1
  Al  Al17  1  0.12769751  0.75026051  0.40261517  1
  Al  Al18  1  0.21106910  0.87725734  0.12217985  1
  Al  Al19  1  0.77607019  0.76339778  0.85638342  1
  Al  Al20  1  0.89503763  0.87378469  0.57502937  1
  Al  Al21  1  0.43254926  0.77999837  0.39170017  1
  Al  Al22  1  0.12229127  0.75705014  0.86694722  1
  Al  Al23  1  0.22697260  0.87043140  0.63443186  1
  Al  Al24  1  0.77745052  0.75969099  0.41342897  1
  Al  Al25  1  0.88385372  0.88913713  0.02379634  1
  Al  Al26  1  0.44663909  0.75423612  0.87187785  1
  Al  Al27  1  0.55909512  0.86628110  0.62952921  1
  Gd  Gd28  1  0.19392033  0.21695296  0.16240449  1
  Gd  Gd29  1  0.53393934  0.21829723  0.04050758  1
  Gd  Gd30  1  0.13568135  0.08510003  0.87771572  1
  Gd  Gd31  1  0.78441959  0.08138036  0.30974616  1
  Gd  Gd32  1  0.17485044  0.57077683  0.13661147  1
  Gd  Gd33  1  0.78329833  0.43250058  0.30120340  1
  Gd  Gd34  1  0.55833951  0.53539237  0.57358916  1
  Gd  Gd35  1  0.57195994  0.84690965  0.14171288  1
  N  N36  1  0.22558663  0.20424676  0.37582032  1
  N  N37  1  0.08702867  0.09005247  0.08136212  1
  N  N38  1  0.86708792  0.21184333  0.86819703  1
  N  N39  1  0.78282342  0.09538385  0.62029993  1
  N  N40  1  0.53493293  0.22660028  0.39515026  1
  N  N41  1  0.42565495  0.08367854  0.08871694  1
  N  N42  1  0.23588935  0.22441756  0.79422782  1
  N  N43  1  0.12096317  0.08628840  0.58723387  1
  N  N44  1  0.90398071  0.20023609  0.39674538  1
  N  N45  1  0.78504183  0.08434690  0.10118065  1
  N  N46  1  0.56004122  0.20068646  0.83554746  1
  N  N47  1  0.45430469  0.08933047  0.59700854  1
  N  N48  1  0.21617640  0.54091565  0.34527141  1
  N  N49  1  0.10336627  0.41954182  0.03428470  1
  N  N50  1  0.88544127  0.53595712  0.84614571  1
  N  N51  1  0.81221760  0.40612147  0.63635923  1
  N  N52  1  0.53301777  0.55707770  0.37093964  1
  N  N53  1  0.44607152  0.44867658  0.14265585  1
  N  N54  1  0.21647316  0.54471809  0.81785008  1
  N  N55  1  0.11892241  0.43001312  0.58439990  1
  N  N56  1  0.89975167  0.54176017  0.39823088  1
  N  N57  1  0.77073264  0.43561082  0.08736866  1
  N  N58  1  0.55818439  0.52582430  0.86109603  1
  N  N59  1  0.43433566  0.41303904  0.63233400  1
  N  N60  1  0.21981822  0.87537296  0.32403774  1
  N  N61  1  0.10390641  0.79054483  0.03953375  1
  N  N62  1  0.88895264  0.87937175  0.84519603  1
  N  N63  1  0.77819006  0.75940997  0.59099477  1
  N  N64  1  0.56319742  0.87547689  0.35599847  1
  N  N65  1  0.42106438  0.76087270  0.04708742  1
  N  N66  1  0.24476428  0.83927530  0.80141298  1
  N  N67  1  0.12659755  0.75545187  0.57885882  1
  N  N68  1  0.90342020  0.85207699  0.39860578  1
  N  N69  1  0.80093781  0.75171778  0.03728913  1
  N  N70  1  0.55359645  0.86746053  0.80626417  1
  N  N71  1  0.42788172  0.79716658  0.56420821  1
