# generated using pymatgen
data_Gd2Al7N9
_symmetry_space_group_name_H-M   'P 1'
_cell_length_a   9.89988555
_cell_length_b   9.82487309
_cell_length_c   10.77910972
_cell_angle_alpha   89.64950909
_cell_angle_beta   89.38660272
_cell_angle_gamma   59.73241965
_symmetry_Int_Tables_number   1
_chemical_formula_structural   Gd2Al7N9
_chemical_formula_sum   'Gd8 Al28 N36'
_cell_volume   905.45794903
_cell_formula_units_Z   4
loop_
 _symmetry_equiv_pos_site_id
 _symmetry_equiv_pos_as_xyz
  1  'x, y, z'
loop_
 _atom_site_type_symbol
 _atom_site_label
 _atom_site_symmetry_multiplicity
 _atom_site_fract_x
 _atom_site_fract_y
 _atom_site_fract_z
 _atom_site_occupancy
  Al  Al0  1  0.12532808  0.08303656  0.39536601  1
  Al  Al1  1  0.77007294  0.09769969  0.79355272  1
  Al  Al2  1  0.89582805  0.20314837  0.56787952  1
  Al  Al3  1  0.44254626  0.10183022  0.33687122  1
  Al  Al4  1  0.23155520  0.20680968  0.56651051  1
  Al  Al5  1  0.87451512  0.20693182  0.03931524  1
  Al  Al6  1  0.44437811  0.10190934  0.79985839  1
  Al  Al7  1  0.54798585  0.20554332  0.56786175  1
  Al  Al8  1  0.10096406  0.43731807  0.33477942  1
  Al  Al9  1  0.77684071  0.42569207  0.81828988  1
  Al  Al10  1  0.90522034  0.52641665  0.58644954  1
  Al  Al11  1  0.44279536  0.43700964  0.31907447  1
  Al  Al12  1  0.54728457  0.53747835  0.04487997  1
  Al  Al13  1  0.12155590  0.42990438  0.81037819  1
  Al  Al14  1  0.22402894  0.53057254  0.57430091  1
  Al  Al15  1  0.88338252  0.53787653  0.04210292  1
  Al  Al16  1  0.43617737  0.42533401  0.80485273  1
  Al  Al17  1  0.12111141  0.75770302  0.39078981  1
  Al  Al18  1  0.20874127  0.87999616  0.11975452  1
  Al  Al19  1  0.77862737  0.76164642  0.85677111  1
  Al  Al20  1  0.89565145  0.87149184  0.57868545  1
  Al  Al21  1  0.43702662  0.77466601  0.39218721  1
  Al  Al22  1  0.12131457  0.75812002  0.86856270  1
  Al  Al23  1  0.23107751  0.86084148  0.62841766  1
  Al  Al24  1  0.77766037  0.75826643  0.41758942  1
  Al  Al25  1  0.88641818  0.88758346  0.02995026  1
  Al  Al26  1  0.43864623  0.76259491  0.87182009  1
  Al  Al27  1  0.55513312  0.87184634  0.63325730  1
  Gd  Gd28  1  0.20991559  0.21193853  0.08525285  1
  Gd  Gd29  1  0.55198003  0.20612316  0.05018598  1
  Gd  Gd30  1  0.10604316  0.10308235  0.82693661  1
  Gd  Gd31  1  0.78245597  0.08530399  0.31717234  1
  Gd  Gd32  1  0.20213301  0.54963911  0.09767412  1
  Gd  Gd33  1  0.79294994  0.43499302  0.29707216  1
  Gd  Gd34  1  0.56512254  0.53103377  0.58357422  1
  Gd  Gd35  1  0.57332233  0.83914157  0.14237083  1
  N  N36  1  0.22414925  0.20878278  0.38550001  1
  N  N37  1  0.09078086  0.08523209  0.05853502  1
  N  N38  1  0.84923876  0.21661626  0.86580973  1
  N  N39  1  0.77818832  0.09790747  0.61327579  1
  N  N40  1  0.53071163  0.22492897  0.39069386  1
  N  N41  1  0.44856527  0.09382980  0.16264948  1
  N  N42  1  0.24509923  0.22118872  0.87261289  1
  N  N43  1  0.12173783  0.08462030  0.58889001  1
  N  N44  1  0.90899798  0.20097842  0.39151962  1
  N  N45  1  0.79571033  0.08341790  0.10638804  1
  N  N46  1  0.55689124  0.20116914  0.83885950  1
  N  N47  1  0.44297293  0.09626890  0.62057170  1
  N  N48  1  0.22300532  0.53745141  0.35909560  1
  N  N49  1  0.04145638  0.45244666  0.16350986  1
  N  N50  1  0.90229305  0.52411974  0.86174148  1
  N  N51  1  0.81851686  0.40393827  0.64195100  1
  N  N52  1  0.54010093  0.55196999  0.37211470  1
  N  N53  1  0.45996010  0.44005154  0.14049418  1
  N  N54  1  0.22458586  0.53544824  0.86632529  1
  N  N55  1  0.12047273  0.42268767  0.62957074  1
  N  N56  1  0.90415198  0.53975869  0.41154640  1
  N  N57  1  0.76474501  0.43769252  0.07946355  1
  N  N58  1  0.55217861  0.53325610  0.85362958  1
  N  N59  1  0.42793634  0.41519165  0.62911250  1
  N  N60  1  0.22254103  0.87531973  0.31907422  1
  N  N61  1  0.09883114  0.79260755  0.04968038  1
  N  N62  1  0.89152689  0.87822165  0.84273570  1
  N  N63  1  0.77765198  0.76074352  0.60137790  1
  N  N64  1  0.56850595  0.86520308  0.35724424  1
  N  N65  1  0.41730530  0.76177296  0.04991084  1
  N  N66  1  0.23977098  0.84086212  0.80155105  1
  N  N67  1  0.12586612  0.75522939  0.57322258  1
  N  N68  1  0.90222484  0.84897872  0.39629760  1
  N  N69  1  0.79622271  0.75975984  0.03879990  1
  N  N70  1  0.55365793  0.86699065  0.81659762  1
  N  N71  1  0.43140678  0.79351671  0.56819795  1
