# generated using pymatgen
data_Gd2Al7N9
_symmetry_space_group_name_H-M   'P 1'
_cell_length_a   9.93389650
_cell_length_b   9.93921468
_cell_length_c   10.48910992
_cell_angle_alpha   90.46157707
_cell_angle_beta   89.92146738
_cell_angle_gamma   59.81214041
_symmetry_Int_Tables_number   1
_chemical_formula_structural   Gd2Al7N9
_chemical_formula_sum   'Gd8 Al28 N36'
_cell_volume   895.14439988
_cell_formula_units_Z   4
loop_
 _symmetry_equiv_pos_site_id
 _symmetry_equiv_pos_as_xyz
  1  'x, y, z'
loop_
 _atom_site_type_symbol
 _atom_site_label
 _atom_site_symmetry_multiplicity
 _atom_site_fract_x
 _atom_site_fract_y
 _atom_site_fract_z
 _atom_site_occupancy
  Al  Al0  1  0.12267810  0.08438163  0.42126326  1
  Al  Al1  1  0.77550122  0.09515077  0.82283883  1
  Al  Al2  1  0.89239217  0.20740010  0.63709191  1
  Al  Al3  1  0.44336547  0.09130914  0.42042869  1
  Al  Al4  1  0.22494938  0.21152350  0.63883418  1
  Al  Al5  1  0.89533969  0.19990820  0.15856951  1
  Al  Al6  1  0.44380532  0.09586748  0.88230804  1
  Al  Al7  1  0.54219971  0.20402966  0.65512262  1
  Al  Al8  1  0.11265544  0.43157394  0.41594687  1
  Al  Al9  1  0.78202481  0.43364220  0.82342118  1
  Al  Al10  1  0.89486751  0.54672500  0.64911982  1
  Al  Al11  1  0.42421342  0.42486027  0.41928564  1
  Al  Al12  1  0.56909919  0.53407714  0.06119575  1
  Al  Al13  1  0.11069013  0.43297661  0.88691841  1
  Al  Al14  1  0.21117358  0.53914341  0.65318326  1
  Al  Al15  1  0.89511475  0.54042823  0.14078874  1
  Al  Al16  1  0.43894659  0.42822321  0.88464101  1
  Al  Al17  1  0.12234766  0.74995242  0.40732188  1
  Al  Al18  1  0.21498871  0.87381573  0.15064727  1
  Al  Al19  1  0.78792523  0.76021764  0.89391705  1
  Al  Al20  1  0.89781176  0.85992558  0.64908267  1
  Al  Al21  1  0.43070259  0.77366250  0.41102346  1
  Al  Al22  1  0.11259937  0.76263910  0.89358270  1
  Al  Al23  1  0.21857349  0.87636158  0.64978661  1
  Al  Al24  1  0.79547627  0.75028872  0.40160896  1
  Al  Al25  1  0.90459991  0.86435248  0.15043796  1
  Al  Al26  1  0.44189579  0.76550974  0.89163695  1
  Al  Al27  1  0.55719507  0.87673942  0.64783633  1
  Gd  Gd28  1  0.21456225  0.21069637  0.16981548  1
  Gd  Gd29  1  0.55780912  0.20603893  0.13090007  1
  Gd  Gd30  1  0.11287395  0.09725121  0.88848620  1
  Gd  Gd31  1  0.77827696  0.08033897  0.39261960  1
  Gd  Gd32  1  0.21584913  0.55013360  0.14707080  1
  Gd  Gd33  1  0.76466218  0.44420193  0.36921491  1
  Gd  Gd34  1  0.53054454  0.55484393  0.63208958  1
  Gd  Gd35  1  0.56358609  0.85781534  0.14547151  1
  N  N36  1  0.22420800  0.20131805  0.39205281  1
  N  N37  1  0.10066227  0.08571988  0.10356168  1
  N  N38  1  0.86597003  0.21909171  0.82566489  1
  N  N39  1  0.77492630  0.09095981  0.62589153  1
  N  N40  1  0.51664659  0.21905938  0.34977980  1
  N  N41  1  0.43251620  0.08779852  0.05918103  1
  N  N42  1  0.23551011  0.22487972  0.82077640  1
  N  N43  1  0.11120674  0.09290388  0.60855719  1
  N  N44  1  0.91755787  0.19344387  0.37063916  1
  N  N45  1  0.80603283  0.07868586  0.15138602  1
  N  N46  1  0.55503512  0.20495874  0.84059224  1
  N  N47  1  0.45139135  0.08930571  0.60163320  1
  N  N48  1  0.21994119  0.53496219  0.36561143  1
  N  N49  1  0.09098162  0.43157550  0.06491893  1
  N  N50  1  0.89211242  0.54606058  0.83218061  1
  N  N51  1  0.79468080  0.42826548  0.62383290  1
  N  N52  1  0.50915796  0.55686141  0.40667064  1
  N  N53  1  0.45022819  0.44211924  0.06036296  1
  N  N54  1  0.21724594  0.54525363  0.83899519  1
  N  N55  1  0.10335327  0.43611430  0.59643075  1
  N  N56  1  0.91635708  0.54550887  0.32893768  1
  N  N57  1  0.77454433  0.43059767  0.13213461  1
  N  N58  1  0.56646653  0.54005935  0.86499113  1
  N  N59  1  0.41986549  0.40773845  0.60346416  1
  N  N60  1  0.22234837  0.87196654  0.34265659  1
  N  N61  1  0.10107762  0.78927139  0.07415593  1
  N  N62  1  0.89396829  0.86985731  0.83238780  1
  N  N63  1  0.78354013  0.76010959  0.58902074  1
  N  N64  1  0.56433428  0.86694061  0.36459664  1
  N  N65  1  0.42509619  0.75378901  0.07417753  1
  N  N66  1  0.23876979  0.84188864  0.82654620  1
  N  N67  1  0.11404887  0.76125165  0.59231155  1
  N  N68  1  0.91965591  0.82998096  0.33564481  1
  N  N69  1  0.81120161  0.74946468  0.07611433  1
  N  N70  1  0.56222732  0.86761461  0.83672029  1
  N  N71  1  0.42122011  0.80861429  0.58957736  1
