# generated using pymatgen
data_Sc2Al7N9
_symmetry_space_group_name_H-M   'P 1'
_cell_length_a   10.25395904
_cell_length_b   10.23400976
_cell_length_c   8.70942345
_cell_angle_alpha   89.97253969
_cell_angle_beta   89.94641560
_cell_angle_gamma   59.66169009
_symmetry_Int_Tables_number   1
_chemical_formula_structural   Sc2Al7N9
_chemical_formula_sum   'Sc8 Al28 N36'
_cell_volume   788.79947127
_cell_formula_units_Z   4
loop_
 _symmetry_equiv_pos_site_id
 _symmetry_equiv_pos_as_xyz
  1  'x, y, z'
loop_
 _atom_site_type_symbol
 _atom_site_label
 _atom_site_symmetry_multiplicity
 _atom_site_fract_x
 _atom_site_fract_y
 _atom_site_fract_z
 _atom_site_occupancy
  Al  Al0  1  0.10268226  0.09768906  0.34091800  1
  Al  Al1  1  0.20973242  0.20723728  0.09870272  1
  Al  Al2  1  0.78689832  0.09879524  0.84117333  1
  Al  Al3  1  0.89330434  0.20753114  0.59320605  1
  Al  Al4  1  0.10698496  0.09643890  0.84388688  1
  Al  Al5  1  0.20725412  0.20653902  0.59085734  1
  Al  Al6  1  0.78817649  0.09662872  0.34615536  1
  Al  Al7  1  0.89217281  0.20741141  0.09135712  1
  Al  Al8  1  0.10342833  0.42783824  0.34136540  1
  Al  Al9  1  0.22055193  0.53705408  0.10461859  1
  Al  Al10  1  0.77683544  0.42687715  0.84539888  1
  Al  Al11  1  0.88895187  0.53240075  0.58839527  1
  Al  Al12  1  0.44539729  0.43582604  0.34509518  1
  Al  Al13  1  0.55573483  0.54260072  0.09714128  1
  Al  Al14  1  0.10565837  0.42169182  0.85268630  1
  Al  Al15  1  0.77574809  0.42733474  0.34266197  1
  Al  Al16  1  0.88843706  0.53340658  0.10120656  1
  Al  Al17  1  0.44680792  0.43322251  0.85214281  1
  Al  Al18  1  0.55678317  0.54112874  0.59464124  1
  Al  Al19  1  0.11328729  0.76176497  0.34446206  1
  Al  Al20  1  0.22331498  0.87668473  0.10280510  1
  Al  Al21  1  0.89612125  0.87248457  0.58231644  1
  Al  Al22  1  0.44425398  0.75546169  0.34299700  1
  Al  Al23  1  0.55604889  0.86394937  0.10479927  1
  Al  Al24  1  0.21951040  0.87619977  0.58500734  1
  Al  Al25  1  0.78453020  0.75518481  0.34506351  1
  Al  Al26  1  0.89290777  0.87570572  0.10607375  1
  Al  Al27  1  0.44103848  0.75864375  0.85297700  1
  Sc  Sc28  1  0.43639023  0.09662235  0.34930971  1
  Sc  Sc29  1  0.56390046  0.20831351  0.10177069  1
  Sc  Sc30  1  0.43354739  0.09848598  0.85431739  1
  Sc  Sc31  1  0.56353545  0.20779309  0.60097755  1
  Sc  Sc32  1  0.21801907  0.53474476  0.59909223  1
  Sc  Sc33  1  0.78729500  0.75627213  0.85633862  1
  Sc  Sc34  1  0.11530834  0.76501150  0.85598062  1
  Sc  Sc35  1  0.55800475  0.86083546  0.59970544  1
  N  N36  1  0.19875728  0.21396769  0.35456433  1
  N  N37  1  0.10605703  0.09601246  0.11312089  1
  N  N38  1  0.88914126  0.20901078  0.85809905  1
  N  N39  1  0.80131668  0.08515814  0.60517352  1
  N  N40  1  0.56503300  0.21434749  0.35244420  1
  N  N41  1  0.43472129  0.08845859  0.10373269  1
  N  N42  1  0.19936174  0.21242871  0.86571994  1
  N  N43  1  0.11006606  0.09178483  0.60927369  1
  N  N44  1  0.88861700  0.21068545  0.36488788  1
  N  N45  1  0.80022008  0.08989554  0.11770500  1
  N  N46  1  0.56835492  0.21376056  0.85374839  1
  N  N47  1  0.42412303  0.10377781  0.60220414  1
  N  N48  1  0.22088667  0.53547645  0.34598788  1
  N  N49  1  0.10862394  0.42768203  0.11102762  1
  N  N50  1  0.89395853  0.52090897  0.86754196  1
  N  N51  1  0.77474969  0.43112613  0.60953435  1
  N  N52  1  0.55737553  0.53913593  0.35613084  1
  N  N53  1  0.43637285  0.44810594  0.10725193  1
  N  N54  1  0.22749396  0.51892980  0.86182683  1
  N  N55  1  0.09819632  0.41707871  0.60672842  1
  N  N56  1  0.88610434  0.53618597  0.35306009  1
  N  N57  1  0.77574448  0.42623885  0.11117560  1
  N  N58  1  0.55615588  0.54069067  0.86166686  1
  N  N59  1  0.45037920  0.44043428  0.60701162  1
  N  N60  1  0.22204921  0.87508195  0.35197150  1
  N  N61  1  0.11469966  0.76011487  0.11402389  1
  N  N62  1  0.88341923  0.89203069  0.87008717  1
  N  N63  1  0.80210393  0.74989985  0.59663317  1
  N  N64  1  0.56459188  0.85289341  0.34723907  1
  N  N65  1  0.44365015  0.75972705  0.11037962  1
  N  N66  1  0.22960181  0.88417971  0.86833620  1
  N  N67  1  0.10797564  0.77487518  0.59607130  1
  N  N68  1  0.89046778  0.87272864  0.35197287  1
  N  N69  1  0.78187560  0.75962948  0.11401126  1
  N  N70  1  0.55208800  0.85871681  0.85911599  1
  N  N71  1  0.43161832  0.75373986  0.60502303  1
