# generated using pymatgen
data_Sc2Al7N9
_symmetry_space_group_name_H-M   'P 1'
_cell_length_a   10.17238607
_cell_length_b   10.15608179
_cell_length_c   8.93893990
_cell_angle_alpha   89.95247939
_cell_angle_beta   89.97242602
_cell_angle_gamma   59.67097421
_symmetry_Int_Tables_number   1
_chemical_formula_structural   Sc2Al7N9
_chemical_formula_sum   'Sc8 Al28 N36'
_cell_volume   797.10596329
_cell_formula_units_Z   4
loop_
 _symmetry_equiv_pos_site_id
 _symmetry_equiv_pos_as_xyz
  1  'x, y, z'
loop_
 _atom_site_type_symbol
 _atom_site_label
 _atom_site_symmetry_multiplicity
 _atom_site_fract_x
 _atom_site_fract_y
 _atom_site_fract_z
 _atom_site_occupancy
  Al  Al0  1  0.10537551  0.09653911  0.36905039  1
  Al  Al1  1  0.21047788  0.20555080  0.11444845  1
  Al  Al2  1  0.78696239  0.10101606  0.87204293  1
  Al  Al3  1  0.89276981  0.20631854  0.61544337  1
  Al  Al4  1  0.10437479  0.09737326  0.87061152  1
  Al  Al5  1  0.20600705  0.20794196  0.62147075  1
  Al  Al6  1  0.78825841  0.09506497  0.36111021  1
  Al  Al7  1  0.89337158  0.20855884  0.12407341  1
  Al  Al8  1  0.10056885  0.42527696  0.35882812  1
  Al  Al9  1  0.21962437  0.53951491  0.11775236  1
  Al  Al10  1  0.77860346  0.42390647  0.86831540  1
  Al  Al11  1  0.89147004  0.52943949  0.61744378  1
  Al  Al12  1  0.44851973  0.43543341  0.36182722  1
  Al  Al13  1  0.55645208  0.54217260  0.11606940  1
  Al  Al14  1  0.10759773  0.42324850  0.87711561  1
  Al  Al15  1  0.77462256  0.43033073  0.37015677  1
  Al  Al16  1  0.88623578  0.53563194  0.11833655  1
  Al  Al17  1  0.44436201  0.43388283  0.87049444  1
  Al  Al18  1  0.55593665  0.54191492  0.62299328  1
  Al  Al19  1  0.11256375  0.76391728  0.35607010  1
  Al  Al20  1  0.22115795  0.87627180  0.12087977  1
  Al  Al21  1  0.89545431  0.87480389  0.60182282  1
  Al  Al22  1  0.44275309  0.75368550  0.36053021  1
  Al  Al23  1  0.55626991  0.86493209  0.11533218  1
  Al  Al24  1  0.22176406  0.87664295  0.61258590  1
  Al  Al25  1  0.78620022  0.75358026  0.35458570  1
  Al  Al26  1  0.89396209  0.87249486  0.11971158  1
  Al  Al27  1  0.44181611  0.76013916  0.87564707  1
  Sc  Sc28  1  0.43394770  0.09854934  0.35281566  1
  Sc  Sc29  1  0.56107673  0.20939001  0.10638744  1
  Sc  Sc30  1  0.43593033  0.09728897  0.85585106  1
  Sc  Sc31  1  0.56595796  0.20725209  0.60472444  1
  Sc  Sc32  1  0.21870335  0.53287515  0.59915332  1
  Sc  Sc33  1  0.78554141  0.75746284  0.85788331  1
  Sc  Sc34  1  0.11622253  0.76256200  0.85725492  1
  Sc  Sc35  1  0.55754085  0.86055762  0.59969601  1
  N  N36  1  0.19810324  0.21271702  0.32995375  1
  N  N37  1  0.10708469  0.09369660  0.08758282  1
  N  N38  1  0.88918560  0.20858099  0.83431800  1
  N  N39  1  0.80157899  0.08703166  0.58032677  1
  N  N40  1  0.56537412  0.21343672  0.34851671  1
  N  N41  1  0.43462619  0.08769127  0.10144208  1
  N  N42  1  0.19806831  0.21422768  0.84359004  1
  N  N43  1  0.10941842  0.09376957  0.58582819  1
  N  N44  1  0.88893276  0.21141527  0.34000965  1
  N  N45  1  0.80141871  0.08773580  0.09665473  1
  N  N46  1  0.56831889  0.21537519  0.85350398  1
  N  N47  1  0.42345843  0.10517301  0.60063306  1
  N  N48  1  0.22087787  0.53581980  0.34131596  1
  N  N49  1  0.10760498  0.42906929  0.09569737  1
  N  N50  1  0.89655488  0.51926595  0.84013817  1
  N  N51  1  0.77363088  0.43078843  0.58905661  1
  N  N52  1  0.55937357  0.53816301  0.33145764  1
  N  N53  1  0.43422619  0.45001181  0.09235371  1
  N  N54  1  0.22807311  0.51745750  0.84817633  1
  N  N55  1  0.09846433  0.41494910  0.57767289  1
  N  N56  1  0.88412618  0.53666300  0.33490971  1
  N  N57  1  0.77690541  0.42661081  0.08601785  1
  N  N58  1  0.55425291  0.54190144  0.84295497  1
  N  N59  1  0.45266257  0.44022850  0.58390670  1
  N  N60  1  0.22077855  0.87604154  0.33778974  1
  N  N61  1  0.11363795  0.76083847  0.10556184  1
  N  N62  1  0.88283144  0.89330290  0.84097232  1
  N  N63  1  0.80301720  0.74797124  0.59003551  1
  N  N64  1  0.56451086  0.85268129  0.34331619  1
  N  N65  1  0.44178649  0.76172555  0.09517784  1
  N  N66  1  0.23118056  0.88380320  0.83769151  1
  N  N67  1  0.10944842  0.77439368  0.58937099  1
  N  N68  1  0.89062804  0.87185734  0.34236972  1
  N  N69  1  0.78102282  0.76099474  0.10564540  1
  N  N70  1  0.55147311  0.85887286  0.84795229  1
  N  N71  1  0.43341617  0.75092531  0.57968286  1
