# generated using pymatgen
data_Sc2Al7N9
_symmetry_space_group_name_H-M   'P 1'
_cell_length_a   9.77287556
_cell_length_b   9.75144414
_cell_length_c   10.08958337
_cell_angle_alpha   90.04398924
_cell_angle_beta   89.95975783
_cell_angle_gamma   59.76783136
_symmetry_Int_Tables_number   1
_chemical_formula_structural   Sc2Al7N9
_chemical_formula_sum   'Sc8 Al28 N36'
_cell_volume   830.75681213
_cell_formula_units_Z   4
loop_
 _symmetry_equiv_pos_site_id
 _symmetry_equiv_pos_as_xyz
  1  'x, y, z'
loop_
 _atom_site_type_symbol
 _atom_site_label
 _atom_site_symmetry_multiplicity
 _atom_site_fract_x
 _atom_site_fract_y
 _atom_site_fract_z
 _atom_site_occupancy
  Al  Al0  1  0.10340187  0.09772804  0.32058432  1
  Al  Al1  1  0.21061151  0.20746438  0.06935348  1
  Al  Al2  1  0.78609767  0.09886016  0.81911223  1
  Al  Al3  1  0.89365208  0.20564875  0.57150135  1
  Al  Al4  1  0.10666594  0.09729722  0.82012264  1
  Al  Al5  1  0.20661178  0.20794708  0.56914060  1
  Al  Al6  1  0.78843819  0.09429589  0.31940755  1
  Al  Al7  1  0.89445150  0.20562308  0.06939390  1
  Al  Al8  1  0.10417240  0.43027381  0.31703766  1
  Al  Al9  1  0.22121763  0.53637730  0.07169053  1
  Al  Al10  1  0.77700018  0.42531865  0.82123823  1
  Al  Al11  1  0.88936559  0.53367378  0.56694109  1
  Al  Al12  1  0.44236722  0.43839674  0.31487910  1
  Al  Al13  1  0.55500163  0.54407987  0.06987982  1
  Al  Al14  1  0.10436569  0.41974737  0.82336918  1
  Al  Al15  1  0.77594551  0.42754664  0.32155670  1
  Al  Al16  1  0.88978450  0.53209722  0.07410689  1
  Al  Al17  1  0.44980280  0.43024022  0.82284298  1
  Al  Al18  1  0.55533197  0.54102035  0.57061814  1
  Al  Al19  1  0.11279781  0.76084877  0.31450448  1
  Al  Al20  1  0.22473258  0.87682848  0.07433220  1
  Al  Al21  1  0.89683627  0.87160949  0.56381815  1
  Al  Al22  1  0.44531146  0.75586455  0.31721889  1
  Al  Al23  1  0.55365110  0.86492649  0.06867519  1
  Al  Al24  1  0.21880792  0.87521748  0.56689122  1
  Al  Al25  1  0.78197458  0.75618085  0.31552129  1
  Al  Al26  1  0.89322958  0.87509979  0.07652639  1
  Al  Al27  1  0.44087200  0.75734825  0.82197901  1
  Sc  Sc28  1  0.43630427  0.09512827  0.32160978  1
  Sc  Sc29  1  0.56386480  0.20833569  0.07920932  1
  Sc  Sc30  1  0.43519911  0.10118710  0.83197025  1
  Sc  Sc31  1  0.56385771  0.20811502  0.57253475  1
  Sc  Sc32  1  0.21682319  0.53754772  0.57545642  1
  Sc  Sc33  1  0.78722566  0.75489127  0.83201942  1
  Sc  Sc34  1  0.11533957  0.76441968  0.83166029  1
  Sc  Sc35  1  0.55923583  0.86250302  0.57539529  1
  N  N36  1  0.19610784  0.21778636  0.37996653  1
  N  N37  1  0.10917730  0.09609793  0.13154642  1
  N  N38  1  0.88950101  0.20784177  0.87811879  1
  N  N39  1  0.80188333  0.08382913  0.62932701  1
  N  N40  1  0.56446217  0.21531866  0.35517902  1
  N  N41  1  0.43396843  0.08794731  0.10665939  1
  N  N42  1  0.19790934  0.21259592  0.88355473  1
  N  N43  1  0.11016346  0.09218099  0.62841542  1
  N  N44  1  0.88798642  0.20810718  0.38141831  1
  N  N45  1  0.80402426  0.08668158  0.13413778  1
  N  N46  1  0.56984678  0.21389741  0.86566432  1
  N  N47  1  0.42392473  0.10614489  0.61440715  1
  N  N48  1  0.22017234  0.53821962  0.36373063  1
  N  N49  1  0.11002338  0.42687021  0.12822863  1
  N  N50  1  0.89447071  0.51766116  0.88727611  1
  N  N51  1  0.77499857  0.43025629  0.62746866  1
  N  N52  1  0.55496199  0.53993496  0.37898699  1
  N  N53  1  0.43466587  0.45157698  0.12747718  1
  N  N54  1  0.23012981  0.51478819  0.87790318  1
  N  N55  1  0.09644328  0.41687082  0.63430474  1
  N  N56  1  0.88710876  0.53844142  0.37427168  1
  N  N57  1  0.77562382  0.42678981  0.13047483  1
  N  N58  1  0.55609218  0.54005321  0.88038749  1
  N  N59  1  0.45110529  0.44001587  0.63564618  1
  N  N60  1  0.22233677  0.87321937  0.37329570  1
  N  N61  1  0.11475502  0.75992402  0.12034798  1
  N  N62  1  0.88111656  0.89479701  0.89122069  1
  N  N63  1  0.80362840  0.75002808  0.62085934  1
  N  N64  1  0.56562365  0.85201335  0.36636901  1
  N  N65  1  0.44437290  0.76020516  0.12834816  1
  N  N66  1  0.23085287  0.88562900  0.88631397  1
  N  N67  1  0.10594032  0.77715343  0.62146230  1
  N  N68  1  0.89040841  0.87127282  0.37096716  1
  N  N69  1  0.78012445  0.75979673  0.12081928  1
  N  N70  1  0.55001306  0.85862354  0.87707929  1
  N  N71  1  0.43095355  0.75359454  0.63244820  1
