# generated using pymatgen
data_Sc2Al7N9
_symmetry_space_group_name_H-M   'P 1'
_cell_length_a   10.27177307
_cell_length_b   10.25337548
_cell_length_c   8.65594753
_cell_angle_alpha   89.94931293
_cell_angle_beta   89.93598909
_cell_angle_gamma   59.66635007
_symmetry_Int_Tables_number   1
_chemical_formula_structural   Sc2Al7N9
_chemical_formula_sum   'Sc8 Al28 N36'
_cell_volume   786.84148891
_cell_formula_units_Z   4
loop_
 _symmetry_equiv_pos_site_id
 _symmetry_equiv_pos_as_xyz
  1  'x, y, z'
loop_
 _atom_site_type_symbol
 _atom_site_label
 _atom_site_symmetry_multiplicity
 _atom_site_fract_x
 _atom_site_fract_y
 _atom_site_fract_z
 _atom_site_occupancy
  Al  Al0  1  0.10477640  0.09650323  0.35423805  1
  Al  Al1  1  0.21036758  0.20659382  0.10744180  1
  Al  Al2  1  0.78676287  0.09977163  0.85117821  1
  Al  Al3  1  0.89316036  0.20724877  0.60256783  1
  Al  Al4  1  0.10535182  0.09716996  0.85932469  1
  Al  Al5  1  0.20713715  0.20691247  0.60660756  1
  Al  Al6  1  0.78788402  0.09567216  0.35054856  1
  Al  Al7  1  0.89209754  0.20807854  0.10929056  1
  Al  Al8  1  0.10225830  0.42676202  0.35057297  1
  Al  Al9  1  0.22056141  0.53771142  0.10815077  1
  Al  Al10  1  0.77767250  0.42526596  0.85901185  1
  Al  Al11  1  0.88986858  0.53132891  0.60308530  1
  Al  Al12  1  0.44628775  0.43583794  0.35238419  1
  Al  Al13  1  0.55583553  0.54228131  0.10824176  1
  Al  Al14  1  0.10668475  0.42265787  0.86644092  1
  Al  Al15  1  0.77496204  0.42940547  0.35660065  1
  Al  Al16  1  0.88732921  0.53479303  0.10944409  1
  Al  Al17  1  0.44591300  0.43348111  0.85977971  1
  Al  Al18  1  0.55660135  0.54138175  0.61000169  1
  Al  Al19  1  0.11321258  0.76247850  0.34741375  1
  Al  Al20  1  0.22252777  0.87609481  0.10972764  1
  Al  Al21  1  0.89587765  0.87301417  0.58617353  1
  Al  Al22  1  0.44340857  0.75493386  0.35135460  1
  Al  Al23  1  0.55616933  0.86425969  0.10740202  1
  Al  Al24  1  0.22032060  0.87628891  0.59637670  1
  Al  Al25  1  0.78513538  0.75449526  0.34793118  1
  Al  Al26  1  0.89314250  0.87481881  0.10801163  1
  Al  Al27  1  0.44178000  0.75913270  0.86506392  1
  Sc  Sc28  1  0.43533598  0.09722329  0.35060813  1
  Sc  Sc29  1  0.56279732  0.20874271  0.10319633  1
  Sc  Sc30  1  0.43453361  0.09795065  0.85470870  1
  Sc  Sc31  1  0.56439107  0.20762095  0.60187301  1
  Sc  Sc32  1  0.21823713  0.53398223  0.59882448  1
  Sc  Sc33  1  0.78676614  0.75692587  0.85635347  1
  Sc  Sc34  1  0.11545712  0.76428607  0.85565530  1
  Sc  Sc35  1  0.55777442  0.86049819  0.59938221  1
  N  N36  1  0.19949260  0.21311988  0.34270428  1
  N  N37  1  0.10690756  0.09480202  0.10122163  1
  N  N38  1  0.88927672  0.20904851  0.84763896  1
  N  N39  1  0.80107672  0.08581013  0.59748295  1
  N  N40  1  0.56496958  0.21392450  0.35129145  1
  N  N41  1  0.43461369  0.08855960  0.10246718  1
  N  N42  1  0.19913721  0.21326571  0.85341969  1
  N  N43  1  0.10954980  0.09269465  0.59632423  1
  N  N44  1  0.88856812  0.21090388  0.35226506  1
  N  N45  1  0.79965461  0.08937769  0.11006211  1
  N  N46  1  0.56799301  0.21448406  0.85323488  1
  N  N47  1  0.42449647  0.10361814  0.60179078  1
  N  N48  1  0.22101344  0.53538604  0.34268039  1
  N  N49  1  0.10764617  0.42810512  0.10337573  1
  N  N50  1  0.89488740  0.52088035  0.85309967  1
  N  N51  1  0.77427091  0.43065415  0.59813129  1
  N  N52  1  0.55789281  0.53876764  0.34358560  1
  N  N53  1  0.43611733  0.44822541  0.10045376  1
  N  N54  1  0.22740883  0.51907417  0.85875077  1
  N  N55  1  0.09913205  0.41682005  0.59129757  1
  N  N56  1  0.88523064  0.53659520  0.34531879  1
  N  N57  1  0.77608145  0.42710609  0.09894997  1
  N  N58  1  0.55552991  0.54126340  0.85142418  1
  N  N59  1  0.45065794  0.44039854  0.59700804  1
  N  N60  1  0.22160955  0.87516247  0.34652250  1
  N  N61  1  0.11434417  0.76058181  0.11197172  1
  N  N62  1  0.88369250  0.89158751  0.86275674  1
  N  N63  1  0.80172812  0.74972709  0.59359050  1
  N  N64  1  0.56432698  0.85300604  0.34438073  1
  N  N65  1  0.44255925  0.76042156  0.10331167  1
  N  N66  1  0.23008493  0.88353586  0.85465765  1
  N  N67  1  0.10841470  0.77422706  0.59309583  1
  N  N68  1  0.89048855  0.87261898  0.34942033  1
  N  N69  1  0.78205846  0.75982998  0.11181883  1
  N  N70  1  0.55223729  0.85877114  0.85725853  1
  N  N71  1  0.43297713  0.75275116  0.59235956  1
