# generated using pymatgen
data_Sc2Al7N9
_symmetry_space_group_name_H-M   'P 1'
_cell_length_a   9.84921220
_cell_length_b   9.82478175
_cell_length_c   9.88271534
_cell_angle_alpha   90.00827045
_cell_angle_beta   90.05177127
_cell_angle_gamma   59.72801238
_symmetry_Int_Tables_number   1
_chemical_formula_structural   Sc2Al7N9
_chemical_formula_sum   'Sc8 Al28 N36'
_cell_volume   825.91299432
_cell_formula_units_Z   4
loop_
 _symmetry_equiv_pos_site_id
 _symmetry_equiv_pos_as_xyz
  1  'x, y, z'
loop_
 _atom_site_type_symbol
 _atom_site_label
 _atom_site_symmetry_multiplicity
 _atom_site_fract_x
 _atom_site_fract_y
 _atom_site_fract_z
 _atom_site_occupancy
  Al  Al0  1  0.10441458  0.09673993  0.38070743  1
  Al  Al1  1  0.20986587  0.20714628  0.12948398  1
  Al  Al2  1  0.78878513  0.09801963  0.88377468  1
  Al  Al3  1  0.89302704  0.20649942  0.62871953  1
  Al  Al4  1  0.10499884  0.09779751  0.88018482  1
  Al  Al5  1  0.20622173  0.20791045  0.63159064  1
  Al  Al6  1  0.78703370  0.09549156  0.37752655  1
  Al  Al7  1  0.89477107  0.20555547  0.13166193  1
  Al  Al8  1  0.09884418  0.42561278  0.37645008  1
  Al  Al9  1  0.21801200  0.54240877  0.13765882  1
  Al  Al10  1  0.77778309  0.42440443  0.87959719  1
  Al  Al11  1  0.89124028  0.52879596  0.62926364  1
  Al  Al12  1  0.45197554  0.43231469  0.37647564  1
  Al  Al13  1  0.55469645  0.54436121  0.12870885  1
  Al  Al14  1  0.10853399  0.42316306  0.88273425  1
  Al  Al15  1  0.77554467  0.42906026  0.37960614  1
  Al  Al16  1  0.88685329  0.53807039  0.13141175  1
  Al  Al17  1  0.44225461  0.43544529  0.88439950  1
  Al  Al18  1  0.55619378  0.54099505  0.63205149  1
  Al  Al19  1  0.11038294  0.76742967  0.38009883  1
  Al  Al20  1  0.22129683  0.87420678  0.13165361  1
  Al  Al21  1  0.89545869  0.87706898  0.62342286  1
  Al  Al22  1  0.44103692  0.75310848  0.37778991  1
  Al  Al23  1  0.55768416  0.86298365  0.13974681  1
  Al  Al24  1  0.22150773  0.87754652  0.62823344  1
  Al  Al25  1  0.78958376  0.75253374  0.37930986  1
  Al  Al26  1  0.89466045  0.86985578  0.13649167  1
  Al  Al27  1  0.44354354  0.75992873  0.88294159  1
  Sc  Sc28  1  0.43508112  0.10218011  0.36381549  1
  Sc  Sc29  1  0.56215334  0.20894395  0.11459686  1
  Sc  Sc30  1  0.43547222  0.09480908  0.87302636  1
  Sc  Sc31  1  0.56614018  0.20716561  0.62698126  1
  Sc  Sc32  1  0.21992765  0.53240386  0.60841366  1
  Sc  Sc33  1  0.78127051  0.75859511  0.87212047  1
  Sc  Sc34  1  0.11657482  0.75926905  0.87212723  1
  Sc  Sc35  1  0.55669654  0.86394209  0.60795130  1
  N  N36  1  0.19459625  0.21546371  0.31883518  1
  N  N37  1  0.10950899  0.09342302  0.07357601  1
  N  N38  1  0.88857833  0.20816323  0.82308976  1
  N  N39  1  0.80107043  0.08848131  0.56754361  1
  N  N40  1  0.56846165  0.21391578  0.33371171  1
  N  N41  1  0.43448021  0.08513147  0.09928006  1
  N  N42  1  0.19771893  0.21418306  0.82490486  1
  N  N43  1  0.10915805  0.09394517  0.57347521  1
  N  N44  1  0.88887820  0.20903642  0.32422424  1
  N  N45  1  0.80629618  0.08176609  0.07588933  1
  N  N46  1  0.56728440  0.21462814  0.85268255  1
  N  N47  1  0.42228947  0.11042726  0.58695868  1
  N  N48  1  0.22035255  0.53678617  0.33756832  1
  N  N49  1  0.10886607  0.43002460  0.07861618  1
  N  N50  1  0.89626486  0.51887733  0.82266337  1
  N  N51  1  0.77402349  0.42999244  0.57473021  1
  N  N52  1  0.55818092  0.53926490  0.32024552  1
  N  N53  1  0.42994803  0.45478786  0.07745525  1
  N  N54  1  0.23077409  0.51438644  0.82519891  1
  N  N55  1  0.09629433  0.41369007  0.56603885  1
  N  N56  1  0.88481787  0.53796466  0.32335546  1
  N  N57  1  0.77687429  0.42754708  0.07454434  1
  N  N58  1  0.55399359  0.54062769  0.82749677  1
  N  N59  1  0.45727366  0.43696373  0.56658508  1
  N  N60  1  0.22096403  0.87524309  0.32472063  1
  N  N61  1  0.11209715  0.75996672  0.08905913  1
  N  N62  1  0.88144994  0.89373312  0.81481767  1
  N  N63  1  0.80649267  0.74702946  0.57608728  1
  N  N64  1  0.56598427  0.85087573  0.33990234  1
  N  N65  1  0.44348494  0.76298884  0.07873279  1
  N  N66  1  0.23119402  0.88338400  0.82266677  1
  N  N67  1  0.10835270  0.77763997  0.57607208  1
  N  N68  1  0.89028896  0.87250108  0.32910880  1
  N  N69  1  0.77803943  0.76274291  0.08976732  1
  N  N70  1  0.54920496  0.85923164  0.82158836  1
  N  N71  1  0.43144653  0.75013236  0.56825121  1
