# generated using pymatgen
data_Sc2Al7N9
_symmetry_space_group_name_H-M   'P 1'
_cell_length_a   9.95350477
_cell_length_b   9.93405196
_cell_length_c   9.58767802
_cell_angle_alpha   90.00883563
_cell_angle_beta   89.94945124
_cell_angle_gamma   59.67939200
_symmetry_Int_Tables_number   1
_chemical_formula_structural   Sc2Al7N9
_chemical_formula_sum   'Sc8 Al28 N36'
_cell_volume   818.34062733
_cell_formula_units_Z   4
loop_
 _symmetry_equiv_pos_site_id
 _symmetry_equiv_pos_as_xyz
  1  'x, y, z'
loop_
 _atom_site_type_symbol
 _atom_site_label
 _atom_site_symmetry_multiplicity
 _atom_site_fract_x
 _atom_site_fract_y
 _atom_site_fract_z
 _atom_site_occupancy
  Al  Al0  1  0.10205233  0.09827891  0.32679369  1
  Al  Al1  1  0.20973836  0.20750602  0.07996200  1
  Al  Al2  1  0.78707396  0.09868937  0.82444967  1
  Al  Al3  1  0.89391555  0.20657417  0.57896762  1
  Al  Al4  1  0.10727202  0.09685470  0.82622586  1
  Al  Al5  1  0.20555347  0.20742297  0.57398292  1
  Al  Al6  1  0.78855091  0.09612892  0.33049483  1
  Al  Al7  1  0.89323038  0.20658611  0.07447907  1
  Al  Al8  1  0.10499163  0.43043459  0.32531875  1
  Al  Al9  1  0.22141518  0.53466528  0.07812474  1
  Al  Al10  1  0.77660269  0.42663306  0.82680167  1
  Al  Al11  1  0.88886934  0.53466428  0.57234836  1
  Al  Al12  1  0.44175951  0.43865100  0.32466988  1
  Al  Al13  1  0.55519524  0.54374160  0.07764529  1
  Al  Al14  1  0.10299568  0.41875819  0.82904529  1
  Al  Al15  1  0.77593308  0.42707442  0.32823387  1
  Al  Al16  1  0.89023687  0.52987772  0.08331047  1
  Al  Al17  1  0.45017264  0.43128997  0.83034919  1
  Al  Al18  1  0.55575317  0.54140390  0.57537943  1
  Al  Al19  1  0.11447906  0.75862654  0.32197118  1
  Al  Al20  1  0.22552534  0.87784900  0.08429147  1
  Al  Al21  1  0.89828757  0.86991589  0.56990274  1
  Al  Al22  1  0.44660740  0.75590695  0.32609937  1
  Al  Al23  1  0.55267790  0.86504058  0.07684927  1
  Al  Al24  1  0.21813044  0.87501349  0.57169529  1
  Al  Al25  1  0.78141994  0.75599935  0.32302869  1
  Al  Al26  1  0.89225367  0.87775987  0.08795737  1
  Al  Al27  1  0.43915166  0.75697172  0.82766022  1
  Sc  Sc28  1  0.43785912  0.09388190  0.34033820  1
  Sc  Sc29  1  0.56397063  0.20818368  0.09268279  1
  Sc  Sc30  1  0.43323690  0.10178468  0.84517560  1
  Sc  Sc31  1  0.56345023  0.20816037  0.58927658  1
  Sc  Sc32  1  0.21602314  0.53830185  0.59180986  1
  Sc  Sc33  1  0.78960980  0.75441740  0.84766762  1
  Sc  Sc34  1  0.11429575  0.76711004  0.84671947  1
  Sc  Sc35  1  0.56118697  0.86052327  0.59349793  1
  N  N36  1  0.19580106  0.21696042  0.37504612  1
  N  N37  1  0.10689373  0.09683368  0.13017149  1
  N  N38  1  0.88906602  0.20872276  0.87469384  1
  N  N39  1  0.80343331  0.08300674  0.62435271  1
  N  N40  1  0.56471726  0.21571159  0.35652213  1
  N  N41  1  0.43436144  0.08726005  0.10709920  1
  N  N42  1  0.19710296  0.21268036  0.88346655  1
  N  N43  1  0.11056139  0.09145307  0.62629006  1
  N  N44  1  0.88843763  0.20963029  0.38142904  1
  N  N45  1  0.80308341  0.08932764  0.13492841  1
  N  N46  1  0.56954797  0.21361810  0.86129776  1
  N  N47  1  0.42276009  0.10558926  0.60892083  1
  N  N48  1  0.22011214  0.53788906  0.36656095  1
  N  N49  1  0.11033853  0.42739883  0.12771863  1
  N  N50  1  0.89461304  0.51646366  0.88703250  1
  N  N51  1  0.77454015  0.43185502  0.62546625  1
  N  N52  1  0.55566560  0.53963791  0.37621990  1
  N  N53  1  0.43413812  0.45128502  0.12559445  1
  N  N54  1  0.22882158  0.51506126  0.87179074  1
  N  N55  1  0.09567366  0.41551640  0.63048965  1
  N  N56  1  0.88684394  0.53830379  0.37072104  1
  N  N57  1  0.77530701  0.42594818  0.12947867  1
  N  N58  1  0.55625779  0.54049381  0.87973196  1
  N  N59  1  0.45172444  0.44140774  0.63244429  1
  N  N60  1  0.22185388  0.87306030  0.36936098  1
  N  N61  1  0.11572928  0.75864134  0.11717925  1
  N  N62  1  0.88037068  0.89714725  0.89194114  1
  N  N63  1  0.80684526  0.74852125  0.62257655  1
  N  N64  1  0.56710620  0.85039238  0.36938247  1
  N  N65  1  0.44518680  0.75988036  0.12800986  1
  N  N66  1  0.23137543  0.88678393  0.88677149  1
  N  N67  1  0.10602181  0.77836852  0.62266995  1
  N  N68  1  0.89147105  0.86999788  0.36681533  1
  N  N69  1  0.77942705  0.75975196  0.11754528  1
  N  N70  1  0.55010563  0.85828586  0.86856543  1
  N  N71  1  0.42973318  0.75314207  0.62855590  1
