# generated using pymatgen
data_Sc2Al7N9
_symmetry_space_group_name_H-M   'P 1'
_cell_length_a   10.04486976
_cell_length_b   10.02656611
_cell_length_c   9.31788924
_cell_angle_alpha   89.97986057
_cell_angle_beta   90.00585794
_cell_angle_gamma   59.68096959
_symmetry_Int_Tables_number   1
_chemical_formula_structural   Sc2Al7N9
_chemical_formula_sum   'Sc8 Al28 N36'
_cell_volume   810.10163447
_cell_formula_units_Z   4
loop_
 _symmetry_equiv_pos_site_id
 _symmetry_equiv_pos_as_xyz
  1  'x, y, z'
loop_
 _atom_site_type_symbol
 _atom_site_label
 _atom_site_symmetry_multiplicity
 _atom_site_fract_x
 _atom_site_fract_y
 _atom_site_fract_z
 _atom_site_occupancy
  Al  Al0  1  0.10476955  0.09676175  0.37550377  1
  Al  Al1  1  0.21037563  0.20574900  0.12070091  1
  Al  Al2  1  0.78777519  0.09997364  0.87910572  1
  Al  Al3  1  0.89280612  0.20640428  0.62303962  1
  Al  Al4  1  0.10462098  0.09741818  0.87598459  1
  Al  Al5  1  0.20525131  0.20833016  0.62803624  1
  Al  Al6  1  0.78860038  0.09481334  0.36934578  1
  Al  Al7  1  0.89407576  0.20730235  0.12815699  1
  Al  Al8  1  0.09909999  0.42477980  0.36722863  1
  Al  Al9  1  0.21831548  0.54171801  0.12934625  1
  Al  Al10  1  0.77839405  0.42395400  0.87433395  1
  Al  Al11  1  0.89191149  0.52820822  0.62483646  1
  Al  Al12  1  0.45055939  0.43443890  0.36919608  1
  Al  Al13  1  0.55591546  0.54303688  0.12199443  1
  Al  Al14  1  0.10836087  0.42354521  0.88117864  1
  Al  Al15  1  0.77497848  0.42981744  0.37563035  1
  Al  Al16  1  0.88598396  0.53733459  0.12450983  1
  Al  Al17  1  0.44288397  0.43464843  0.87785145  1
  Al  Al18  1  0.55577828  0.54179207  0.62890677  1
  Al  Al19  1  0.11119735  0.76623878  0.37061044  1
  Al  Al20  1  0.22054256  0.87528880  0.12642378  1
  Al  Al21  1  0.89506263  0.87709899  0.61669971  1
  Al  Al22  1  0.44178005  0.75289774  0.36890132  1
  Al  Al23  1  0.55748058  0.86407798  0.12777136  1
  Al  Al24  1  0.22219064  0.87729220  0.62176104  1
  Al  Al25  1  0.78844302  0.75259966  0.36870568  1
  Al  Al26  1  0.89472602  0.87051454  0.12978749  1
  Al  Al27  1  0.44254692  0.76063419  0.88036929  1
  Sc  Sc28  1  0.43374536  0.10008975  0.35615192  1
  Sc  Sc29  1  0.56137411  0.20895558  0.10892076  1
  Sc  Sc30  1  0.43644754  0.09651137  0.85892877  1
  Sc  Sc31  1  0.56626898  0.20737721  0.61017377  1
  Sc  Sc32  1  0.21931500  0.53193488  0.60162769  1
  Sc  Sc33  1  0.78363425  0.75812555  0.86194764  1
  Sc  Sc34  1  0.11685342  0.76053207  0.86166864  1
  Sc  Sc35  1  0.55681604  0.86160335  0.60179666  1
  N  N36  1  0.19627969  0.21356275  0.32353108  1
  N  N37  1  0.10797328  0.09320693  0.08043509  1
  N  N38  1  0.88899763  0.20837373  0.82886613  1
  N  N39  1  0.80244745  0.08778305  0.57269658  1
  N  N40  1  0.56665677  0.21310634  0.34444131  1
  N  N41  1  0.43489638  0.08623260  0.10088480  1
  N  N42  1  0.19735210  0.21462049  0.83570048  1
  N  N43  1  0.10920561  0.09400360  0.57984771  1
  N  N44  1  0.88892432  0.21065349  0.33177038  1
  N  N45  1  0.80376283  0.08461569  0.08638642  1
  N  N46  1  0.56833281  0.21568725  0.85295602  1
  N  N47  1  0.42245899  0.10734377  0.59730230  1
  N  N48  1  0.22014782  0.53681734  0.34105546  1
  N  N49  1  0.10830966  0.42994232  0.08800481  1
  N  N50  1  0.89701259  0.51833942  0.83181673  1
  N  N51  1  0.77362807  0.43046912  0.58222466  1
  N  N52  1  0.55943014  0.53840941  0.32509989  1
  N  N53  1  0.43185123  0.45218694  0.08568948  1
  N  N54  1  0.22942862  0.51535342  0.83504704  1
  N  N55  1  0.09714734  0.41372850  0.57096789  1
  N  N56  1  0.88392779  0.53733900  0.32854941  1
  N  N57  1  0.77702610  0.42691721  0.07994388  1
  N  N58  1  0.55371963  0.54172369  0.83602181  1
  N  N59  1  0.45462902  0.43977573  0.57457348  1
  N  N60  1  0.22038716  0.87581563  0.33104144  1
  N  N61  1  0.11276430  0.76037979  0.09549036  1
  N  N62  1  0.88188590  0.89469929  0.82436709  1
  N  N63  1  0.80501149  0.74709033  0.58463139  1
  N  N64  1  0.56550810  0.85163264  0.34303401  1
  N  N65  1  0.44251609  0.76258087  0.08758883  1
  N  N66  1  0.23166453  0.88389518  0.82988571  1
  N  N67  1  0.10919544  0.77586295  0.58453731  1
  N  N68  1  0.89072779  0.87172071  0.33544509  1
  N  N69  1  0.77972862  0.76209033  0.09618268  1
  N  N70  1  0.55037032  0.85883403  0.83381754  1
  N  N71  1  0.43231944  0.75011723  0.57314139  1
