# generated using pymatgen
data_Sc2Al7N9
_symmetry_space_group_name_H-M   'P 1'
_cell_length_a   9.76598301
_cell_length_b   9.74006710
_cell_length_c   10.10000253
_cell_angle_alpha   90.01459877
_cell_angle_beta   90.05769431
_cell_angle_gamma   59.80734678
_symmetry_Int_Tables_number   1
_chemical_formula_structural   Sc2Al7N9
_chemical_formula_sum   'Sc8 Al28 N36'
_cell_volume   830.39249371
_cell_formula_units_Z   4
loop_
 _symmetry_equiv_pos_site_id
 _symmetry_equiv_pos_as_xyz
  1  'x, y, z'
loop_
 _atom_site_type_symbol
 _atom_site_label
 _atom_site_symmetry_multiplicity
 _atom_site_fract_x
 _atom_site_fract_y
 _atom_site_fract_z
 _atom_site_occupancy
  Al  Al0  1  0.10458844  0.09688714  0.40953251  1
  Al  Al1  1  0.20934416  0.20811291  0.16032605  1
  Al  Al2  1  0.78876028  0.09667818  0.91215062  1
  Al  Al3  1  0.89268650  0.20644994  0.65687373  1
  Al  Al4  1  0.10500042  0.09805338  0.90750383  1
  Al  Al5  1  0.20769262  0.20790730  0.65908057  1
  Al  Al6  1  0.78554276  0.09631964  0.40750526  1
  Al  Al7  1  0.89533580  0.20473369  0.15967449  1
  Al  Al8  1  0.09993040  0.42671293  0.40639551  1
  Al  Al9  1  0.21852190  0.54190534  0.16630536  1
  Al  Al10  1  0.77755356  0.42446913  0.90758431  1
  Al  Al11  1  0.89081872  0.53007220  0.65667310  1
  Al  Al12  1  0.45165616  0.43157521  0.40581948  1
  Al  Al13  1  0.55450789  0.54472909  0.15834938  1
  Al  Al14  1  0.10803325  0.42326234  0.91022984  1
  Al  Al15  1  0.77600331  0.42859457  0.40780586  1
  Al  Al16  1  0.88756964  0.53747043  0.16140629  1
  Al  Al17  1  0.44228832  0.43562220  0.91441652  1
  Al  Al18  1  0.55656780  0.54019247  0.65915510  1
  Al  Al19  1  0.11049242  0.76697731  0.40740795  1
  Al  Al20  1  0.22211380  0.87441816  0.16126967  1
  Al  Al21  1  0.89516642  0.87644285  0.65090839  1
  Al  Al22  1  0.44158203  0.75371247  0.40754087  1
  Al  Al23  1  0.55724051  0.86275066  0.16975842  1
  Al  Al24  1  0.22073776  0.87724882  0.65600146  1
  Al  Al25  1  0.78825711  0.75317704  0.40759215  1
  Al  Al26  1  0.89419675  0.87027813  0.16711109  1
  Al  Al27  1  0.44340306  0.75896354  0.91078463  1
  Sc  Sc28  1  0.43649651  0.10214644  0.39378778  1
  Sc  Sc29  1  0.56302667  0.20920867  0.14473658  1
  Sc  Sc30  1  0.43376529  0.09429885  0.91015831  1
  Sc  Sc31  1  0.56497860  0.20696299  0.66252007  1
  Sc  Sc32  1  0.21988926  0.53444308  0.64102748  1
  Sc  Sc33  1  0.78088361  0.75845608  0.90554282  1
  Sc  Sc34  1  0.11502799  0.76067047  0.90613873  1
  Sc  Sc35  1  0.55661386  0.86530486  0.64118910  1
  N  N36  1  0.19449599  0.21644659  0.34548789  1
  N  N37  1  0.11045286  0.09360168  0.09837804  1
  N  N38  1  0.88800589  0.20781125  0.84829828  1
  N  N39  1  0.79823537  0.08952585  0.59391213  1
  N  N40  1  0.56900535  0.21478444  0.35646105  1
  N  N41  1  0.43407138  0.08541050  0.12776959  1
  N  N42  1  0.19864501  0.21410780  0.84847237  1
  N  N43  1  0.10907834  0.09428609  0.59909178  1
  N  N44  1  0.88908774  0.20820676  0.34941725  1
  N  N45  1  0.80760995  0.08028128  0.09980372  1
  N  N46  1  0.56578489  0.21349760  0.88191167  1
  N  N47  1  0.42316076  0.11079150  0.60918629  1
  N  N48  1  0.22107569  0.53641242  0.36173581  1
  N  N49  1  0.10884008  0.42971036  0.10317725  1
  N  N50  1  0.89546408  0.52013189  0.84676738  1
  N  N51  1  0.77454580  0.42956601  0.59978346  1
  N  N52  1  0.55774477  0.53955660  0.34670716  1
  N  N53  1  0.42995556  0.45545086  0.10253361  1
  N  N54  1  0.23023237  0.51653048  0.85280932  1
  N  N55  1  0.09713964  0.41495961  0.59230107  1
  N  N56  1  0.88577783  0.53762204  0.34963283  1
  N  N57  1  0.77688684  0.42756113  0.10002818  1
  N  N58  1  0.55425086  0.53972163  0.85178366  1
  N  N59  1  0.45767753  0.43488743  0.59205849  1
  N  N60  1  0.22182885  0.87553283  0.35068306  1
  N  N61  1  0.11181101  0.76042121  0.11783410  1
  N  N62  1  0.88125446  0.89229576  0.83878248  1
  N  N63  1  0.80510190  0.74767634  0.59919632  1
  N  N64  1  0.56571566  0.85073730  0.36362431  1
  N  N65  1  0.44345356  0.76284363  0.10337924  1
  N  N66  1  0.23052748  0.88261743  0.84715224  1
  N  N67  1  0.10746976  0.77839541  0.59818685  1
  N  N68  1  0.88929552  0.87360909  0.35527227  1
  N  N69  1  0.77808506  0.76253815  0.11787606  1
  N  N70  1  0.54897457  0.86025115  0.84949298  1
  N  N71  1  0.43198792  0.75044067  0.59439739  1
