# generated using pymatgen
data_Sc2Al7N9
_symmetry_space_group_name_H-M   'P 1'
_cell_length_a   9.76847165
_cell_length_b   9.74349263
_cell_length_c   10.09147655
_cell_angle_alpha   90.01113027
_cell_angle_beta   90.05763724
_cell_angle_gamma   59.80996673
_symmetry_Int_Tables_number   1
_chemical_formula_structural   Sc2Al7N9
_chemical_formula_sum   'Sc8 Al28 N36'
_cell_volume   830.21688181
_cell_formula_units_Z   4
loop_
 _symmetry_equiv_pos_site_id
 _symmetry_equiv_pos_as_xyz
  1  'x, y, z'
loop_
 _atom_site_type_symbol
 _atom_site_label
 _atom_site_symmetry_multiplicity
 _atom_site_fract_x
 _atom_site_fract_y
 _atom_site_fract_z
 _atom_site_occupancy
  Al  Al0  1  0.10464916  0.09684916  0.39386998  1
  Al  Al1  1  0.20939963  0.20805152  0.14457521  1
  Al  Al2  1  0.78887789  0.09660195  0.89657386  1
  Al  Al3  1  0.89271711  0.20639939  0.64118982  1
  Al  Al4  1  0.10500185  0.09797615  0.89189693  1
  Al  Al5  1  0.20773268  0.20781225  0.64343789  1
  Al  Al6  1  0.78558456  0.09630431  0.39175174  1
  Al  Al7  1  0.89535726  0.20474162  0.14409115  1
  Al  Al8  1  0.09988089  0.42660917  0.39068289  1
  Al  Al9  1  0.21849540  0.54192668  0.15070180  1
  Al  Al10  1  0.77757336  0.42436744  0.89195226  1
  Al  Al11  1  0.89088336  0.52991682  0.64108260  1
  Al  Al12  1  0.45179445  0.43152664  0.39008522  1
  Al  Al13  1  0.55450383  0.54473628  0.14262852  1
  Al  Al14  1  0.10814871  0.42312182  0.89454216  1
  Al  Al15  1  0.77600192  0.42861806  0.39215048  1
  Al  Al16  1  0.88757119  0.53746136  0.14562979  1
  Al  Al17  1  0.44223732  0.43559389  0.89869031  1
  Al  Al18  1  0.55657625  0.54018057  0.64353610  1
  Al  Al19  1  0.11050245  0.76703884  0.39182134  1
  Al  Al20  1  0.22210745  0.87438592  0.14549954  1
  Al  Al21  1  0.89521501  0.87643344  0.63530630  1
  Al  Al22  1  0.44154611  0.75368360  0.39184485  1
  Al  Al23  1  0.55733776  0.86269698  0.15414956  1
  Al  Al24  1  0.22080271  0.87721915  0.64042598  1
  Al  Al25  1  0.78845069  0.75308155  0.39197021  1
  Al  Al26  1  0.89425779  0.87021698  0.15133605  1
  Al  Al27  1  0.44346947  0.75892106  0.89508174  1
  Sc  Sc28  1  0.43653307  0.10224449  0.37794945  1
  Sc  Sc29  1  0.56302220  0.20922829  0.12877693  1
  Sc  Sc30  1  0.43390640  0.09405264  0.89423812  1
  Sc  Sc31  1  0.56506190  0.20694422  0.64684034  1
  Sc  Sc32  1  0.21994970  0.53426451  0.62497441  1
  Sc  Sc33  1  0.78089555  0.75835743  0.88958985  1
  Sc  Sc34  1  0.11516771  0.76040589  0.89018211  1
  Sc  Sc35  1  0.55667083  0.86525478  0.62505939  1
  N  N36  1  0.19454682  0.21639375  0.32987685  1
  N  N37  1  0.11043770  0.09358868  0.08284908  1
  N  N38  1  0.88803364  0.20776092  0.83272813  1
  N  N39  1  0.79830336  0.08944501  0.57831105  1
  N  N40  1  0.56907153  0.21481269  0.34074543  1
  N  N41  1  0.43414795  0.08530520  0.11215962  1
  N  N42  1  0.19869756  0.21396901  0.83297872  1
  N  N43  1  0.10913554  0.09419342  0.58354631  1
  N  N44  1  0.88913125  0.20824231  0.33392182  1
  N  N45  1  0.80767313  0.08027837  0.08435018  1
  N  N46  1  0.56586083  0.21343555  0.86649277  1
  N  N47  1  0.42319025  0.11083823  0.59363918  1
  N  N48  1  0.22106020  0.53642712  0.34632936  1
  N  N49  1  0.10889862  0.42967997  0.08761733  1
  N  N50  1  0.89555697  0.51993961  0.83128365  1
  N  N51  1  0.77453994  0.42953984  0.58423530  1
  N  N52  1  0.55777525  0.53959218  0.33109712  1
  N  N53  1  0.42987592  0.45552454  0.08696599  1
  N  N54  1  0.23032878  0.51627407  0.83695503  1
  N  N55  1  0.09710666  0.41478546  0.57670730  1
  N  N56  1  0.88576611  0.53762815  0.33399827  1
  N  N57  1  0.77689006  0.42750662  0.08447655  1
  N  N58  1  0.55425368  0.53967234  0.83625852  1
  N  N59  1  0.45781446  0.43480716  0.57646296  1
  N  N60  1  0.22182121  0.87552313  0.33506191  1
  N  N61  1  0.11185257  0.76034645  0.10208531  1
  N  N62  1  0.88128669  0.89229559  0.82330498  1
  N  N63  1  0.80531827  0.74751182  0.58375350  1
  N  N64  1  0.56579266  0.85075167  0.34829691  1
  N  N65  1  0.44352360  0.76285291  0.08782027  1
  N  N66  1  0.23056008  0.88258213  0.83169189  1
  N  N67  1  0.10753271  0.77835395  0.58278871  1
  N  N68  1  0.88937892  0.87355872  0.33967297  1
  N  N69  1  0.77809230  0.76251316  0.10215490  1
  N  N70  1  0.54902275  0.86008447  0.83357216  1
  N  N71  1  0.43195899  0.75037248  0.57882307  1
