# generated using pymatgen
data_Sc2Al7N9
_symmetry_space_group_name_H-M   'P 1'
_cell_length_a   10.22037131
_cell_length_b   10.20008443
_cell_length_c   8.80742757
_cell_angle_alpha   89.97883416
_cell_angle_beta   89.95050439
_cell_angle_gamma   59.65895721
_symmetry_Int_Tables_number   1
_chemical_formula_structural   Sc2Al7N9
_chemical_formula_sum   'Sc8 Al28 N36'
_cell_volume   792.40502867
_cell_formula_units_Z   4
loop_
 _symmetry_equiv_pos_site_id
 _symmetry_equiv_pos_as_xyz
  1  'x, y, z'
loop_
 _atom_site_type_symbol
 _atom_site_label
 _atom_site_symmetry_multiplicity
 _atom_site_fract_x
 _atom_site_fract_y
 _atom_site_fract_z
 _atom_site_occupancy
  Al  Al0  1  0.10192268  0.09831534  0.33758029  1
  Al  Al1  1  0.20947583  0.20745927  0.09522857  1
  Al  Al2  1  0.78698539  0.09840693  0.83720514  1
  Al  Al3  1  0.89350424  0.20746733  0.59108337  1
  Al  Al4  1  0.10755691  0.09615354  0.83964660  1
  Al  Al5  1  0.20700081  0.20659684  0.58626710  1
  Al  Al6  1  0.78816162  0.09721342  0.34398914  1
  Al  Al7  1  0.89220074  0.20736554  0.08630410  1
  Al  Al8  1  0.10386431  0.42818553  0.33725063  1
  Al  Al9  1  0.22057961  0.53677041  0.10193398  1
  Al  Al10  1  0.77664609  0.42741669  0.84058643  1
  Al  Al11  1  0.88889091  0.53270112  0.58352303  1
  Al  Al12  1  0.44499765  0.43610553  0.34039207  1
  Al  Al13  1  0.55577804  0.54280619  0.09162700  1
  Al  Al14  1  0.10503464  0.42114557  0.84675937  1
  Al  Al15  1  0.77583026  0.42673990  0.33890394  1
  Al  Al16  1  0.88879801  0.53264496  0.09822602  1
  Al  Al17  1  0.44734440  0.43296621  0.84741918  1
  Al  Al18  1  0.55667797  0.54113787  0.58894086  1
  Al  Al19  1  0.11364066  0.76115355  0.34184784  1
  Al  Al20  1  0.22373787  0.87694470  0.10014069  1
  Al  Al21  1  0.89643072  0.87197260  0.57911598  1
  Al  Al22  1  0.44484973  0.75535790  0.33858996  1
  Al  Al23  1  0.55575572  0.86400492  0.10274614  1
  Al  Al24  1  0.21931575  0.87608540  0.58105076  1
  Al  Al25  1  0.78408286  0.75533220  0.34249763  1
  Al  Al26  1  0.89279417  0.87621798  0.10442406  1
  Al  Al27  1  0.44047889  0.75843443  0.84633661  1
  Sc  Sc28  1  0.43660933  0.09644969  0.34869556  1
  Sc  Sc29  1  0.56422224  0.20822456  0.10089401  1
  Sc  Sc30  1  0.43337380  0.09869726  0.85400177  1
  Sc  Sc31  1  0.56323298  0.20789652  0.60022780  1
  Sc  Sc32  1  0.21784843  0.53517089  0.59877023  1
  Sc  Sc33  1  0.78760137  0.75597132  0.85608826  1
  Sc  Sc34  1  0.11513227  0.76540441  0.85567800  1
  Sc  Sc35  1  0.55835701  0.86089746  0.59954275  1
  N  N36  1  0.19817127  0.21453029  0.35856813  1
  N  N37  1  0.10560168  0.09659044  0.11685822  1
  N  N38  1  0.88908800  0.20901197  0.86046277  1
  N  N39  1  0.80163638  0.08450929  0.60812736  1
  N  N40  1  0.56491234  0.21477285  0.35297044  1
  N  N41  1  0.43469051  0.08831435  0.10421872  1
  N  N42  1  0.19909251  0.21227384  0.87005326  1
  N  N43  1  0.11050759  0.09139435  0.61296273  1
  N  N44  1  0.88861599  0.21075449  0.36950135  1
  N  N45  1  0.80062823  0.09035761  0.12143199  1
  N  N46  1  0.56864802  0.21338905  0.85422953  1
  N  N47  1  0.42377262  0.10404399  0.60250399  1
  N  N48  1  0.22089584  0.53560317  0.34841688  1
  N  N49  1  0.10900855  0.42757183  0.11453592  1
  N  N50  1  0.89386767  0.52033789  0.87271911  1
  N  N51  1  0.77469302  0.43165894  0.61321541  1
  N  N52  1  0.55711144  0.53924866  0.36138010  1
  N  N53  1  0.43635358  0.44841825  0.11084449  1
  N  N54  1  0.22756820  0.51846681  0.86304782  1
  N  N55  1  0.09758684  0.41681881  0.61274353  1
  N  N56  1  0.88640377  0.53614357  0.35588642  1
  N  N57  1  0.77557385  0.42582333  0.11539182  1
  N  N58  1  0.55643546  0.54054490  0.86610515  1
  N  N59  1  0.45056204  0.44063444  0.61291557  1
  N  N60  1  0.22227792  0.87489337  0.35433228  1
  N  N61  1  0.11502401  0.75981240  0.11461686  1
  N  N62  1  0.88303692  0.89270752  0.87491649  1
  N  N63  1  0.80271104  0.74975472  0.59937628  1
  N  N64  1  0.56478675  0.85274509  0.34951789  1
  N  N65  1  0.44413441  0.75942441  0.11412262  1
  N  N66  1  0.22966864  0.88468373  0.87325159  1
  N  N67  1  0.10774253  0.77532057  0.59880576  1
  N  N68  1  0.89060297  0.87243443  0.35321456  1
  N  N69  1  0.78150361  0.75953450  0.11463948  1
  N  N70  1  0.55185153  0.85859596  0.85963059  1
  N  N71  1  0.43102630  0.75377581  0.61105416  1
