# generated using pymatgen
data_Sc2Al7N9
_symmetry_space_group_name_H-M   'P 1'
_cell_length_a   10.24479261
_cell_length_b   10.22758403
_cell_length_c   8.73101073
_cell_angle_alpha   89.94159998
_cell_angle_beta   89.94573859
_cell_angle_gamma   59.66795194
_symmetry_Int_Tables_number   1
_chemical_formula_structural   Sc2Al7N9
_chemical_formula_sum   'Sc8 Al28 N36'
_cell_volume   789.60198893
_cell_formula_units_Z   4
loop_
 _symmetry_equiv_pos_site_id
 _symmetry_equiv_pos_as_xyz
  1  'x, y, z'
loop_
 _atom_site_type_symbol
 _atom_site_label
 _atom_site_symmetry_multiplicity
 _atom_site_fract_x
 _atom_site_fract_y
 _atom_site_fract_z
 _atom_site_occupancy
  Al  Al0  1  0.10534123  0.09637720  0.36117971  1
  Al  Al1  1  0.21046443  0.20613265  0.11039890  1
  Al  Al2  1  0.78665309  0.10054207  0.85946330  1
  Al  Al3  1  0.89308513  0.20676445  0.60814280  1
  Al  Al4  1  0.10473486  0.09737040  0.86520937  1
  Al  Al5  1  0.20673092  0.20729163  0.61343461  1
  Al  Al6  1  0.78779898  0.09555820  0.35370539  1
  Al  Al7  1  0.89251056  0.20859407  0.11726236  1
  Al  Al8  1  0.10168257  0.42613280  0.35355730  1
  Al  Al9  1  0.22037964  0.53821971  0.11056952  1
  Al  Al10  1  0.77819813  0.42455182  0.86335069  1
  Al  Al11  1  0.89056436  0.53061731  0.60930072  1
  Al  Al12  1  0.44698294  0.43579988  0.35569910  1
  Al  Al13  1  0.55616022  0.54210502  0.11143986  1
  Al  Al14  1  0.10699149  0.42291554  0.87128878  1
  Al  Al15  1  0.77467852  0.43008011  0.36295080  1
  Al  Al16  1  0.88679903  0.53507736  0.11311039  1
  Al  Al17  1  0.44541367  0.43356639  0.86353343  1
  Al  Al18  1  0.55638150  0.54163514  0.61579244  1
  Al  Al19  1  0.11331200  0.76272056  0.34884287  1
  Al  Al20  1  0.22199287  0.87615950  0.11438093  1
  Al  Al21  1  0.89589708  0.87315689  0.58750385  1
  Al  Al22  1  0.44317938  0.75447379  0.35470152  1
  Al  Al23  1  0.55610470  0.86460276  0.10927554  1
  Al  Al24  1  0.22089068  0.87641378  0.60322081  1
  Al  Al25  1  0.78528707  0.75411797  0.34879070  1
  Al  Al26  1  0.89335719  0.87423074  0.10951196  1
  Al  Al27  1  0.44178158  0.75952139  0.86963558  1
  Sc  Sc28  1  0.43467895  0.09766183  0.35129426  1
  Sc  Sc29  1  0.56192229  0.20914248  0.10431275  1
  Sc  Sc30  1  0.43510728  0.09768729  0.85500207  1
  Sc  Sc31  1  0.56510909  0.20736059  0.60261020  1
  Sc  Sc32  1  0.21835675  0.53358901  0.59864898  1
  Sc  Sc33  1  0.78646847  0.75713164  0.85650202  1
  Sc  Sc34  1  0.11559581  0.76382948  0.85569301  1
  Sc  Sc35  1  0.55775587  0.86039998  0.59924012  1
  N  N36  1  0.19916814  0.21285604  0.33713820  1
  N  N37  1  0.10688406  0.09435867  0.09528436  1
  N  N38  1  0.88935618  0.20892613  0.84114068  1
  N  N39  1  0.80126148  0.08586144  0.59122212  1
  N  N40  1  0.56490097  0.21380631  0.35054838  1
  N  N41  1  0.43456443  0.08834547  0.10199442  1
  N  N42  1  0.19870861  0.21366576  0.84918816  1
  N  N43  1  0.10955587  0.09318277  0.59113194  1
  N  N44  1  0.88873390  0.21127426  0.34730126  1
  N  N45  1  0.79985528  0.08951780  0.10587474  1
  N  N46  1  0.56806231  0.21482082  0.85336926  1
  N  N47  1  0.42417491  0.10401573  0.60157435  1
  N  N48  1  0.22106655  0.53544747  0.34194446  1
  N  N49  1  0.10742859  0.42843797  0.10057564  1
  N  N50  1  0.89556415  0.52031636  0.84746232  1
  N  N51  1  0.77391306  0.43080434  0.59415413  1
  N  N52  1  0.55850986  0.53846696  0.33842204  1
  N  N53  1  0.43562284  0.44871378  0.09749038  1
  N  N54  1  0.22751427  0.51864615  0.85597591  1
  N  N55  1  0.09911466  0.41614225  0.58540622  1
  N  N56  1  0.88475606  0.53661750  0.34129044  1
  N  N57  1  0.77650163  0.42688780  0.09330069  1
  N  N58  1  0.55509256  0.54157353  0.84810399  1
  N  N59  1  0.45128664  0.44036546  0.59235863  1
  N  N60  1  0.22128987  0.87550111  0.34330653  1
  N  N61  1  0.11434435  0.76067417  0.11044966  1
  N  N62  1  0.88352834  0.89193421  0.85948172  1
  N  N63  1  0.80211023  0.74920432  0.59276047  1
  N  N64  1  0.56428088  0.85299561  0.34384294  1
  N  N65  1  0.44205235  0.76093894  0.10035338  1
  N  N66  1  0.23045192  0.88366753  0.84706915  1
  N  N67  1  0.10873626  0.77415017  0.59221323  1
  N  N68  1  0.89061949  0.87220902  0.34757985  1
  N  N69  1  0.78167049  0.76005374  0.11026497  1
  N  N70  1  0.55206017  0.85880610  0.85493353  1
  N  N71  1  0.43341621  0.75199250  0.58702935  1
