# generated using pymatgen
data_Sc2Al7N9
_symmetry_space_group_name_H-M   'P 1'
_cell_length_a   9.99837589
_cell_length_b   9.97887011
_cell_length_c   9.45550796
_cell_angle_alpha   89.98729780
_cell_angle_beta   90.01679062
_cell_angle_gamma   59.68744723
_symmetry_Int_Tables_number   1
_chemical_formula_structural   Sc2Al7N9
_chemical_formula_sum   'Sc8 Al28 N36'
_cell_volume   814.42262098
_cell_formula_units_Z   4
loop_
 _symmetry_equiv_pos_site_id
 _symmetry_equiv_pos_as_xyz
  1  'x, y, z'
loop_
 _atom_site_type_symbol
 _atom_site_label
 _atom_site_symmetry_multiplicity
 _atom_site_fract_x
 _atom_site_fract_y
 _atom_site_fract_z
 _atom_site_occupancy
  Al  Al0  1  0.10458753  0.09677839  0.37706542  1
  Al  Al1  1  0.21030868  0.20601034  0.12293077  1
  Al  Al2  1  0.78800312  0.09962538  0.88057615  1
  Al  Al3  1  0.89289535  0.20645838  0.62497121  1
  Al  Al4  1  0.10473951  0.09749373  0.87745918  1
  Al  Al5  1  0.20516694  0.20831477  0.62941543  1
  Al  Al6  1  0.78849772  0.09484208  0.37159968  1
  Al  Al7  1  0.89424325  0.20686272  0.12918436  1
  Al  Al8  1  0.09876681  0.42481912  0.36989174  1
  Al  Al9  1  0.21802748  0.54222144  0.13227500  1
  Al  Al10  1  0.77824537  0.42407503  0.87606849  1
  Al  Al11  1  0.89186021  0.52801512  0.62651692  1
  Al  Al12  1  0.45107779  0.43401465  0.37131356  1
  Al  Al13  1  0.55560004  0.54340217  0.12382233  1
  Al  Al14  1  0.10852141  0.42352095  0.88187007  1
  Al  Al15  1  0.77511467  0.42962466  0.37687443  1
  Al  Al16  1  0.88606686  0.53782078  0.12634503  1
  Al  Al17  1  0.44254993  0.43490859  0.87970293  1
  Al  Al18  1  0.55582807  0.54167955  0.63018398  1
  Al  Al19  1  0.11085359  0.76684508  0.37435368  1
  Al  Al20  1  0.22055889  0.87488081  0.12780117  1
  Al  Al21  1  0.89510411  0.87741561  0.61925266  1
  Al  Al22  1  0.44145086  0.75277278  0.37147478  1
  Al  Al23  1  0.55780726  0.86367811  0.13150918  1
  Al  Al24  1  0.22214918  0.87751468  0.62403189  1
  Al  Al25  1  0.78912227  0.75235921  0.37270296  1
  Al  Al26  1  0.89485665  0.87007700  0.13156624  1
  Al  Al27  1  0.44286391  0.76064780  0.88131883  1
  Sc  Sc28  1  0.43387501  0.10062638  0.35774423  1
  Sc  Sc29  1  0.56149621  0.20886419  0.11004255  1
  Sc  Sc30  1  0.43643424  0.09617841  0.86096462  1
  Sc  Sc31  1  0.56634091  0.20738262  0.61316448  1
  Sc  Sc32  1  0.21950045  0.53176343  0.60283726  1
  Sc  Sc33  1  0.78296074  0.75830469  0.86380960  1
  Sc  Sc34  1  0.11697852  0.75995956  0.86358519  1
  Sc  Sc35  1  0.55664003  0.86207775  0.60277677  1
  N  N36  1  0.19569950  0.21401951  0.32204657  1
  N  N37  1  0.10833044  0.09318485  0.07858579  1
  N  N38  1  0.88893921  0.20836610  0.82737999  1
  N  N39  1  0.80261550  0.08784790  0.57106513  1
  N  N40  1  0.56710166  0.21315304  0.34249889  1
  N  N41  1  0.43491428  0.08578958  0.10060625  1
  N  N42  1  0.19721790  0.21462342  0.83297577  1
  N  N43  1  0.10915497  0.09399630  0.57804695  1
  N  N44  1  0.88889781  0.21030422  0.32954663  1
  N  N45  1  0.80438254  0.08385729  0.08357536  1
  N  N46  1  0.56822178  0.21564723  0.85266121  1
  N  N47  1  0.42220706  0.10813246  0.59548704  1
  N  N48  1  0.21998971  0.53704333  0.34071474  1
  N  N49  1  0.10852008  0.43011263  0.08548023  1
  N  N50  1  0.89697502  0.51819995  0.82936739  1
  N  N51  1  0.77366553  0.43035623  0.58012007  1
  N  N52  1  0.55921085  0.53859980  0.32357126  1
  N  N53  1  0.43117208  0.45291121  0.08354796  1
  N  N54  1  0.22990591  0.51471865  0.83150423  1
  N  N55  1  0.09674013  0.41349927  0.56945027  1
  N  N56  1  0.88400989  0.53764061  0.32697837  1
  N  N57  1  0.77700569  0.42710887  0.07847470  1
  N  N58  1  0.55370244  0.54156125  0.83381723  1
  N  N59  1  0.45527732  0.43944545  0.57217915  1
  N  N60  1  0.22037242  0.87561282  0.32915979  1
  N  N61  1  0.11259062  0.76016456  0.09273777  1
  N  N62  1  0.88168361  0.89480925  0.82159207  1
  N  N63  1  0.80565872  0.74695203  0.58282191  1
  N  N64  1  0.56583290  0.85127916  0.34280251  1
  N  N65  1  0.44284252  0.76277360  0.08518745  1
  N  N66  1  0.23168056  0.88391557  0.82794456  1
  N  N67  1  0.10901949  0.77638044  0.58293326  1
  N  N68  1  0.89077269  0.87170301  0.33357379  1
  N  N69  1  0.77921232  0.76233897  0.09349698  1
  N  N70  1  0.54998640  0.85881741  0.82954343  1
  N  N71  1  0.43190275  0.75000778  0.57163521  1
