# generated using pymatgen
data_Sc2Al7N9
_symmetry_space_group_name_H-M   'P 1'
_cell_length_a   10.20972455
_cell_length_b   10.19332842
_cell_length_c   8.83059660
_cell_angle_alpha   89.94340809
_cell_angle_beta   89.95959891
_cell_angle_gamma   59.66937275
_symmetry_Int_Tables_number   1
_chemical_formula_structural   Sc2Al7N9
_chemical_formula_sum   'Sc8 Al28 N36'
_cell_volume   793.22049902
_cell_formula_units_Z   4
loop_
 _symmetry_equiv_pos_site_id
 _symmetry_equiv_pos_as_xyz
  1  'x, y, z'
loop_
 _atom_site_type_symbol
 _atom_site_label
 _atom_site_symmetry_multiplicity
 _atom_site_fract_x
 _atom_site_fract_y
 _atom_site_fract_z
 _atom_site_occupancy
  Al  Al0  1  0.10547065  0.09643746  0.36583032  1
  Al  Al1  1  0.21048418  0.20575458  0.11254112  1
  Al  Al2  1  0.78670749  0.10106858  0.86718655  1
  Al  Al3  1  0.89290562  0.20642783  0.61222895  1
  Al  Al4  1  0.10445212  0.09739036  0.86841072  1
  Al  Al5  1  0.20634325  0.20765814  0.61813563  1
  Al  Al6  1  0.78797612  0.09535387  0.35749519  1
  Al  Al7  1  0.89299796  0.20875872  0.12165734  1
  Al  Al8  1  0.10111260  0.42563321  0.35621463  1
  Al  Al9  1  0.22004674  0.53882429  0.11391095  1
  Al  Al10  1  0.77849780  0.42412262  0.86612122  1
  Al  Al11  1  0.89111058  0.52996516  0.61395014  1
  Al  Al12  1  0.44776351  0.43565672  0.35897544  1
  Al  Al13  1  0.55639051  0.54206786  0.11393823  1
  Al  Al14  1  0.10730033  0.42309458  0.87473337  1
  Al  Al15  1  0.77458940  0.43033775  0.36725272  1
  Al  Al16  1  0.88644879  0.53529611  0.11598088  1
  Al  Al17  1  0.44488151  0.43370886  0.86728751  1
  Al  Al18  1  0.55612647  0.54182673  0.62000004  1
  Al  Al19  1  0.11306268  0.76320441  0.35172351  1
  Al  Al20  1  0.22153108  0.87629130  0.11812121  1
  Al  Al21  1  0.89574768  0.87376236  0.59319126  1
  Al  Al22  1  0.44298114  0.75404391  0.35772873  1
  Al  Al23  1  0.55610463  0.86485981  0.11196128  1
  Al  Al24  1  0.22140016  0.87652366  0.60853805  1
  Al  Al25  1  0.78563221  0.75383220  0.35094109  1
  Al  Al26  1  0.89365277  0.87335348  0.11381624  1
  Al  Al27  1  0.44175112  0.75987272  0.87312753  1
  Sc  Sc28  1  0.43422171  0.09810267  0.35203510  1
  Sc  Sc29  1  0.56127361  0.20939495  0.10547592  1
  Sc  Sc30  1  0.43558396  0.09747793  0.85537584  1
  Sc  Sc31  1  0.56567439  0.20723474  0.60360519  1
  Sc  Sc32  1  0.21852919  0.53320955  0.59876462  1
  Sc  Sc33  1  0.78605160  0.75729470  0.85700272  1
  Sc  Sc34  1  0.11589599  0.76323161  0.85623194  1
  Sc  Sc35  1  0.55767571  0.86041866  0.59934853  1
  N  N36  1  0.19865782  0.21270655  0.33302793  1
  N  N37  1  0.10692622  0.09398909  0.09088995  1
  N  N38  1  0.88928136  0.20874172  0.83701023  1
  N  N39  1  0.80142162  0.08638669  0.58493068  1
  N  N40  1  0.56504039  0.21363960  0.34959136  1
  N  N41  1  0.43456673  0.08804980  0.10167517  1
  N  N42  1  0.19835823  0.21398463  0.84616718  1
  N  N43  1  0.10950055  0.09354183  0.58809008  1
  N  N44  1  0.88887994  0.21146727  0.34337340  1
  N  N45  1  0.80049901  0.08893304  0.10117250  1
  N  N46  1  0.56820488  0.21514359  0.85350601  1
  N  N47  1  0.42381098  0.10456577  0.60120581  1
  N  N48  1  0.22102998  0.53558115  0.34152821  1
  N  N49  1  0.10745054  0.42875812  0.09810172  1
  N  N50  1  0.89615573  0.51973154  0.84336665  1
  N  N51  1  0.77371178  0.43083950  0.59140413  1
  N  N52  1  0.55904389  0.53825397  0.33444937  1
  N  N53  1  0.43495972  0.44935186  0.09475646  1
  N  N54  1  0.22775038  0.51806931  0.85233189  1
  N  N55  1  0.09884461  0.41549457  0.58097746  1
  N  N56  1  0.88437632  0.53660597  0.33779124  1
  N  N57  1  0.77676934  0.42669292  0.08907954  1
  N  N58  1  0.55462252  0.54180154  0.84536872  1
  N  N59  1  0.45199603  0.44030013  0.58782942  1
  N  N60  1  0.22099887  0.87585497  0.34037488  1
  N  N61  1  0.11407444  0.76077590  0.10837969  1
  N  N62  1  0.88321646  0.89256390  0.85143411  1
  N  N63  1  0.80252829  0.74853783  0.59159862  1
  N  N64  1  0.56433327  0.85289130  0.34352633  1
  N  N65  1  0.44180430  0.76137320  0.09768144  1
  N  N66  1  0.23085753  0.88376416  0.84155765  1
  N  N67  1  0.10917925  0.77418176  0.59097523  1
  N  N68  1  0.89066243  0.87192939  0.34523404  1
  N  N69  1  0.78131132  0.76048997  0.10825235  1
  N  N70  1  0.55177724  0.85884859  0.85177807  1
  N  N71  1  0.43352870  0.75137642  0.58283965  1
