# generated using pymatgen
data_Sc2Al7N9
_symmetry_space_group_name_H-M   'P 1'
_cell_length_a   9.77145691
_cell_length_b   9.74983418
_cell_length_c   10.09339060
_cell_angle_alpha   90.04485811
_cell_angle_beta   89.96012183
_cell_angle_gamma   59.77031270
_symmetry_Int_Tables_number   1
_chemical_formula_structural   Sc2Al7N9
_chemical_formula_sum   'Sc8 Al28 N36'
_cell_volume   830.83341927
_cell_formula_units_Z   4
loop_
 _symmetry_equiv_pos_site_id
 _symmetry_equiv_pos_as_xyz
  1  'x, y, z'
loop_
 _atom_site_type_symbol
 _atom_site_label
 _atom_site_symmetry_multiplicity
 _atom_site_fract_x
 _atom_site_fract_y
 _atom_site_fract_z
 _atom_site_occupancy
  Al  Al0  1  0.10345296  0.09767936  0.30447328  1
  Al  Al1  1  0.21066047  0.20741719  0.05319551  1
  Al  Al2  1  0.78615120  0.09877563  0.80300168  1
  Al  Al3  1  0.89369667  0.20558030  0.55538218  1
  Al  Al4  1  0.10670988  0.09723457  0.80401404  1
  Al  Al5  1  0.20666258  0.20790916  0.55304614  1
  Al  Al6  1  0.78847086  0.09423636  0.30324728  1
  Al  Al7  1  0.89451121  0.20555910  0.05328938  1
  Al  Al8  1  0.10419743  0.43022195  0.30089385  1
  Al  Al9  1  0.22126836  0.53634684  0.05560432  1
  Al  Al10  1  0.77706109  0.42524648  0.80513544  1
  Al  Al11  1  0.88940839  0.53361337  0.55082359  1
  Al  Al12  1  0.44243725  0.43832875  0.29872670  1
  Al  Al13  1  0.55505760  0.54402270  0.05374586  1
  Al  Al14  1  0.10443353  0.41971696  0.80727266  1
  Al  Al15  1  0.77598627  0.42749807  0.30543967  1
  Al  Al16  1  0.88982236  0.53207873  0.05797030  1
  Al  Al17  1  0.44984413  0.43016978  0.80672162  1
  Al  Al18  1  0.55537571  0.54096010  0.55452932  1
  Al  Al19  1  0.11282571  0.76082324  0.29838681  1
  Al  Al20  1  0.22476358  0.87675912  0.05819135  1
  Al  Al21  1  0.89685666  0.87156742  0.54766934  1
  Al  Al22  1  0.44533276  0.75581147  0.30106462  1
  Al  Al23  1  0.55371962  0.86486834  0.05259093  1
  Al  Al24  1  0.21886153  0.87516270  0.55077883  1
  Al  Al25  1  0.78202121  0.75613725  0.29939819  1
  Al  Al26  1  0.89329328  0.87500529  0.06037487  1
  Al  Al27  1  0.44093927  0.75729558  0.80588608  1
  Sc  Sc28  1  0.43630781  0.09513072  0.30536742  1
  Sc  Sc29  1  0.56392140  0.20827903  0.06300334  1
  Sc  Sc30  1  0.43526537  0.10109467  0.81580419  1
  Sc  Sc31  1  0.56391118  0.20804900  0.55635224  1
  Sc  Sc32  1  0.21689634  0.53746300  0.55920564  1
  Sc  Sc33  1  0.78722043  0.75484835  0.81578000  1
  Sc  Sc34  1  0.11540011  0.76431660  0.81542933  1
  Sc  Sc35  1  0.55922325  0.86248435  0.55911297  1
  N  N36  1  0.19614959  0.21775400  0.36393069  1
  N  N37  1  0.10924372  0.09603858  0.11547657  1
  N  N38  1  0.88955602  0.20776823  0.86206384  1
  N  N39  1  0.80191882  0.08376541  0.61327815  1
  N  N40  1  0.56450732  0.21526253  0.33909774  1
  N  N41  1  0.43400670  0.08791770  0.09055674  1
  N  N42  1  0.19796513  0.21254209  0.86746587  1
  N  N43  1  0.11020610  0.09212871  0.61235385  1
  N  N44  1  0.88802494  0.20804397  0.36534035  1
  N  N45  1  0.80407197  0.08660376  0.11804032  1
  N  N46  1  0.56990256  0.21382111  0.84958557  1
  N  N47  1  0.42397790  0.10608915  0.59836679  1
  N  N48  1  0.22022730  0.53816119  0.34757830  1
  N  N49  1  0.11006059  0.42681323  0.11214497  1
  N  N50  1  0.89451488  0.51764003  0.87119524  1
  N  N51  1  0.77505230  0.43018128  0.61140774  1
  N  N52  1  0.55500060  0.53989274  0.36293460  1
  N  N53  1  0.43473921  0.45150689  0.11140307  1
  N  N54  1  0.23020164  0.51473757  0.86189940  1
  N  N55  1  0.09649036  0.41685630  0.61825834  1
  N  N56  1  0.88715078  0.53839313  0.35821229  1
  N  N57  1  0.77567541  0.42674243  0.11439975  1
  N  N58  1  0.55615212  0.53998164  0.86430684  1
  N  N59  1  0.45113561  0.43994447  0.61958793  1
  N  N60  1  0.22238928  0.87317670  0.35723990  1
  N  N61  1  0.11479051  0.75988561  0.10431584  1
  N  N62  1  0.88118896  0.89467705  0.87512570  1
  N  N63  1  0.80358453  0.75001547  0.60470211  1
  N  N64  1  0.56562771  0.85201403  0.35018770  1
  N  N65  1  0.44440336  0.76014605  0.11226068  1
  N  N66  1  0.23088439  0.88554568  0.87022729  1
  N  N67  1  0.10598480  0.77706033  0.60531184  1
  N  N68  1  0.89044048  0.87123984  0.35489679  1
  N  N69  1  0.78018320  0.75974042  0.10478733  1
  N  N70  1  0.55006755  0.85856060  0.86110791  1
  N  N71  1  0.43100995  0.75355058  0.61640612  1
