# generated using pymatgen
data_Sc2Al7N9
_symmetry_space_group_name_H-M   'P 1'
_cell_length_a   9.76978325
_cell_length_b   9.74471991
_cell_length_c   10.08845358
_cell_angle_alpha   90.01133561
_cell_angle_beta   90.05817824
_cell_angle_gamma   59.80710593
_symmetry_Int_Tables_number   1
_chemical_formula_structural   Sc2Al7N9
_chemical_formula_sum   'Sc8 Al28 N36'
_cell_volume   830.16005451
_cell_formula_units_Z   4
loop_
 _symmetry_equiv_pos_site_id
 _symmetry_equiv_pos_as_xyz
  1  'x, y, z'
loop_
 _atom_site_type_symbol
 _atom_site_label
 _atom_site_symmetry_multiplicity
 _atom_site_fract_x
 _atom_site_fract_y
 _atom_site_fract_z
 _atom_site_occupancy
  Al  Al0  1  0.10466569  0.09681681  0.38571422  1
  Al  Al1  1  0.20942888  0.20800631  0.13638286  1
  Al  Al2  1  0.78891045  0.09659882  0.88842812  1
  Al  Al3  1  0.89274995  0.20637537  0.63304792  1
  Al  Al4  1  0.10502518  0.09794410  0.88377344  1
  Al  Al5  1  0.20772702  0.20778171  0.63530810  1
  Al  Al6  1  0.78563121  0.09626366  0.38357924  1
  Al  Al7  1  0.89536322  0.20473315  0.13595290  1
  Al  Al8  1  0.09987546  0.42656016  0.38251039  1
  Al  Al9  1  0.21850587  0.54190666  0.14255227  1
  Al  Al10  1  0.77759839  0.42434547  0.88381389  1
  Al  Al11  1  0.89090860  0.52987318  0.63295255  1
  Al  Al12  1  0.45182741  0.43150681  0.38192240  1
  Al  Al13  1  0.55452316  0.54470642  0.13445988  1
  Al  Al14  1  0.10817893  0.42309186  0.88640555  1
  Al  Al15  1  0.77601073  0.42860367  0.38400800  1
  Al  Al16  1  0.88757522  0.53745117  0.13745587  1
  Al  Al17  1  0.44226327  0.43556467  0.89051077  1
  Al  Al18  1  0.55659084  0.54017152  0.63541089  1
  Al  Al19  1  0.11052157  0.76701682  0.38370055  1
  Al  Al20  1  0.22210984  0.87435288  0.13732928  1
  Al  Al21  1  0.89525194  0.87641377  0.62717855  1
  Al  Al22  1  0.44155109  0.75365038  0.38367705  1
  Al  Al23  1  0.55735597  0.86268338  0.14598085  1
  Al  Al24  1  0.22084026  0.87719334  0.63229429  1
  Al  Al25  1  0.78849530  0.75304949  0.38382559  1
  Al  Al26  1  0.89428601  0.87018506  0.14314851  1
  Al  Al27  1  0.44349699  0.75891636  0.88694004  1
  Sc  Sc28  1  0.43652345  0.10223540  0.36979394  1
  Sc  Sc29  1  0.56302363  0.20919449  0.12059911  1
  Sc  Sc30  1  0.43396337  0.09403794  0.88593855  1
  Sc  Sc31  1  0.56511878  0.20691875  0.63859230  1
  Sc  Sc32  1  0.21997958  0.53418329  0.61674419  1
  Sc  Sc33  1  0.78091851  0.75834270  0.88136422  1
  Sc  Sc34  1  0.11522850  0.76033904  0.88193787  1
  Sc  Sc35  1  0.55669772  0.86520774  0.61681625  1
  N  N36  1  0.19456664  0.21634573  0.32174133  1
  N  N37  1  0.11043694  0.09356085  0.07475235  1
  N  N38  1  0.88806832  0.20774326  0.82462312  1
  N  N39  1  0.79838471  0.08939837  0.57018385  1
  N  N40  1  0.56908645  0.21476790  0.33266548  1
  N  N41  1  0.43416899  0.08527587  0.10397285  1
  N  N42  1  0.19869943  0.21393986  0.82489698  1
  N  N43  1  0.10916275  0.09415630  0.57543206  1
  N  N44  1  0.88914454  0.20823134  0.32581725  1
  N  N45  1  0.80767027  0.08028216  0.07626265  1
  N  N46  1  0.56591950  0.21342778  0.85831424  1
  N  N47  1  0.42319424  0.11082335  0.58558177  1
  N  N48  1  0.22106883  0.53639862  0.33824660  1
  N  N49  1  0.10891628  0.42966222  0.07951727  1
  N  N50  1  0.89558967  0.51989710  0.82319430  1
  N  N51  1  0.77455078  0.42952653  0.57613296  1
  N  N52  1  0.55779809  0.53956310  0.32296889  1
  N  N53  1  0.42989271  0.45549116  0.07885429  1
  N  N54  1  0.23037054  0.51619079  0.82879169  1
  N  N55  1  0.09710474  0.41473007  0.56858057  1
  N  N56  1  0.88576406  0.53761145  0.32587300  1
  N  N57  1  0.77690767  0.42748666  0.07636649  1
  N  N58  1  0.55427092  0.53966443  0.82816622  1
  N  N59  1  0.45784283  0.43481115  0.56834715  1
  N  N60  1  0.22182239  0.87548551  0.32694106  1
  N  N61  1  0.11187548  0.76030925  0.09390986  1
  N  N62  1  0.88131843  0.89229247  0.81521857  1
  N  N63  1  0.80537377  0.74747707  0.57567591  1
  N  N64  1  0.56580889  0.85073849  0.34022418  1
  N  N65  1  0.44354327  0.76283375  0.07972045  1
  N  N66  1  0.23059398  0.88256728  0.82359947  1
  N  N67  1  0.10757845  0.77830661  0.57473703  1
  N  N68  1  0.88942019  0.87351170  0.33154701  1
  N  N69  1  0.77810138  0.76250069  0.09400045  1
  N  N70  1  0.54904862  0.86003885  0.82539772  1
  N  N71  1  0.43196963  0.75034386  0.57070037  1
