# generated using pymatgen
data_Sc2Al7N9
_symmetry_space_group_name_H-M   'P 1'
_cell_length_a   9.85170289
_cell_length_b   9.83273922
_cell_length_c   9.87540941
_cell_angle_alpha   90.02405499
_cell_angle_beta   89.95310067
_cell_angle_gamma   59.70730537
_symmetry_Int_Tables_number   1
_chemical_formula_structural   Sc2Al7N9
_chemical_formula_sum   'Sc8 Al28 N36'
_cell_volume   826.00513735
_cell_formula_units_Z   4
loop_
 _symmetry_equiv_pos_site_id
 _symmetry_equiv_pos_as_xyz
  1  'x, y, z'
loop_
 _atom_site_type_symbol
 _atom_site_label
 _atom_site_symmetry_multiplicity
 _atom_site_fract_x
 _atom_site_fract_y
 _atom_site_fract_z
 _atom_site_occupancy
  Al  Al0  1  0.10288100  0.09777848  0.32492379  1
  Al  Al1  1  0.21025087  0.20738100  0.07583730  1
  Al  Al2  1  0.78638733  0.09927052  0.82308771  1
  Al  Al3  1  0.89375388  0.20617801  0.57619468  1
  Al  Al4  1  0.10676730  0.09731485  0.82432657  1
  Al  Al5  1  0.20594906  0.20759442  0.57271731  1
  Al  Al6  1  0.78868595  0.09490142  0.32614971  1
  Al  Al7  1  0.89384537  0.20606150  0.07333650  1
  Al  Al8  1  0.10473211  0.43047983  0.32267769  1
  Al  Al9  1  0.22132229  0.53522175  0.07521845  1
  Al  Al10  1  0.77663282  0.42592842  0.82517627  1
  Al  Al11  1  0.88915250  0.53428010  0.57118303  1
  Al  Al12  1  0.44166806  0.43875959  0.32117494  1
  Al  Al13  1  0.55488207  0.54400402  0.07516129  1
  Al  Al14  1  0.10341511  0.41892187  0.82713083  1
  Al  Al15  1  0.77603115  0.42738300  0.32614637  1
  Al  Al16  1  0.89013213  0.53065298  0.07968229  1
  Al  Al17  1  0.45016474  0.43075133  0.82759942  1
  Al  Al18  1  0.55552551  0.54125900  0.57396535  1
  Al  Al19  1  0.11364699  0.75955224  0.31909661  1
  Al  Al20  1  0.22532130  0.87746166  0.08018504  1
  Al  Al21  1  0.89784252  0.87069326  0.56891038  1
  Al  Al22  1  0.44614931  0.75598675  0.32323266  1
  Al  Al23  1  0.55271917  0.86511003  0.07254106  1
  Al  Al24  1  0.21832811  0.87510446  0.57091737  1
  Al  Al25  1  0.78158384  0.75605734  0.32022290  1
  Al  Al26  1  0.89256492  0.87672548  0.08295502  1
  Al  Al27  1  0.43984219  0.75700350  0.82568439  1
  Sc  Sc28  1  0.43754058  0.09376887  0.33251034  1
  Sc  Sc29  1  0.56371242  0.20827030  0.08738315  1
  Sc  Sc30  1  0.43397229  0.10217292  0.83940744  1
  Sc  Sc31  1  0.56368515  0.20823073  0.58172720  1
  Sc  Sc32  1  0.21608215  0.53834625  0.58574764  1
  Sc  Sc33  1  0.78891341  0.75447366  0.84182728  1
  Sc  Sc34  1  0.11472726  0.76610912  0.84111568  1
  Sc  Sc35  1  0.56088029  0.86120021  0.58691567  1
  N  N36  1  0.19588799  0.21731624  0.37988094  1
  N  N37  1  0.10812205  0.09638360  0.13313173  1
  N  N38  1  0.88919379  0.20842500  0.87892743  1
  N  N39  1  0.80280579  0.08359686  0.62946871  1
  N  N40  1  0.56461386  0.21551338  0.35801195  1
  N  N41  1  0.43418205  0.08729099  0.10925081  1
  N  N42  1  0.19726405  0.21267419  0.88590142  1
  N  N43  1  0.11023221  0.09193556  0.62960662  1
  N  N44  1  0.88825507  0.20876392  0.38343887  1
  N  N45  1  0.80369017  0.08788669  0.13691455  1
  N  N46  1  0.56964960  0.21407432  0.86615933  1
  N  N47  1  0.42315202  0.10606938  0.61407624  1
  N  N48  1  0.21996648  0.53831236  0.36842900  1
  N  N49  1  0.11027486  0.42715192  0.13033881  1
  N  N50  1  0.89458802  0.51652777  0.88936262  1
  N  N51  1  0.77468279  0.43111914  0.62866052  1
  N  N52  1  0.55530890  0.53971622  0.37975111  1
  N  N53  1  0.43394225  0.45174928  0.12907309  1
  N  N54  1  0.22941431  0.51455978  0.87655466  1
  N  N55  1  0.09598412  0.41575986  0.63470176  1
  N  N56  1  0.88701534  0.53850591  0.37503904  1
  N  N57  1  0.77543131  0.42641389  0.13228121  1
  N  N58  1  0.55593740  0.54040956  0.88245945  1
  N  N59  1  0.45166947  0.44082889  0.63647538  1
  N  N60  1  0.22200187  0.87293423  0.37393341  1
  N  N61  1  0.11526521  0.75915526  0.12030898  1
  N  N62  1  0.88034380  0.89682678  0.89387002  1
  N  N63  1  0.80630833  0.74879501  0.62543382  1
  N  N64  1  0.56690974  0.85049195  0.37178898  1
  N  N65  1  0.44490177  0.76024174  0.13058594  1
  N  N66  1  0.23133850  0.88655581  0.88869232  1
  N  N67  1  0.10590161  0.77828170  0.62576179  1
  N  N68  1  0.89104566  0.87038042  0.37178849  1
  N  N69  1  0.77952394  0.75987661  0.12074281  1
  N  N70  1  0.54976835  0.85861518  0.87434087  1
  N  N71  1  0.43024245  0.75318101  0.63274973  1
