# generated using pymatgen
data_Sc2Al7N9
_symmetry_space_group_name_H-M   'P 1'
_cell_length_a   10.00236951
_cell_length_b   9.98249572
_cell_length_c   9.44659122
_cell_angle_alpha   90.00208112
_cell_angle_beta   89.94884702
_cell_angle_gamma   59.67084404
_symmetry_Int_Tables_number   1
_chemical_formula_structural   Sc2Al7N9
_chemical_formula_sum   'Sc8 Al28 N36'
_cell_volume   814.13700895
_cell_formula_units_Z   4
loop_
 _symmetry_equiv_pos_site_id
 _symmetry_equiv_pos_as_xyz
  1  'x, y, z'
loop_
 _atom_site_type_symbol
 _atom_site_label
 _atom_site_symmetry_multiplicity
 _atom_site_fract_x
 _atom_site_fract_y
 _atom_site_fract_z
 _atom_site_occupancy
  Al  Al0  1  0.10167937  0.09857155  0.32801848  1
  Al  Al1  1  0.20951817  0.20758179  0.08215795  1
  Al  Al2  1  0.78726371  0.09833944  0.82558013  1
  Al  Al3  1  0.89395319  0.20673550  0.58080993  1
  Al  Al4  1  0.10757527  0.09656083  0.82762260  1
  Al  Al5  1  0.20563161  0.20731152  0.57509215  1
  Al  Al6  1  0.78839790  0.09676710  0.33271346  1
  Al  Al7  1  0.89295422  0.20681294  0.07534138  1
  Al  Al8  1  0.10499863  0.43017258  0.32669312  1
  Al  Al9  1  0.22133841  0.53478585  0.08101384  1
  Al  Al10  1  0.77660394  0.42700100  0.82809054  1
  Al  Al11  1  0.88882242  0.53455807  0.57318684  1
  Al  Al12  1  0.44215634  0.43836213  0.32645000  1
  Al  Al13  1  0.55539450  0.54359484  0.07903166  1
  Al  Al14  1  0.10307317  0.41894834  0.83070008  1
  Al  Al15  1  0.77586541  0.42685779  0.32950636  1
  Al  Al16  1  0.89012441  0.52992533  0.08549229  1
  Al  Al17  1  0.44990362  0.43155005  0.83225687  1
  Al  Al18  1  0.55586053  0.54139613  0.57667990  1
  Al  Al19  1  0.11470078  0.75856019  0.32430128  1
  Al  Al20  1  0.22540049  0.87786263  0.08673795  1
  Al  Al21  1  0.89819986  0.86987268  0.57041349  1
  Al  Al22  1  0.44660212  0.75572469  0.32754415  1
  Al  Al23  1  0.55304557  0.86492930  0.08070070  1
  Al  Al24  1  0.21821589  0.87508836  0.57229111  1
  Al  Al25  1  0.78162660  0.75590000  0.32531542  1
  Al  Al26  1  0.89225037  0.87789451  0.09089282  1
  Al  Al27  1  0.43906256  0.75716725  0.82933710  1
  Sc  Sc28  1  0.43773701  0.09429567  0.34295612  1
  Sc  Sc29  1  0.56415647  0.20815711  0.09476587  1
  Sc  Sc30  1  0.43313631  0.10124559  0.84768116  1
  Sc  Sc31  1  0.56328085  0.20812708  0.59228600  1
  Sc  Sc32  1  0.21623224  0.53797336  0.59381945  1
  Sc  Sc33  1  0.78950895  0.75458821  0.84984475  1
  Sc  Sc34  1  0.11423113  0.76720032  0.84886192  1
  Sc  Sc35  1  0.56091681  0.86048071  0.59548254  1
  N  N36  1  0.19597726  0.21668605  0.37262519  1
  N  N37  1  0.10635066  0.09703895  0.12851047  1
  N  N38  1  0.88903127  0.20880165  0.87234651  1
  N  N39  1  0.80337193  0.08287971  0.62170848  1
  N  N40  1  0.56472235  0.21573715  0.35576525  1
  N  N41  1  0.43440336  0.08742501  0.10629628  1
  N  N42  1  0.19729220  0.21260663  0.88196689  1
  N  N43  1  0.11075669  0.09123583  0.62453403  1
  N  N44  1  0.88849364  0.20999649  0.38036215  1
  N  N45  1  0.80270069  0.08993683  0.13356827  1
  N  N46  1  0.56947099  0.21337527  0.85934833  1
  N  N47  1  0.42278330  0.10531859  0.60697807  1
  N  N48  1  0.22029614  0.53748163  0.36437548  1
  N  N49  1  0.11024280  0.42743514  0.12615293  1
  N  N50  1  0.89453415  0.51685949  0.88564748  1
  N  N51  1  0.77452717  0.43210153  0.62381724  1
  N  N52  1  0.55585803  0.53957034  0.37446145  1
  N  N53  1  0.43454664  0.45085964  0.12358564  1
  N  N54  1  0.22854461  0.51553834  0.87007921  1
  N  N55  1  0.09574117  0.41562049  0.62832614  1
  N  N56  1  0.88680512  0.53797458  0.36840282  1
  N  N57  1  0.77527042  0.42575506  0.12783008  1
  N  N58  1  0.55642070  0.54050697  0.87805398  1
  N  N59  1  0.45160010  0.44144883  0.63024224  1
  N  N60  1  0.22189606  0.87329227  0.36687722  1
  N  N61  1  0.11583203  0.75861604  0.11632635  1
  N  N62  1  0.88065147  0.89673600  0.89058527  1
  N  N63  1  0.80641922  0.74867642  0.61967653  1
  N  N64  1  0.56679391  0.85077675  0.36660950  1
  N  N65  1  0.44517922  0.75961583  0.12640953  1
  N  N66  1  0.23118623  0.88661895  0.88558287  1
  N  N67  1  0.10620928  0.77803979  0.61967938  1
  N  N68  1  0.89149962  0.87014697  0.36410778  1
  N  N69  1  0.77963067  0.75963731  0.11665187  1
  N  N70  1  0.55036479  0.85821512  0.86651020  1
  N  N71  1  0.42968331  0.75324741  0.62638961  1
