# generated using pymatgen
data_Sc11Al25N36
_symmetry_space_group_name_H-M   'P 1'
_cell_length_a   10.32507523
_cell_length_b   10.31782881
_cell_length_c   8.90407879
_cell_angle_alpha   89.92737077
_cell_angle_beta   89.98708773
_cell_angle_gamma   59.96143538
_symmetry_Int_Tables_number   1
_chemical_formula_structural   Sc11Al25N36
_chemical_formula_sum   'Sc11 Al25 N36'
_cell_volume   821.16772542
_cell_formula_units_Z   1
loop_
 _symmetry_equiv_pos_site_id
 _symmetry_equiv_pos_as_xyz
  1  'x, y, z'
loop_
 _atom_site_type_symbol
 _atom_site_label
 _atom_site_symmetry_multiplicity
 _atom_site_fract_x
 _atom_site_fract_y
 _atom_site_fract_z
 _atom_site_occupancy
  Sc  Sc0  1  0.11397341  0.09088951  0.35918173  1
  Sc  Sc1  1  0.21841671  0.22005809  0.10424800  1
  Sc  Sc2  1  0.77740826  0.09295630  0.85234186  1
  Sc  Sc3  1  0.55354879  0.20900358  0.10808226  1
  Sc  Sc4  1  0.11236070  0.09635333  0.84863578  1
  Sc  Sc5  1  0.55236760  0.53684410  0.10111874  1
  Sc  Sc6  1  0.78412904  0.43102551  0.35212154  1
  Sc  Sc7  1  0.55649823  0.53320462  0.60933676  1
  Sc  Sc8  1  0.22039667  0.86395971  0.10262823  1
  Sc  Sc9  1  0.89339605  0.86506396  0.60001187  1
  Sc  Sc10  1  0.56034195  0.87090139  0.10414652  1
  Al  Al11  1  0.88664819  0.21064126  0.61054210  1
  Al  Al12  1  0.44482956  0.09663008  0.35771313  1
  Al  Al13  1  0.22222848  0.21376141  0.60111772  1
  Al  Al14  1  0.77616698  0.09359369  0.35899881  1
  Al  Al15  1  0.89042707  0.20314164  0.11375207  1
  Al  Al16  1  0.44451516  0.09770364  0.82171838  1
  Al  Al17  1  0.55188106  0.20885490  0.59589082  1
  Al  Al18  1  0.11043806  0.43796626  0.38041809  1
  Al  Al19  1  0.21091857  0.54151509  0.12201745  1
  Al  Al20  1  0.78257921  0.43104135  0.86498930  1
  Al  Al21  1  0.88947364  0.53821414  0.62344204  1
  Al  Al22  1  0.43420472  0.43086241  0.37013345  1
  Al  Al23  1  0.11028988  0.43708413  0.85567925  1
  Al  Al24  1  0.22143281  0.53866934  0.61744849  1
  Al  Al25  1  0.89837602  0.54278000  0.11109692  1
  Al  Al26  1  0.43105757  0.42978219  0.86090964  1
  Al  Al27  1  0.11824071  0.75151357  0.36373403  1
  Al  Al28  1  0.78264242  0.75676335  0.86314931  1
  Al  Al29  1  0.44219607  0.76113614  0.37849475  1
  Al  Al30  1  0.11178828  0.74877159  0.86858814  1
  Al  Al31  1  0.22307745  0.86502246  0.61421955  1
  Al  Al32  1  0.77988547  0.75667419  0.36666314  1
  Al  Al33  1  0.89304697  0.86488350  0.11823901  1
  Al  Al34  1  0.44503542  0.76045696  0.85093618  1
  Al  Al35  1  0.55667364  0.87074373  0.60385405  1
  N  N36  1  0.22449780  0.22290793  0.36653573  1
  N  N37  1  0.10048595  0.10137162  0.10046810  1
  N  N38  1  0.87970808  0.22329802  0.84014941  1
  N  N39  1  0.77039726  0.10896245  0.59407822  1
  N  N40  1  0.55581606  0.20857602  0.36081170  1
  N  N41  1  0.44322725  0.09580749  0.13059965  1
  N  N42  1  0.23152362  0.21698358  0.83698625  1
  N  N43  1  0.11155958  0.09186886  0.60217932  1
  N  N44  1  0.88074647  0.19797701  0.34480438  1
  N  N45  1  0.79473528  0.08275580  0.10307236  1
  N  N46  1  0.53888022  0.21369508  0.84422458  1
  N  N47  1  0.44725942  0.09285099  0.59584194  1
  N  N48  1  0.22068663  0.53668251  0.34252431  1
  N  N49  1  0.10231281  0.44864336  0.07558856  1
  N  N50  1  0.88737504  0.54127304  0.84170078  1
  N  N51  1  0.79577599  0.42232669  0.59644561  1
  N  N52  1  0.53925163  0.54584576  0.35376558  1
  N  N53  1  0.41683366  0.44040733  0.08681641  1
  N  N54  1  0.21984790  0.54105446  0.83259002  1
  N  N55  1  0.10552150  0.43641546  0.59992879  1
  N  N56  1  0.90427379  0.54795897  0.33468937  1
  N  N57  1  0.79706753  0.42181369  0.09405702  1
  N  N58  1  0.55855888  0.53273483  0.84932571  1
  N  N59  1  0.43145828  0.42026248  0.59279637  1
  N  N60  1  0.23251397  0.85311257  0.35083304  1
  N  N61  1  0.10139948  0.74939999  0.09482476  1
  N  N62  1  0.89970005  0.85279670  0.84288893  1
  N  N63  1  0.77104700  0.74871191  0.58993721  1
  N  N64  1  0.55609544  0.86639748  0.36109384  1
  N  N65  1  0.44583459  0.76105019  0.07312119  1
  N  N66  1  0.22422254  0.85266088  0.84046912  1
  N  N67  1  0.12924760  0.74845926  0.58309256  1
  N  N68  1  0.88818369  0.86997503  0.34530738  1
  N  N69  1  0.79360716  0.75414459  0.08860775  1
  N  N70  1  0.55787902  0.87734725  0.83806298  1
  N  N71  1  0.43677578  0.77566178  0.60457807  1
