# generated using pymatgen
data_Sc11Al25N36
_symmetry_space_group_name_H-M   'P 1'
_cell_length_a   9.96197698
_cell_length_b   9.93806148
_cell_length_c   10.03388869
_cell_angle_alpha   90.04699778
_cell_angle_beta   89.85711263
_cell_angle_gamma   59.84112600
_symmetry_Int_Tables_number   1
_chemical_formula_structural   Sc11Al25N36
_chemical_formula_sum   'Sc11 Al25 N36'
_cell_volume   858.90874642
_cell_formula_units_Z   1
loop_
 _symmetry_equiv_pos_site_id
 _symmetry_equiv_pos_as_xyz
  1  'x, y, z'
loop_
 _atom_site_type_symbol
 _atom_site_label
 _atom_site_symmetry_multiplicity
 _atom_site_fract_x
 _atom_site_fract_y
 _atom_site_fract_z
 _atom_site_occupancy
  Sc  Sc0  1  0.11165741  0.09660382  0.34452403  1
  Sc  Sc1  1  0.21717466  0.21504069  0.07650387  1
  Sc  Sc2  1  0.77103496  0.09968537  0.84192588  1
  Sc  Sc3  1  0.54878420  0.20911208  0.09502920  1
  Sc  Sc4  1  0.11310427  0.09348182  0.81731058  1
  Sc  Sc5  1  0.56523331  0.52035241  0.07033740  1
  Sc  Sc6  1  0.77817395  0.43392527  0.33878032  1
  Sc  Sc7  1  0.55148505  0.53799311  0.60527228  1
  Sc  Sc8  1  0.21627730  0.86609229  0.09038514  1
  Sc  Sc9  1  0.88815347  0.87226917  0.58542537  1
  Sc  Sc10  1  0.56496104  0.87034632  0.08542437  1
  Al  Al11  1  0.88363024  0.20629811  0.57129558  1
  Al  Al12  1  0.44532004  0.09733912  0.33612184  1
  Al  Al13  1  0.22496773  0.21491210  0.57429895  1
  Al  Al14  1  0.78136674  0.08794799  0.31970458  1
  Al  Al15  1  0.89299814  0.20908606  0.07608940  1
  Al  Al16  1  0.44411030  0.09785320  0.81323678  1
  Al  Al17  1  0.55303768  0.20794222  0.56686837  1
  Al  Al18  1  0.11315479  0.43857271  0.32589746  1
  Al  Al19  1  0.21177929  0.54271370  0.07452914  1
  Al  Al20  1  0.78775040  0.42937710  0.81748870  1
  Al  Al21  1  0.89636847  0.53901229  0.57531545  1
  Al  Al22  1  0.43223421  0.43751458  0.32916377  1
  Al  Al23  1  0.11062439  0.43353777  0.82050395  1
  Al  Al24  1  0.22091411  0.53511898  0.57263471  1
  Al  Al25  1  0.89521141  0.53902093  0.07387083  1
  Al  Al26  1  0.43099732  0.42268348  0.81886179  1
  Al  Al27  1  0.10785184  0.75278718  0.32383060  1
  Al  Al28  1  0.77667032  0.75483982  0.82220990  1
  Al  Al29  1  0.44487794  0.75939001  0.38853367  1
  Al  Al30  1  0.11991455  0.74850337  0.82189391  1
  Al  Al31  1  0.21917542  0.86881819  0.57032709  1
  Al  Al32  1  0.78749605  0.76011856  0.32429305  1
  Al  Al33  1  0.89750528  0.85881209  0.07156143  1
  Al  Al34  1  0.44487048  0.76132559  0.87157477  1
  Al  Al35  1  0.55665546  0.87594535  0.57566812  1
  N  N36  1  0.23029149  0.22397458  0.38469502  1
  N  N37  1  0.09777052  0.10326044  0.13024156  1
  N  N38  1  0.88201072  0.22644091  0.88587628  1
  N  N39  1  0.76353638  0.11607574  0.62970454  1
  N  N40  1  0.55829416  0.20672553  0.37066420  1
  N  N41  1  0.43786231  0.09451330  0.15077659  1
  N  N42  1  0.22932364  0.21515171  0.86155464  1
  N  N43  1  0.11035494  0.09372698  0.60009115  1
  N  N44  1  0.87412616  0.19781204  0.38437389  1
  N  N45  1  0.79798089  0.08204459  0.12035858  1
  N  N46  1  0.53193459  0.21560095  0.88218468  1
  N  N47  1  0.44841486  0.09502728  0.61982418  1
  N  N48  1  0.21926557  0.54169107  0.38453700  1
  N  N49  1  0.10139733  0.44686893  0.13554599  1
  N  N50  1  0.89041280  0.53919213  0.87928589  1
  N  N51  1  0.80300411  0.41787561  0.62393565  1
  N  N52  1  0.53976122  0.54263802  0.37835719  1
  N  N53  1  0.41639243  0.44424163  0.14036158  1
  N  N54  1  0.22016439  0.53745066  0.88145848  1
  N  N55  1  0.10954953  0.43319616  0.63100520  1
  N  N56  1  0.90254560  0.55141583  0.38752796  1
  N  N57  1  0.79911123  0.42198314  0.12834314  1
  N  N58  1  0.55747568  0.53341978  0.84323862  1
  N  N59  1  0.42868940  0.41437048  0.62962802  1
  N  N60  1  0.22595614  0.85185926  0.36918028  1
  N  N61  1  0.09956993  0.74818891  0.13488873  1
  N  N62  1  0.90025235  0.84946139  0.87323012  1
  N  N63  1  0.76804621  0.75101064  0.63291715  1
  N  N64  1  0.56255071  0.87012355  0.37481668  1
  N  N65  1  0.45208560  0.75101772  0.07159170  1
  N  N66  1  0.22422514  0.85665937  0.86995789  1
  N  N67  1  0.13078371  0.74812445  0.63088266  1
  N  N68  1  0.88829578  0.87400204  0.37370431  1
  N  N69  1  0.79952912  0.74926296  0.13367265  1
  N  N70  1  0.55532616  0.87865875  0.86487764  1
  N  N71  1  0.43338477  0.78321881  0.58840981  1
