# generated using pymatgen
data_Sc11Al25N36
_symmetry_space_group_name_H-M   'P 1'
_cell_length_a   9.86242366
_cell_length_b   9.87047229
_cell_length_c   10.17972121
_cell_angle_alpha   89.98800377
_cell_angle_beta   89.94706762
_cell_angle_gamma   59.95981867
_symmetry_Int_Tables_number   1
_chemical_formula_structural   Sc11Al25N36
_chemical_formula_sum   'Sc11 Al25 N36'
_cell_volume   857.85110465
_cell_formula_units_Z   1
loop_
 _symmetry_equiv_pos_site_id
 _symmetry_equiv_pos_as_xyz
  1  'x, y, z'
loop_
 _atom_site_type_symbol
 _atom_site_label
 _atom_site_symmetry_multiplicity
 _atom_site_fract_x
 _atom_site_fract_y
 _atom_site_fract_z
 _atom_site_occupancy
  Sc  Sc0  1  0.11333560  0.09086104  0.41793729  1
  Sc  Sc1  1  0.21707157  0.21614447  0.15366193  1
  Sc  Sc2  1  0.77760171  0.09030711  0.89868879  1
  Sc  Sc3  1  0.55533924  0.20737310  0.15727519  1
  Sc  Sc4  1  0.11278231  0.09613840  0.88737549  1
  Sc  Sc5  1  0.55066909  0.53906789  0.15053650  1
  Sc  Sc6  1  0.78272943  0.42987346  0.39599083  1
  Sc  Sc7  1  0.55719608  0.53535847  0.65214286  1
  Sc  Sc8  1  0.21523469  0.87014541  0.14901619  1
  Sc  Sc9  1  0.89253028  0.86531735  0.64074406  1
  Sc  Sc10  1  0.56008098  0.87216051  0.15317352  1
  Al  Al11  1  0.88540686  0.21347333  0.66229072  1
  Al  Al12  1  0.44644824  0.09532290  0.42040482  1
  Al  Al13  1  0.22474715  0.21321183  0.65993207  1
  Al  Al14  1  0.77276860  0.09684371  0.41207758  1
  Al  Al15  1  0.89060432  0.20077017  0.15766253  1
  Al  Al16  1  0.44302871  0.09951603  0.89776646  1
  Al  Al17  1  0.54766006  0.20991624  0.65726237  1
  Al  Al18  1  0.11378712  0.43552268  0.41245089  1
  Al  Al19  1  0.21165361  0.54267660  0.15691396  1
  Al  Al20  1  0.78017110  0.43241155  0.91342060  1
  Al  Al21  1  0.89147311  0.53544087  0.66114054  1
  Al  Al22  1  0.43529086  0.42765916  0.41372055  1
  Al  Al23  1  0.10975021  0.43633763  0.90421603  1
  Al  Al24  1  0.22215939  0.53556391  0.65928772  1
  Al  Al25  1  0.89718651  0.54380055  0.15410880  1
  Al  Al26  1  0.43377350  0.43194921  0.90519574  1
  Al  Al27  1  0.12088774  0.75118283  0.40857991  1
  Al  Al28  1  0.78355084  0.75506591  0.90590364  1
  Al  Al29  1  0.44038434  0.76471703  0.41740782  1
  Al  Al30  1  0.11202119  0.74811428  0.90781869  1
  Al  Al31  1  0.22697290  0.86318413  0.66404813  1
  Al  Al32  1  0.77696329  0.75914765  0.41015459  1
  Al  Al33  1  0.89295819  0.86577333  0.16252382  1
  Al  Al34  1  0.44790074  0.75702796  0.90213683  1
  Al  Al35  1  0.55358988  0.87296713  0.65902537  1
  N  N36  1  0.23038922  0.21611642  0.36615994  1
  N  N37  1  0.09589655  0.10454843  0.09850581  1
  N  N38  1  0.87359960  0.22850545  0.84665600  1
  N  N39  1  0.76792918  0.11453873  0.60506279  1
  N  N40  1  0.55374105  0.20467843  0.36707635  1
  N  N41  1  0.44418189  0.09679796  0.08253877  1
  N  N42  1  0.22878142  0.22245069  0.84720691  1
  N  N43  1  0.11259563  0.09169716  0.63210901  1
  N  N44  1  0.88264083  0.19297455  0.34522665  1
  N  N45  1  0.79559149  0.08079933  0.10755634  1
  N  N46  1  0.53863061  0.21783122  0.84638524  1
  N  N47  1  0.44587054  0.09280702  0.60859826  1
  N  N48  1  0.22264212  0.53749220  0.34803563  1
  N  N49  1  0.10222387  0.44706768  0.09045712  1
  N  N50  1  0.88841047  0.53883815  0.85097639  1
  N  N51  1  0.79936967  0.41907159  0.60180358  1
  N  N52  1  0.53676038  0.54684084  0.36889321  1
  N  N53  1  0.41904175  0.43825997  0.09184886  1
  N  N54  1  0.22061208  0.53885176  0.84594682  1
  N  N55  1  0.10831818  0.43296610  0.60240598  1
  N  N56  1  0.90344653  0.55069851  0.34269719  1
  N  N57  1  0.79670642  0.42142025  0.10786085  1
  N  N58  1  0.55867343  0.53516979  0.86653927  1
  N  N59  1  0.43116311  0.41937101  0.59999108  1
  N  N60  1  0.22995566  0.85671918  0.35794178  1
  N  N61  1  0.09923472  0.75069095  0.09735013  1
  N  N62  1  0.90051777  0.84951681  0.84702674  1
  N  N63  1  0.76719338  0.74704294  0.59745444  1
  N  N64  1  0.55323111  0.87413293  0.36497382  1
  N  N65  1  0.44425828  0.76356827  0.08585128  1
  N  N66  1  0.23100412  0.84639248  0.85258100  1
  N  N67  1  0.13512674  0.74619393  0.59558410  1
  N  N68  1  0.88922972  0.87106116  0.36424514  1
  N  N69  1  0.79450008  0.75471910  0.09525610  1
  N  N70  1  0.55787998  0.87192965  0.85030087  1
  N  N71  1  0.43536529  0.77920789  0.60504163  1
