# generated using pymatgen
data_Sc11Al25N36
_symmetry_space_group_name_H-M   'P 1'
_cell_length_a   10.08242175
_cell_length_b   10.08406209
_cell_length_c   9.61125416
_cell_angle_alpha   89.90110209
_cell_angle_beta   89.96481557
_cell_angle_gamma   59.97770622
_symmetry_Int_Tables_number   1
_chemical_formula_structural   Sc11Al25N36
_chemical_formula_sum   'Sc11 Al25 N36'
_cell_volume   846.08265654
_cell_formula_units_Z   1
loop_
 _symmetry_equiv_pos_site_id
 _symmetry_equiv_pos_as_xyz
  1  'x, y, z'
loop_
 _atom_site_type_symbol
 _atom_site_label
 _atom_site_symmetry_multiplicity
 _atom_site_fract_x
 _atom_site_fract_y
 _atom_site_fract_z
 _atom_site_occupancy
  Sc  Sc0  1  0.11365546  0.08749875  0.37368920  1
  Sc  Sc1  1  0.21354713  0.22180181  0.11901251  1
  Sc  Sc2  1  0.78019374  0.08944742  0.85604021  1
  Sc  Sc3  1  0.55936251  0.20869953  0.11652469  1
  Sc  Sc4  1  0.11196804  0.09854426  0.85611526  1
  Sc  Sc5  1  0.54980130  0.53860408  0.11335646  1
  Sc  Sc6  1  0.78425605  0.42926968  0.35553101  1
  Sc  Sc7  1  0.55938005  0.53313148  0.61523795  1
  Sc  Sc8  1  0.21774712  0.86623843  0.10832519  1
  Sc  Sc9  1  0.89511979  0.86188800  0.60293064  1
  Sc  Sc10  1  0.56218802  0.86875796  0.11406274  1
  Al  Al11  1  0.88697786  0.21525402  0.62844409  1
  Al  Al12  1  0.44670195  0.09525190  0.34908761  1
  Al  Al13  1  0.22080947  0.21447276  0.61054619  1
  Al  Al14  1  0.77228711  0.09754488  0.38392919  1
  Al  Al15  1  0.89042115  0.19771448  0.12635427  1
  Al  Al16  1  0.44246075  0.09877396  0.81797666  1
  Al  Al17  1  0.54908639  0.21089101  0.61608357  1
  Al  Al18  1  0.11078441  0.43957650  0.38606262  1
  Al  Al19  1  0.21025699  0.54318951  0.12887915  1
  Al  Al20  1  0.78161756  0.43244236  0.88518024  1
  Al  Al21  1  0.88945717  0.53593058  0.63152378  1
  Al  Al22  1  0.43478556  0.42867003  0.38236965  1
  Al  Al23  1  0.10908638  0.43773137  0.87075409  1
  Al  Al24  1  0.22180096  0.53755649  0.62938663  1
  Al  Al25  1  0.89861134  0.54617208  0.12408816  1
  Al  Al26  1  0.43120095  0.43256674  0.87408338  1
  Al  Al27  1  0.12405341  0.74992554  0.37600187  1
  Al  Al28  1  0.78596026  0.75534856  0.87455597  1
  Al  Al29  1  0.44030100  0.76301869  0.38702878  1
  Al  Al30  1  0.10899329  0.74798727  0.87907851  1
  Al  Al31  1  0.22487234  0.86372859  0.63440165  1
  Al  Al32  1  0.77595239  0.75725170  0.37961704  1
  Al  Al33  1  0.89240348  0.86710294  0.13475588  1
  Al  Al34  1  0.44782277  0.75656276  0.86636105  1
  Al  Al35  1  0.55583759  0.86988108  0.62101460  1
  N  N36  1  0.22436974  0.22103571  0.35762775  1
  N  N37  1  0.09773247  0.10334387  0.08598001  1
  N  N38  1  0.87651015  0.22971680  0.82564222  1
  N  N39  1  0.76982019  0.11261295  0.58956113  1
  N  N40  1  0.55670869  0.20786979  0.34923605  1
  N  N41  1  0.44313294  0.09764247  0.13049534  1
  N  N42  1  0.22788190  0.22204014  0.82841892  1
  N  N43  1  0.11188397  0.09036628  0.60295433  1
  N  N44  1  0.88028311  0.19241488  0.32548001  1
  N  N45  1  0.79935760  0.07758299  0.07936588  1
  N  N46  1  0.53857335  0.21696672  0.83263292  1
  N  N47  1  0.44677647  0.09227736  0.60172763  1
  N  N48  1  0.22213033  0.53691532  0.32807725  1
  N  N49  1  0.10068999  0.45099860  0.06697451  1
  N  N50  1  0.88689812  0.53969061  0.83009379  1
  N  N51  1  0.79976082  0.42001943  0.57528546  1
  N  N52  1  0.53786241  0.54578447  0.34906807  1
  N  N53  1  0.41544129  0.44121187  0.07186264  1
  N  N54  1  0.21969449  0.54038080  0.82407923  1
  N  N55  1  0.10537686  0.43783800  0.58454459  1
  N  N56  1  0.90438471  0.55144497  0.32182435  1
  N  N57  1  0.79764157  0.42124563  0.09116473  1
  N  N58  1  0.56004158  0.53323796  0.84426107  1
  N  N59  1  0.43027663  0.42069228  0.58045295  1
  N  N60  1  0.23311550  0.85223067  0.33122680  1
  N  N61  1  0.09744322  0.75025793  0.07886774  1
  N  N62  1  0.90164599  0.84796836  0.82089990  1
  N  N63  1  0.76797719  0.74605053  0.57709545  1
  N  N64  1  0.55559240  0.86689325  0.34534267  1
  N  N65  1  0.44565657  0.76113231  0.06153319  1
  N  N66  1  0.22695966  0.84957857  0.83581771  1
  N  N67  1  0.13620292  0.74617849  0.57281641  1
  N  N68  1  0.88755360  0.87183661  0.34514038  1
  N  N69  1  0.79687125  0.75537573  0.07398456  1
  N  N70  1  0.55850120  0.87355938  0.83167838  1
  N  N71  1  0.43468711  0.77783924  0.58879151  1
