# generated using pymatgen
data_Sc11Al25N36
_symmetry_space_group_name_H-M   'P 1'
_cell_length_a   9.93220828
_cell_length_b   9.91655654
_cell_length_c   10.06016405
_cell_angle_alpha   90.02238379
_cell_angle_beta   89.89168418
_cell_angle_gamma   59.88113635
_symmetry_Int_Tables_number   1
_chemical_formula_structural   Sc11Al25N36
_chemical_formula_sum   'Sc11 Al25 N36'
_cell_volume   857.07669354
_cell_formula_units_Z   1
loop_
 _symmetry_equiv_pos_site_id
 _symmetry_equiv_pos_as_xyz
  1  'x, y, z'
loop_
 _atom_site_type_symbol
 _atom_site_label
 _atom_site_symmetry_multiplicity
 _atom_site_fract_x
 _atom_site_fract_y
 _atom_site_fract_z
 _atom_site_occupancy
  Sc  Sc0  1  0.11216651  0.09582188  0.34442792  1
  Sc  Sc1  1  0.21746618  0.21476289  0.07687522  1
  Sc  Sc2  1  0.77117810  0.09936061  0.84097564  1
  Sc  Sc3  1  0.54947664  0.20914667  0.09441751  1
  Sc  Sc4  1  0.11247142  0.09410327  0.81626613  1
  Sc  Sc5  1  0.56128753  0.52707513  0.06579753  1
  Sc  Sc6  1  0.77758483  0.43400293  0.33647901  1
  Sc  Sc7  1  0.55254603  0.53628880  0.60081802  1
  Sc  Sc8  1  0.21819281  0.86620342  0.08559756  1
  Sc  Sc9  1  0.88844443  0.87221931  0.58427412  1
  Sc  Sc10  1  0.56297354  0.86963559  0.08047439  1
  Al  Al11  1  0.88419561  0.20631603  0.57079653  1
  Al  Al12  1  0.44536707  0.09674559  0.33589093  1
  Al  Al13  1  0.22492216  0.21485349  0.57391351  1
  Al  Al14  1  0.78116940  0.08816819  0.31953625  1
  Al  Al15  1  0.89227717  0.20925278  0.07595376  1
  Al  Al16  1  0.44353534  0.09841673  0.81273718  1
  Al  Al17  1  0.55288410  0.20748120  0.56685917  1
  Al  Al18  1  0.11299928  0.43863357  0.32593592  1
  Al  Al19  1  0.21234770  0.54283176  0.07525084  1
  Al  Al20  1  0.78762189  0.42950575  0.81737124  1
  Al  Al21  1  0.89625599  0.53882017  0.57512939  1
  Al  Al22  1  0.43269009  0.43706382  0.32897477  1
  Al  Al23  1  0.11063837  0.43355176  0.82052704  1
  Al  Al24  1  0.22085791  0.53532928  0.57261943  1
  Al  Al25  1  0.89463020  0.53939059  0.07401719  1
  Al  Al26  1  0.43097424  0.42288154  0.81833139  1
  Al  Al27  1  0.10876023  0.75310106  0.32398903  1
  Al  Al28  1  0.77777073  0.75429651  0.82197469  1
  Al  Al29  1  0.44587849  0.75724497  0.35483729  1
  Al  Al30  1  0.11990748  0.74825590  0.82217084  1
  Al  Al31  1  0.22283041  0.86681416  0.57011807  1
  Al  Al32  1  0.78627047  0.76033826  0.32426820  1
  Al  Al33  1  0.89738617  0.85918116  0.07289116  1
  Al  Al34  1  0.44265010  0.76536970  0.82680395  1
  Al  Al35  1  0.55540026  0.87447234  0.57561029  1
  N  N36  1  0.23024289  0.22403774  0.38479767  1
  N  N37  1  0.09748101  0.10316965  0.13096002  1
  N  N38  1  0.88195648  0.22623564  0.88611797  1
  N  N39  1  0.76387198  0.11592768  0.62952471  1
  N  N40  1  0.55826057  0.20650895  0.37126703  1
  N  N41  1  0.43928757  0.09322103  0.15100884  1
  N  N42  1  0.22900478  0.21507392  0.86219866  1
  N  N43  1  0.11084116  0.09366524  0.60011314  1
  N  N44  1  0.87402775  0.19835496  0.38442146  1
  N  N45  1  0.79818700  0.08188604  0.12127881  1
  N  N46  1  0.53204876  0.21546517  0.88209578  1
  N  N47  1  0.44828226  0.09473656  0.62038359  1
  N  N48  1  0.21940937  0.54176281  0.38482265  1
  N  N49  1  0.10127835  0.44697932  0.13609774  1
  N  N50  1  0.89062256  0.53919073  0.87984898  1
  N  N51  1  0.80371379  0.41725861  0.62498598  1
  N  N52  1  0.53948061  0.54268133  0.38311520  1
  N  N53  1  0.41792620  0.44418726  0.14060833  1
  N  N54  1  0.22042547  0.53735639  0.88233952  1
  N  N55  1  0.10964982  0.43308300  0.63132578  1
  N  N56  1  0.90195535  0.55123342  0.38763907  1
  N  N57  1  0.79682027  0.42266063  0.12693876  1
  N  N58  1  0.55644842  0.53599007  0.84321403  1
  N  N59  1  0.42873552  0.41388216  0.63009371  1
  N  N60  1  0.22755892  0.85111518  0.37559711  1
  N  N61  1  0.10068871  0.74891296  0.13568937  1
  N  N62  1  0.90044967  0.84953112  0.87475264  1
  N  N63  1  0.76843447  0.75088490  0.63341223  1
  N  N64  1  0.56029616  0.86952729  0.37979833  1
  N  N65  1  0.45175902  0.75157204  0.11769512  1
  N  N66  1  0.22770519  0.85508744  0.87094410  1
  N  N67  1  0.13088494  0.74815520  0.63198555  1
  N  N68  1  0.88827015  0.87388739  0.37333217  1
  N  N69  1  0.79786232  0.75010941  0.13426077  1
  N  N70  1  0.55421093  0.87695610  0.86464533  1
  N  N71  1  0.43311048  0.78343402  0.61816859  1
