# generated using pymatgen
data_Sc11Al25N36
_symmetry_space_group_name_H-M   'P 1'
_cell_length_a   9.92919290
_cell_length_b   9.93555648
_cell_length_c   10.00343902
_cell_angle_alpha   89.97244670
_cell_angle_beta   89.97123491
_cell_angle_gamma   59.96422976
_symmetry_Int_Tables_number   1
_chemical_formula_structural   Sc11Al25N36
_chemical_formula_sum   'Sc11 Al25 N36'
_cell_volume   854.33733029
_cell_formula_units_Z   1
loop_
 _symmetry_equiv_pos_site_id
 _symmetry_equiv_pos_as_xyz
  1  'x, y, z'
loop_
 _atom_site_type_symbol
 _atom_site_label
 _atom_site_symmetry_multiplicity
 _atom_site_fract_x
 _atom_site_fract_y
 _atom_site_fract_z
 _atom_site_occupancy
  Sc  Sc0  1  0.11396917  0.08938075  0.38568944  1
  Sc  Sc1  1  0.21709476  0.21763512  0.12562173  1
  Sc  Sc2  1  0.77920644  0.08957228  0.86498361  1
  Sc  Sc3  1  0.55705832  0.20686430  0.12501716  1
  Sc  Sc4  1  0.11243369  0.09762318  0.85939200  1
  Sc  Sc5  1  0.55032764  0.53866940  0.12164989  1
  Sc  Sc6  1  0.78390599  0.42909030  0.36353452  1
  Sc  Sc7  1  0.55794015  0.53471571  0.62007459  1
  Sc  Sc8  1  0.21628406  0.86883732  0.11618781  1
  Sc  Sc9  1  0.89346413  0.86380536  0.60870910  1
  Sc  Sc10  1  0.56049436  0.87184094  0.12250308  1
  Al  Al11  1  0.88591760  0.21451740  0.63308708  1
  Al  Al12  1  0.44666934  0.09538843  0.39130841  1
  Al  Al13  1  0.22446648  0.21355287  0.62990703  1
  Al  Al14  1  0.77149765  0.09750853  0.38561365  1
  Al  Al15  1  0.89076115  0.19915729  0.12935014  1
  Al  Al16  1  0.44236592  0.09987141  0.87013536  1
  Al  Al17  1  0.54675337  0.21022611  0.63055219  1
  Al  Al18  1  0.11322313  0.43645522  0.38569221  1
  Al  Al19  1  0.21112635  0.54283362  0.12980344  1
  Al  Al20  1  0.78027304  0.43284620  0.88653612  1
  Al  Al21  1  0.89059617  0.53565400  0.63304207  1
  Al  Al22  1  0.43522361  0.42681393  0.38519879  1
  Al  Al23  1  0.10945913  0.43683351  0.87561979  1
  Al  Al24  1  0.22233470  0.53591720  0.63145270  1
  Al  Al25  1  0.89784833  0.54475596  0.12654598  1
  Al  Al26  1  0.43306078  0.43277870  0.87723099  1
  Al  Al27  1  0.12263236  0.75056376  0.37994672  1
  Al  Al28  1  0.78445467  0.75512781  0.87757492  1
  Al  Al29  1  0.44004005  0.76495531  0.38904464  1
  Al  Al30  1  0.11070705  0.74793141  0.88013423  1
  Al  Al31  1  0.22661594  0.86339633  0.63707244  1
  Al  Al32  1  0.77583657  0.75892798  0.38210530  1
  Al  Al33  1  0.89287846  0.86633483  0.13560373  1
  Al  Al34  1  0.44857087  0.75628111  0.87294329  1
  Al  Al35  1  0.55356836  0.87314153  0.63156404  1
  N  N36  1  0.22985476  0.21726068  0.34184853  1
  N  N37  1  0.09664648  0.10494632  0.07557994  1
  N  N38  1  0.87465185  0.22966798  0.82110698  1
  N  N39  1  0.76736948  0.11449287  0.58254516  1
  N  N40  1  0.55406578  0.20441795  0.33928510  1
  N  N41  1  0.44333371  0.09727003  0.05814058  1
  N  N42  1  0.22854495  0.22276176  0.82122064  1
  N  N43  1  0.11259862  0.09130384  0.60418538  1
  N  N44  1  0.88181192  0.19166280  0.32019095  1
  N  N45  1  0.79748090  0.07924678  0.07818289  1
  N  N46  1  0.53831115  0.21809304  0.82323261  1
  N  N47  1  0.44629768  0.09275110  0.58285913  1
  N  N48  1  0.22257835  0.53721482  0.32287793  1
  N  N49  1  0.10186569  0.44796720  0.06445607  1
  N  N50  1  0.88785561  0.53907541  0.82552234  1
  N  N51  1  0.79997464  0.41917569  0.57335111  1
  N  N52  1  0.53720586  0.54628013  0.34515999  1
  N  N53  1  0.41787292  0.43918582  0.06692186  1
  N  N54  1  0.22044744  0.53923083  0.82029307  1
  N  N55  1  0.10758885  0.43425901  0.57761510  1
  N  N56  1  0.90396457  0.55135772  0.31748672  1
  N  N57  1  0.79698858  0.42134022  0.08506232  1
  N  N58  1  0.55913666  0.53459437  0.83980764  1
  N  N59  1  0.43104816  0.41863116  0.57461789  1
  N  N60  1  0.23111845  0.85504015  0.32922226  1
  N  N61  1  0.09834722  0.75032790  0.07255780  1
  N  N62  1  0.90121762  0.84816733  0.81859674  1
  N  N63  1  0.76614349  0.74703279  0.57202790  1
  N  N64  1  0.55274804  0.87407315  0.33791149  1
  N  N65  1  0.44590541  0.76189179  0.05979559  1
  N  N66  1  0.22974736  0.84763828  0.82969576  1
  N  N67  1  0.13649087  0.74591302  0.56971052  1
  N  N68  1  0.88857518  0.87143521  0.34077000  1
  N  N69  1  0.79539250  0.75507658  0.06981227  1
  N  N70  1  0.55807853  0.87229030  0.82578712  1
  N  N71  1  0.43487875  0.77977902  0.58053023  1
