# generated using pymatgen
data_Sc11Al25N36
_symmetry_space_group_name_H-M   'P 1'
_cell_length_a   10.21090334
_cell_length_b   10.20301972
_cell_length_c   9.22889817
_cell_angle_alpha   89.92079413
_cell_angle_beta   89.94021598
_cell_angle_gamma   59.99760708
_symmetry_Int_Tables_number   1
_chemical_formula_structural   Sc11Al25N36
_chemical_formula_sum   'Sc11 Al25 N36'
_cell_volume   832.64993694
_cell_formula_units_Z   1
loop_
 _symmetry_equiv_pos_site_id
 _symmetry_equiv_pos_as_xyz
  1  'x, y, z'
loop_
 _atom_site_type_symbol
 _atom_site_label
 _atom_site_symmetry_multiplicity
 _atom_site_fract_x
 _atom_site_fract_y
 _atom_site_fract_z
 _atom_site_occupancy
  Sc  Sc0  1  0.11255291  0.09153599  0.35340976  1
  Sc  Sc1  1  0.21988965  0.21717450  0.09607971  1
  Sc  Sc2  1  0.77185940  0.09785634  0.85191459  1
  Sc  Sc3  1  0.54977617  0.21007507  0.10571153  1
  Sc  Sc4  1  0.11371388  0.09585685  0.84202055  1
  Sc  Sc5  1  0.55831163  0.53241535  0.09395664  1
  Sc  Sc6  1  0.78389539  0.43050784  0.35001577  1
  Sc  Sc7  1  0.55257505  0.53494344  0.60499461  1
  Sc  Sc8  1  0.21898440  0.86268524  0.09902030  1
  Sc  Sc9  1  0.88797269  0.87118848  0.59631524  1
  Sc  Sc10  1  0.56109245  0.87114278  0.09661452  1
  Al  Al11  1  0.88557686  0.20528761  0.58505008  1
  Al  Al12  1  0.44512774  0.09575975  0.35262245  1
  Al  Al13  1  0.22058181  0.21671360  0.58508673  1
  Al  Al14  1  0.78194679  0.08771044  0.33041657  1
  Al  Al15  1  0.89056006  0.21021909  0.08183665  1
  Al  Al16  1  0.44368555  0.09977953  0.81663589  1
  Al  Al17  1  0.55444043  0.20874985  0.57496253  1
  Al  Al18  1  0.11028409  0.44122757  0.33209669  1
  Al  Al19  1  0.21034406  0.54484128  0.07813471  1
  Al  Al20  1  0.78355953  0.43143522  0.82911831  1
  Al  Al21  1  0.89585345  0.53958320  0.58447846  1
  Al  Al22  1  0.43035334  0.43732366  0.33583075  1
  Al  Al23  1  0.11154661  0.43300844  0.82869209  1
  Al  Al24  1  0.22135371  0.53387658  0.58078671  1
  Al  Al25  1  0.89435076  0.54029024  0.07759687  1
  Al  Al26  1  0.43355567  0.42361975  0.82952655  1
  Al  Al27  1  0.11018946  0.75248705  0.33725411  1
  Al  Al28  1  0.77823790  0.75481139  0.83039017  1
  Al  Al29  1  0.44302371  0.76078270  0.38049764  1
  Al  Al30  1  0.11831678  0.74740647  0.82545565  1
  Al  Al31  1  0.22335160  0.86756212  0.60249380  1
  Al  Al32  1  0.78533902  0.75917497  0.33254140  1
  Al  Al33  1  0.89721775  0.85961648  0.08201648  1
  Al  Al34  1  0.44526716  0.76081113  0.85471044  1
  Al  Al35  1  0.55688108  0.87179031  0.59313512  1
  N  N36  1  0.22419907  0.22443877  0.37198193  1
  N  N37  1  0.09984310  0.10027856  0.10734093  1
  N  N38  1  0.87957354  0.22561130  0.87004184  1
  N  N39  1  0.76499514  0.11259492  0.61871205  1
  N  N40  1  0.55870698  0.20855808  0.36370777  1
  N  N41  1  0.44263149  0.09367769  0.14513532  1
  N  N42  1  0.23210740  0.21672667  0.85453727  1
  N  N43  1  0.11162787  0.09370114  0.60324951  1
  N  N44  1  0.87884383  0.19590114  0.37499281  1
  N  N45  1  0.79724950  0.08247306  0.11167903  1
  N  N46  1  0.53465044  0.21391302  0.87027092  1
  N  N47  1  0.44687545  0.09548093  0.60262298  1
  N  N48  1  0.21973816  0.53993000  0.37690625  1
  N  N49  1  0.09950330  0.45021192  0.12354686  1
  N  N50  1  0.89090267  0.53903134  0.86780666  1
  N  N51  1  0.79850260  0.42038138  0.61288673  1
  N  N52  1  0.54054682  0.54566104  0.36032156  1
  N  N53  1  0.41516083  0.44339447  0.12723037  1
  N  N54  1  0.22033908  0.53807208  0.86987419  1
  N  N55  1  0.10928861  0.43287163  0.62321116  1
  N  N56  1  0.90203871  0.55121845  0.37866358  1
  N  N57  1  0.79856811  0.42267170  0.11708549  1
  N  N58  1  0.55831745  0.53213698  0.84742823  1
  N  N59  1  0.43100156  0.41620905  0.61970029  1
  N  N60  1  0.22990230  0.85155031  0.36067735  1
  N  N61  1  0.10064199  0.74863904  0.12702604  1
  N  N62  1  0.90106546  0.84991843  0.86228877  1
  N  N63  1  0.76954972  0.75051064  0.62311700  1
  N  N64  1  0.56025512  0.86584118  0.36878280  1
  N  N65  1  0.44707807  0.75825826  0.07429665  1
  N  N66  1  0.22670306  0.85394411  0.84760501  1
  N  N67  1  0.12860723  0.74703895  0.61621200  1
  N  N68  1  0.88731865  0.87298442  0.36448638  1
  N  N69  1  0.79623113  0.75048679  0.12109440  1
  N  N70  1  0.55438531  0.87977248  0.84909749  1
  N  N71  1  0.43667953  0.77731795  0.60335843  1
