# generated using pymatgen
data_Sc11Al25N36
_symmetry_space_group_name_H-M   'P 1'
_cell_length_a   9.86084761
_cell_length_b   9.86359940
_cell_length_c   10.18412861
_cell_angle_alpha   89.95907099
_cell_angle_beta   89.98062968
_cell_angle_gamma   59.95328795
_symmetry_Int_Tables_number   1
_chemical_formula_structural   Sc11Al25N36
_chemical_formula_sum   'Sc11 Al25 N36'
_cell_volume   857.43153689
_cell_formula_units_Z   1
loop_
 _symmetry_equiv_pos_site_id
 _symmetry_equiv_pos_as_xyz
  1  'x, y, z'
loop_
 _atom_site_type_symbol
 _atom_site_label
 _atom_site_symmetry_multiplicity
 _atom_site_fract_x
 _atom_site_fract_y
 _atom_site_fract_z
 _atom_site_occupancy
  Sc  Sc0  1  0.11284053  0.09495002  0.33073870  1
  Sc  Sc1  1  0.21644643  0.21576724  0.06215610  1
  Sc  Sc2  1  0.77224815  0.09755191  0.82316611  1
  Sc  Sc3  1  0.55036108  0.20995952  0.07690434  1
  Sc  Sc4  1  0.11360722  0.09222034  0.79993103  1
  Sc  Sc5  1  0.55498891  0.53622620  0.05016745  1
  Sc  Sc6  1  0.77637262  0.43407788  0.31800804  1
  Sc  Sc7  1  0.55320433  0.53722279  0.58179039  1
  Sc  Sc8  1  0.21828457  0.86822578  0.07131009  1
  Sc  Sc9  1  0.88994096  0.87034311  0.56742968  1
  Sc  Sc10  1  0.56030446  0.87005228  0.06567620  1
  Al  Al11  1  0.88504705  0.20633922  0.55594661  1
  Al  Al12  1  0.44605255  0.09602737  0.32096818  1
  Al  Al13  1  0.22551341  0.21410099  0.55884526  1
  Al  Al14  1  0.78037056  0.08873932  0.30610760  1
  Al  Al15  1  0.89062288  0.20934815  0.06062398  1
  Al  Al16  1  0.44364624  0.09728494  0.79865129  1
  Al  Al17  1  0.55303783  0.20659460  0.55322290  1
  Al  Al18  1  0.11252479  0.43870664  0.31269265  1
  Al  Al19  1  0.21243855  0.54323657  0.06169907  1
  Al  Al20  1  0.78648174  0.42918162  0.80441625  1
  Al  Al21  1  0.89566259  0.53797841  0.56134776  1
  Al  Al22  1  0.43397936  0.43592169  0.31515253  1
  Al  Al23  1  0.11117206  0.43289050  0.80609404  1
  Al  Al24  1  0.22181436  0.53520854  0.55883787  1
  Al  Al25  1  0.89355458  0.54030178  0.05901113  1
  Al  Al26  1  0.43277254  0.42385591  0.80359733  1
  Al  Al27  1  0.10977791  0.75335604  0.31009464  1
  Al  Al28  1  0.77796119  0.75401716  0.80821352  1
  Al  Al29  1  0.44564916  0.75566069  0.31789435  1
  Al  Al30  1  0.12120658  0.74790503  0.80958853  1
  Al  Al31  1  0.22632689  0.86500312  0.55362279  1
  Al  Al32  1  0.78380597  0.76099754  0.31058569  1
  Al  Al33  1  0.89653048  0.86022610  0.06045880  1
  Al  Al34  1  0.44242320  0.76679093  0.79952666  1
  Al  Al35  1  0.55424077  0.87354747  0.55891861  1
  N  N36  1  0.23080495  0.22399970  0.37192268  1
  N  N37  1  0.09613330  0.10430226  0.11962137  1
  N  N38  1  0.88331988  0.22401327  0.87303440  1
  N  N39  1  0.76582667  0.11353730  0.61479823  1
  N  N40  1  0.55795511  0.20651330  0.35967730  1
  N  N41  1  0.44007066  0.09342617  0.13748593  1
  N  N42  1  0.22879004  0.21416391  0.85006666  1
  N  N43  1  0.11231773  0.09274915  0.58602584  1
  N  N44  1  0.87355833  0.19960119  0.37175906  1
  N  N45  1  0.79781686  0.08202040  0.11057621  1
  N  N46  1  0.53302269  0.21500695  0.86750821  1
  N  N47  1  0.44838849  0.09358652  0.60841942  1
  N  N48  1  0.21977245  0.54168664  0.37231254  1
  N  N49  1  0.10032775  0.44771159  0.12434112  1
  N  N50  1  0.89122141  0.53865736  0.86716751  1
  N  N51  1  0.80390986  0.41606480  0.61446085  1
  N  N52  1  0.53940548  0.54345912  0.37079056  1
  N  N53  1  0.41962719  0.44513164  0.12777760  1
  N  N54  1  0.22172509  0.53637536  0.87030040  1
  N  N55  1  0.11030160  0.43242655  0.61843125  1
  N  N56  1  0.90054526  0.55089281  0.37520405  1
  N  N57  1  0.79176118  0.42477554  0.10986486  1
  N  N58  1  0.55557597  0.53819947  0.83132041  1
  N  N59  1  0.43050186  0.41359500  0.61739357  1
  N  N60  1  0.22889198  0.85007779  0.36478180  1
  N  N61  1  0.10172402  0.74985631  0.12331652  1
  N  N62  1  0.90126783  0.84900195  0.86455233  1
  N  N63  1  0.76814139  0.75058231  0.62118360  1
  N  N64  1  0.55870014  0.86965189  0.36782375  1
  N  N65  1  0.45011382  0.75426906  0.13254390  1
  N  N66  1  0.23226145  0.85284514  0.86182965  1
  N  N67  1  0.13255571  0.74805457  0.62089187  1
  N  N68  1  0.88845758  0.87325796  0.35910844  1
  N  N69  1  0.79517648  0.75109472  0.12179034  1
  N  N70  1  0.55378601  0.87507292  0.85387690  1
  N  N71  1  0.43262521  0.78484909  0.61422172  1
