# generated using pymatgen
data_Sc11Al25N36
_symmetry_space_group_name_H-M   'P 1'
_cell_length_a   9.86252625
_cell_length_b   9.86488304
_cell_length_c   10.18053431
_cell_angle_alpha   89.96112084
_cell_angle_beta   89.97675061
_cell_angle_gamma   59.95177199
_symmetry_Int_Tables_number   1
_chemical_formula_structural   Sc11Al25N36
_chemical_formula_sum   'Sc11 Al25 N36'
_cell_volume   857.37329512
_cell_formula_units_Z   1
loop_
 _symmetry_equiv_pos_site_id
 _symmetry_equiv_pos_as_xyz
  1  'x, y, z'
loop_
 _atom_site_type_symbol
 _atom_site_label
 _atom_site_symmetry_multiplicity
 _atom_site_fract_x
 _atom_site_fract_y
 _atom_site_fract_z
 _atom_site_occupancy
  Sc  Sc0  1  0.11282311  0.09494476  0.34008578  1
  Sc  Sc1  1  0.21646824  0.21573781  0.07152682  1
  Sc  Sc2  1  0.77217640  0.09763211  0.83263758  1
  Sc  Sc3  1  0.55032930  0.20994400  0.08637567  1
  Sc  Sc4  1  0.11357981  0.09222648  0.80936496  1
  Sc  Sc5  1  0.55509942  0.53610693  0.05956885  1
  Sc  Sc6  1  0.77638743  0.43406143  0.32750923  1
  Sc  Sc7  1  0.55312311  0.53723690  0.59118357  1
  Sc  Sc8  1  0.21833125  0.86813476  0.08071175  1
  Sc  Sc9  1  0.88987879  0.87040425  0.57689943  1
  Sc  Sc10  1  0.56033275  0.87000422  0.07506922  1
  Al  Al11  1  0.88500769  0.20633173  0.56532578  1
  Al  Al12  1  0.44602891  0.09600304  0.33034400  1
  Al  Al13  1  0.22546743  0.21412213  0.56822196  1
  Al  Al14  1  0.78038872  0.08870392  0.31543748  1
  Al  Al15  1  0.89064739  0.20935649  0.06999711  1
  Al  Al16  1  0.44361516  0.09730777  0.80801148  1
  Al  Al17  1  0.55300502  0.20661473  0.56255880  1
  Al  Al18  1  0.11251945  0.43870613  0.32202147  1
  Al  Al19  1  0.21241842  0.54323666  0.07102279  1
  Al  Al20  1  0.78645436  0.42922207  0.81371280  1
  Al  Al21  1  0.89563987  0.53802415  0.57067984  1
  Al  Al22  1  0.43393476  0.43595290  0.32449006  1
  Al  Al23  1  0.11112045  0.43291795  0.81544967  1
  Al  Al24  1  0.22176824  0.53521953  0.56818068  1
  Al  Al25  1  0.89356607  0.54028039  0.06838504  1
  Al  Al26  1  0.43270944  0.42384872  0.81297926  1
  Al  Al27  1  0.10973064  0.75336099  0.31945817  1
  Al  Al28  1  0.77790264  0.75403759  0.81755725  1
  Al  Al29  1  0.44565889  0.75562661  0.32723315  1
  Al  Al30  1  0.12118500  0.74791666  0.81890604  1
  Al  Al31  1  0.22629455  0.86501409  0.56296379  1
  Al  Al32  1  0.78383047  0.76099736  0.31993763  1
  Al  Al33  1  0.89654014  0.86020511  0.06973814  1
  Al  Al34  1  0.44237633  0.76681183  0.80890961  1
  Al  Al35  1  0.55421125  0.87354362  0.56825987  1
  N  N36  1  0.23077036  0.22399768  0.38122597  1
  N  N37  1  0.09616767  0.10424150  0.12887235  1
  N  N38  1  0.88326459  0.22409884  0.88233997  1
  N  N39  1  0.76573354  0.11362085  0.62418363  1
  N  N40  1  0.55794336  0.20650588  0.36893140  1
  N  N41  1  0.44005704  0.09338099  0.14680817  1
  N  N42  1  0.22875506  0.21419531  0.85936588  1
  N  N43  1  0.11227114  0.09275927  0.59538070  1
  N  N44  1  0.87356995  0.19954042  0.38107013  1
  N  N45  1  0.79782317  0.08200962  0.11981246  1
  N  N46  1  0.53294842  0.21503326  0.87689836  1
  N  N47  1  0.44836091  0.09360003  0.61770842  1
  N  N48  1  0.21974818  0.54168656  0.38161267  1
  N  N49  1  0.10034001  0.44769746  0.13362301  1
  N  N50  1  0.89116613  0.53868590  0.87647708  1
  N  N51  1  0.80384467  0.41612336  0.62367592  1
  N  N52  1  0.53937517  0.54344456  0.38010445  1
  N  N53  1  0.41958294  0.44515119  0.13706434  1
  N  N54  1  0.22165836  0.53640798  0.87959156  1
  N  N55  1  0.11024803  0.43245849  0.62774282  1
  N  N56  1  0.90056410  0.55091103  0.38449664  1
  N  N57  1  0.79184169  0.42473801  0.11930124  1
  N  N58  1  0.55555336  0.53820427  0.84064385  1
  N  N59  1  0.43043590  0.41360401  0.62671077  1
  N  N60  1  0.22888256  0.85007714  0.37403659  1
  N  N61  1  0.10168160  0.74985004  0.13261749  1
  N  N62  1  0.90122733  0.84902796  0.87376351  1
  N  N63  1  0.76808647  0.75060834  0.63048151  1
  N  N64  1  0.55870286  0.86961955  0.37710859  1
  N  N65  1  0.45016879  0.75418497  0.14181379  1
  N  N66  1  0.23221574  0.85283805  0.87115244  1
  N  N67  1  0.13252669  0.74806983  0.63016356  1
  N  N68  1  0.88843270  0.87327259  0.36848877  1
  N  N69  1  0.79521060  0.75109280  0.13108272  1
  N  N70  1  0.55373730  0.87510030  0.86320572  1
  N  N71  1  0.43258289  0.78486450  0.62352796  1
