# generated using pymatgen
data_Sc11Al25N36
_symmetry_space_group_name_H-M   'P 1'
_cell_length_a   9.86084066
_cell_length_b   9.86359039
_cell_length_c   10.18414928
_cell_angle_alpha   89.95900922
_cell_angle_beta   89.98066759
_cell_angle_gamma   59.95330720
_symmetry_Int_Tables_number   1
_chemical_formula_structural   Sc11Al25N36
_chemical_formula_sum   'Sc11 Al25 N36'
_cell_volume   857.43205557
_cell_formula_units_Z   1
loop_
 _symmetry_equiv_pos_site_id
 _symmetry_equiv_pos_as_xyz
  1  'x, y, z'
loop_
 _atom_site_type_symbol
 _atom_site_label
 _atom_site_symmetry_multiplicity
 _atom_site_fract_x
 _atom_site_fract_y
 _atom_site_fract_z
 _atom_site_occupancy
  Sc  Sc0  1  0.11285280  0.09494698  0.32613212  1
  Sc  Sc1  1  0.21645665  0.21576702  0.05755120  1
  Sc  Sc2  1  0.77225965  0.09755113  0.81855601  1
  Sc  Sc3  1  0.55037417  0.20995695  0.07229756  1
  Sc  Sc4  1  0.11361635  0.09222084  0.79532583  1
  Sc  Sc5  1  0.55499879  0.53622747  0.04556300  1
  Sc  Sc6  1  0.77638399  0.43407798  0.31340103  1
  Sc  Sc7  1  0.55321670  0.53721878  0.57718259  1
  Sc  Sc8  1  0.21829622  0.86822371  0.06670468  1
  Sc  Sc9  1  0.88995320  0.87034081  0.56282527  1
  Sc  Sc10  1  0.56031571  0.87004962  0.06106716  1
  Al  Al11  1  0.88505863  0.20633857  0.55133667  1
  Al  Al12  1  0.44606386  0.09602588  0.31635744  1
  Al  Al13  1  0.22552508  0.21409842  0.55423808  1
  Al  Al14  1  0.78038074  0.08873782  0.30150366  1
  Al  Al15  1  0.89063342  0.20934574  0.05602307  1
  Al  Al16  1  0.44365704  0.09728347  0.79404294  1
  Al  Al17  1  0.55304764  0.20659396  0.54861803  1
  Al  Al18  1  0.11253497  0.43870551  0.30808924  1
  Al  Al19  1  0.21244791  0.54323600  0.05709766  1
  Al  Al20  1  0.78649224  0.42917935  0.79981438  1
  Al  Al21  1  0.89567340  0.53797607  0.55674535  1
  Al  Al22  1  0.43399075  0.43591957  0.31054276  1
  Al  Al23  1  0.11118440  0.43288849  0.80148578  1
  Al  Al24  1  0.22182719  0.53520635  0.55423345  1
  Al  Al25  1  0.89356582  0.54030147  0.05440411  1
  Al  Al26  1  0.43278369  0.42385516  0.79899559  1
  Al  Al27  1  0.10978933  0.75335499  0.30549375  1
  Al  Al28  1  0.77797215  0.75401630  0.80360584  1
  Al  Al29  1  0.44565955  0.75566006  0.31329354  1
  Al  Al30  1  0.12121759  0.74790333  0.80498566  1
  Al  Al31  1  0.22633729  0.86500214  0.54902149  1
  Al  Al32  1  0.78381668  0.76099596  0.30598329  1
  Al  Al33  1  0.89654095  0.86022542  0.05585548  1
  Al  Al34  1  0.44243495  0.76678872  0.79491728  1
  Al  Al35  1  0.55425200  0.87354672  0.55431091  1
  N  N36  1  0.23081685  0.22399701  0.36731543  1
  N  N37  1  0.09614558  0.10429970  0.11501639  1
  N  N38  1  0.88333039  0.22401093  0.86843284  1
  N  N39  1  0.76583836  0.11353623  0.61018877  1
  N  N40  1  0.55796510  0.20651229  0.35507096  1
  N  N41  1  0.44008280  0.09342377  0.13287632  1
  N  N42  1  0.22880127  0.21416257  0.84546110  1
  N  N43  1  0.11232851  0.09274824  0.58142062  1
  N  N44  1  0.87356987  0.19960089  0.36715030  1
  N  N45  1  0.79782808  0.08201831  0.10597420  1
  N  N46  1  0.53303538  0.21500378  0.86290159  1
  N  N47  1  0.44839924  0.09358505  0.60381280  1
  N  N48  1  0.21978511  0.54168406  0.36770787  1
  N  N49  1  0.10033757  0.44771065  0.11973817  1
  N  N50  1  0.89123322  0.53865620  0.86256045  1
  N  N51  1  0.80392129  0.41606194  0.60985801  1
  N  N52  1  0.53941723  0.54345606  0.36618345  1
  N  N53  1  0.41963866  0.44512956  0.12316956  1
  N  N54  1  0.22173543  0.53637382  0.86569780  1
  N  N55  1  0.11031390  0.43242402  0.61382431  1
  N  N56  1  0.90055609  0.55089115  0.37060173  1
  N  N57  1  0.79177210  0.42477518  0.10525844  1
  N  N58  1  0.55558682  0.53819859  0.82671645  1
  N  N59  1  0.43051341  0.41359329  0.61279138  1
  N  N60  1  0.22890287  0.85007617  0.36018094  1
  N  N61  1  0.10173476  0.74985581  0.11871483  1
  N  N62  1  0.90127816  0.84900165  0.85994737  1
  N  N63  1  0.76815244  0.75058125  0.61657679  1
  N  N64  1  0.55871095  0.86965154  0.36321770  1
  N  N65  1  0.45012403  0.75426927  0.12794220  1
  N  N66  1  0.23227341  0.85284412  0.85722354  1
  N  N67  1  0.13256736  0.74805202  0.61628866  1
  N  N68  1  0.88846873  0.87325631  0.35450494  1
  N  N69  1  0.79518679  0.75109358  0.11718660  1
  N  N70  1  0.55379727  0.87507076  0.84926830  1
  N  N71  1  0.43263823  0.78484563  0.60961327  1
