# generated using pymatgen
data_Sc11Al25N36
_symmetry_space_group_name_H-M   'P 1'
_cell_length_a   10.16017059
_cell_length_b   10.15112459
_cell_length_c   9.38580412
_cell_angle_alpha   89.91652186
_cell_angle_beta   89.91640795
_cell_angle_gamma   59.98562041
_symmetry_Int_Tables_number   1
_chemical_formula_structural   Sc11Al25N36
_chemical_formula_sum   'Sc11 Al25 N36'
_cell_volume   838.21169131
_cell_formula_units_Z   1
loop_
 _symmetry_equiv_pos_site_id
 _symmetry_equiv_pos_as_xyz
  1  'x, y, z'
loop_
 _atom_site_type_symbol
 _atom_site_label
 _atom_site_symmetry_multiplicity
 _atom_site_fract_x
 _atom_site_fract_y
 _atom_site_fract_z
 _atom_site_occupancy
  Sc  Sc0  1  0.11241403  0.09181724  0.35153565  1
  Sc  Sc1  1  0.21954286  0.21717462  0.09300088  1
  Sc  Sc2  1  0.77106107  0.09893641  0.85129698  1
  Sc  Sc3  1  0.54927832  0.21034748  0.10457909  1
  Sc  Sc4  1  0.11365193  0.09593668  0.83923982  1
  Sc  Sc5  1  0.55976939  0.53087320  0.09162448  1
  Sc  Sc6  1  0.78327287  0.43069328  0.34948819  1
  Sc  Sc7  1  0.55194907  0.53530233  0.60492206  1
  Sc  Sc8  1  0.21879673  0.86289943  0.09782670  1
  Sc  Sc9  1  0.88783047  0.87186369  0.59574591  1
  Sc  Sc10  1  0.56171888  0.87114452  0.09435933  1
  Al  Al11  1  0.88529901  0.20455099  0.58169894  1
  Al  Al12  1  0.44527065  0.09576981  0.34907548  1
  Al  Al13  1  0.22114327  0.21646929  0.58162038  1
  Al  Al14  1  0.78289057  0.08648368  0.32588123  1
  Al  Al15  1  0.89071560  0.21101794  0.07986234  1
  Al  Al16  1  0.44371067  0.09981308  0.81573044  1
  Al  Al17  1  0.55469378  0.20842231  0.57175257  1
  Al  Al18  1  0.11048729  0.44132208  0.32985502  1
  Al  Al19  1  0.21024784  0.54470616  0.07666408  1
  Al  Al20  1  0.78412848  0.43132618  0.82457031  1
  Al  Al21  1  0.89630292  0.53974750  0.58162468  1
  Al  Al22  1  0.43011709  0.43805359  0.33362338  1
  Al  Al23  1  0.11151613  0.43282421  0.82685127  1
  Al  Al24  1  0.22126763  0.53391983  0.57851135  1
  Al  Al25  1  0.89418918  0.53997078  0.07659054  1
  Al  Al26  1  0.43332407  0.42296416  0.82713051  1
  Al  Al27  1  0.10900856  0.75288878  0.33371562  1
  Al  Al28  1  0.77746981  0.75448675  0.82795034  1
  Al  Al29  1  0.44283328  0.76070677  0.38235384  1
  Al  Al30  1  0.11927479  0.74690326  0.82406650  1
  Al  Al31  1  0.22287790  0.86808374  0.59934082  1
  Al  Al32  1  0.78620048  0.75960182  0.33012970  1
  Al  Al33  1  0.89750409  0.85876203  0.07686175  1
  Al  Al34  1  0.44569469  0.76064132  0.85767127  1
  Al  Al35  1  0.55686497  0.87246342  0.58891910  1
  N  N36  1  0.22497394  0.22452432  0.37388250  1
  N  N37  1  0.09950057  0.10048450  0.11032994  1
  N  N38  1  0.87939295  0.22689955  0.87392865  1
  N  N39  1  0.76399484  0.11393725  0.62314713  1
  N  N40  1  0.55915717  0.20798320  0.36409991  1
  N  N41  1  0.44205409  0.09360408  0.14718296  1
  N  N42  1  0.23191920  0.21678286  0.85792789  1
  N  N43  1  0.11145969  0.09383054  0.60327786  1
  N  N44  1  0.87812498  0.19507768  0.37751602  1
  N  N45  1  0.79781703  0.08180618  0.11220078  1
  N  N46  1  0.53364003  0.21441055  0.87459007  1
  N  N47  1  0.44705834  0.09563943  0.60599611  1
  N  N48  1  0.21942189  0.54050656  0.37870971  1
  N  N49  1  0.09932191  0.45037005  0.12636297  1
  N  N50  1  0.89057918  0.53887893  0.87063503  1
  N  N51  1  0.79939514  0.41978669  0.61360958  1
  N  N52  1  0.54027215  0.54545369  0.36264795  1
  N  N53  1  0.41465032  0.44423791  0.13026523  1
  N  N54  1  0.22042173  0.53773175  0.87264152  1
  N  N55  1  0.10946738  0.43260412  0.62525965  1
  N  N56  1  0.90232475  0.55174923  0.38070796  1
  N  N57  1  0.79926074  0.42235717  0.12197101  1
  N  N58  1  0.55862357  0.53213592  0.84647536  1
  N  N59  1  0.43058934  0.41528187  0.62199441  1
  N  N60  1  0.22921772  0.85138584  0.36088848  1
  N  N61  1  0.09981834  0.74868611  0.12855789  1
  N  N62  1  0.90103575  0.84947022  0.86333612  1
  N  N63  1  0.76918972  0.75028191  0.62546960  1
  N  N64  1  0.56063436  0.86654930  0.37005034  1
  N  N65  1  0.44793709  0.75716059  0.07301848  1
  N  N66  1  0.22696894  0.85406998  0.85055808  1
  N  N67  1  0.12938006  0.74660782  0.61975768  1
  N  N68  1  0.88750076  0.87326913  0.36833278  1
  N  N69  1  0.79704758  0.75033288  0.12394775  1
  N  N70  1  0.55451872  0.87964670  0.85262357  1
  N  N71  1  0.43620944  0.77823525  0.60082462  1
