# generated using pymatgen
data_Sc11Al25N36
_symmetry_space_group_name_H-M   'P 1'
_cell_length_a   10.06178785
_cell_length_b   10.04682057
_cell_length_c   9.70334719
_cell_angle_alpha   89.95794571
_cell_angle_beta   89.87746597
_cell_angle_gamma   59.93660890
_symmetry_Int_Tables_number   1
_chemical_formula_structural   Sc11Al25N36
_chemical_formula_sum   'Sc11 Al25 N36'
_cell_volume   848.94041527
_cell_formula_units_Z   1
loop_
 _symmetry_equiv_pos_site_id
 _symmetry_equiv_pos_as_xyz
  1  'x, y, z'
loop_
 _atom_site_type_symbol
 _atom_site_label
 _atom_site_symmetry_multiplicity
 _atom_site_fract_x
 _atom_site_fract_y
 _atom_site_fract_z
 _atom_site_occupancy
  Sc  Sc0  1  0.11162466  0.09446467  0.34687262  1
  Sc  Sc1  1  0.21845192  0.21667077  0.08470755  1
  Sc  Sc2  1  0.77063574  0.09993288  0.84830351  1
  Sc  Sc3  1  0.54887250  0.21041690  0.10078193  1
  Sc  Sc4  1  0.11405368  0.09412441  0.82894344  1
  Sc  Sc5  1  0.56272684  0.52649399  0.08399623  1
  Sc  Sc6  1  0.78132388  0.43170630  0.34635971  1
  Sc  Sc7  1  0.55095480  0.53693912  0.60503079  1
  Sc  Sc8  1  0.21763254  0.86414134  0.09415854  1
  Sc  Sc9  1  0.88784184  0.87239917  0.59281998  1
  Sc  Sc10  1  0.56343807  0.87112091  0.09010037  1
  Al  Al11  1  0.88455334  0.20437450  0.57609832  1
  Al  Al12  1  0.44518798  0.09663080  0.34155692  1
  Al  Al13  1  0.22308592  0.21560073  0.57702706  1
  Al  Al14  1  0.78302917  0.08596609  0.32111049  1
  Al  Al15  1  0.89178359  0.21098491  0.07732700  1
  Al  Al16  1  0.44403353  0.09888333  0.81468804  1
  Al  Al17  1  0.55422637  0.20790026  0.56834085  1
  Al  Al18  1  0.11156257  0.44046875  0.32706554  1
  Al  Al19  1  0.21043102  0.54417689  0.07480283  1
  Al  Al20  1  0.78574508  0.43056172  0.81930908  1
  Al  Al21  1  0.89657342  0.53972325  0.57764485  1
  Al  Al22  1  0.43041470  0.43836165  0.33063036  1
  Al  Al23  1  0.11108250  0.43301485  0.82344976  1
  Al  Al24  1  0.22113708  0.53431343  0.57522001  1
  Al  Al25  1  0.89443175  0.53945068  0.07510275  1
  Al  Al26  1  0.43239010  0.42243286  0.82299987  1
  Al  Al27  1  0.10737380  0.75300275  0.32806870  1
  Al  Al28  1  0.77638469  0.75433494  0.82444187  1
  Al  Al29  1  0.44403399  0.75987326  0.38393185  1
  Al  Al30  1  0.12084288  0.74727821  0.82233492  1
  Al  Al31  1  0.22124429  0.86834545  0.58041787  1
  Al  Al32  1  0.78742488  0.76004947  0.32659156  1
  Al  Al33  1  0.89781556  0.85807833  0.07165416  1
  Al  Al34  1  0.44550414  0.76070178  0.86552203  1
  Al  Al35  1  0.55650308  0.87413451  0.58050982  1
  N  N36  1  0.22740955  0.22443892  0.37898870  1
  N  N37  1  0.09866854  0.10161825  0.12019415  1
  N  N38  1  0.88054550  0.22763457  0.88031235  1
  N  N39  1  0.76300638  0.11565036  0.62838880  1
  N  N40  1  0.55902723  0.20714225  0.36637070  1
  N  N41  1  0.44012226  0.09427508  0.14914040  1
  N  N42  1  0.23085270  0.21621725  0.86120601  1
  N  N43  1  0.11101070  0.09346919  0.60216059  1
  N  N44  1  0.87629726  0.19512409  0.38139817  1
  N  N45  1  0.79839538  0.08133795  0.11474023  1
  N  N46  1  0.53236404  0.21515665  0.88003110  1
  N  N47  1  0.44779027  0.09527480  0.61352655  1
  N  N48  1  0.21910833  0.54133091  0.38195734  1
  N  N49  1  0.09982705  0.44946470  0.13124372  1
  N  N50  1  0.89021037  0.53889204  0.87531919  1
  N  N51  1  0.80087764  0.41887750  0.61695085  1
  N  N52  1  0.53985398  0.54429271  0.36880238  1
  N  N53  1  0.41439346  0.44506124  0.13552237  1
  N  N54  1  0.22025468  0.53748982  0.87724920  1
  N  N55  1  0.10954630  0.43260219  0.62846618  1
  N  N56  1  0.90272762  0.55212316  0.38424912  1
  N  N57  1  0.80020125  0.42174514  0.12776596  1
  N  N58  1  0.55840023  0.53281696  0.84527608  1
  N  N59  1  0.42973995  0.41432087  0.62610432  1
  N  N60  1  0.22726345  0.85167666  0.36570902  1
  N  N61  1  0.09895303  0.74860076  0.13201046  1
  N  N62  1  0.90092397  0.84901346  0.86657045  1
  N  N63  1  0.76807235  0.75043791  0.62937458  1
  N  N64  1  0.56152779  0.86853244  0.37196546  1
  N  N65  1  0.45013057  0.75451933  0.07438564  1
  N  N66  1  0.22648908  0.85436059  0.86292308  1
  N  N67  1  0.13089944  0.74686491  0.62585284  1
  N  N68  1  0.88779044  0.87374003  0.37304511  1
  N  N69  1  0.79868187  0.74987209  0.12897554  1
  N  N70  1  0.55478026  0.87893968  0.86017993  1
  N  N71  1  0.43470300  0.78068983  0.59411827  1
