# generated using pymatgen
data_Sc11Al25N36
_symmetry_space_group_name_H-M   'P 1'
_cell_length_a   10.01196137
_cell_length_b   9.99274133
_cell_length_c   9.86806543
_cell_angle_alpha   89.99736238
_cell_angle_beta   89.86254966
_cell_angle_gamma   59.89552527
_symmetry_Int_Tables_number   1
_chemical_formula_structural   Sc11Al25N36
_chemical_formula_sum   'Sc11 Al25 N36'
_cell_volume   854.09593515
_cell_formula_units_Z   1
loop_
 _symmetry_equiv_pos_site_id
 _symmetry_equiv_pos_as_xyz
  1  'x, y, z'
loop_
 _atom_site_type_symbol
 _atom_site_label
 _atom_site_symmetry_multiplicity
 _atom_site_fract_x
 _atom_site_fract_y
 _atom_site_fract_z
 _atom_site_occupancy
  Sc  Sc0  1  0.11149594  0.09580253  0.34544105  1
  Sc  Sc1  1  0.21775263  0.21600766  0.08022438  1
  Sc  Sc2  1  0.77079076  0.09995710  0.84558478  1
  Sc  Sc3  1  0.54879762  0.21002079  0.09806624  1
  Sc  Sc4  1  0.11390712  0.09334510  0.82282422  1
  Sc  Sc5  1  0.56409132  0.52364783  0.07791955  1
  Sc  Sc6  1  0.77992419  0.43261978  0.34315121  1
  Sc  Sc7  1  0.55089394  0.53776485  0.60504718  1
  Sc  Sc8  1  0.21689613  0.86513089  0.09273834  1
  Sc  Sc9  1  0.88797319  0.87237569  0.58979271  1
  Sc  Sc10  1  0.56425379  0.87093261  0.08816043  1
  Al  Al11  1  0.88403995  0.20507224  0.57361348  1
  Al  Al12  1  0.44511452  0.09719694  0.33842951  1
  Al  Al13  1  0.22413465  0.21520462  0.57560073  1
  Al  Al14  1  0.78237839  0.08665714  0.32007751  1
  Al  Al15  1  0.89251058  0.21020575  0.07655786  1
  Al  Al16  1  0.44418913  0.09821706  0.81406285  1
  Al  Al17  1  0.55370023  0.20783177  0.56748496  1
  Al  Al18  1  0.11236505  0.43956872  0.32630615  1
  Al  Al19  1  0.21091378  0.54357119  0.07444390  1
  Al  Al20  1  0.78673553  0.42997705  0.81805087  1
  Al  Al21  1  0.89646683  0.53947458  0.57627022  1
  Al  Al22  1  0.43112345  0.43805011  0.32967454  1
  Al  Al23  1  0.11078438  0.43328787  0.82185138  1
  Al  Al24  1  0.22106047  0.53467560  0.57385614  1
  Al  Al25  1  0.89479082  0.53921428  0.07448612  1
  Al  Al26  1  0.43174505  0.42246183  0.82098292  1
  Al  Al27  1  0.10726115  0.75288872  0.32575195  1
  Al  Al28  1  0.77626505  0.75449955  0.82319482  1
  Al  Al29  1  0.44455290  0.75955222  0.38535236  1
  Al  Al30  1  0.12081608  0.74777456  0.82199110  1
  Al  Al31  1  0.22026760  0.86843678  0.57376395  1
  Al  Al32  1  0.78768503  0.76010470  0.32527699  1
  Al  Al33  1  0.89775678  0.85827243  0.07096219  1
  Al  Al34  1  0.44527606  0.76091305  0.86943006  1
  Al  Al35  1  0.55644288  0.87504202  0.57733347  1
  N  N36  1  0.22886999  0.22429219  0.38199938  1
  N  N37  1  0.09819881  0.10251913  0.12561478  1
  N  N38  1  0.88149250  0.22717762  0.88314251  1
  N  N39  1  0.76306958  0.11601022  0.62956965  1
  N  N40  1  0.55869832  0.20690153  0.36829147  1
  N  N41  1  0.43883124  0.09473464  0.14985192  1
  N  N42  1  0.23008049  0.21565508  0.86139242  1
  N  N43  1  0.11070378  0.09336024  0.60110173  1
  N  N44  1  0.87521831  0.19610635  0.38301217  1
  N  N45  1  0.79836572  0.08153195  0.11708836  1
  N  N46  1  0.53203068  0.21538437  0.88147115  1
  N  N47  1  0.44822388  0.09500492  0.61692979  1
  N  N48  1  0.21913559  0.54156457  0.38333598  1
  N  N49  1  0.10052846  0.44829468  0.13346003  1
  N  N50  1  0.89022918  0.53900692  0.87739488  1
  N  N51  1  0.80174231  0.41844171  0.62000273  1
  N  N52  1  0.53973660  0.54348155  0.37315592  1
  N  N53  1  0.41501603  0.44491825  0.13796660  1
  N  N54  1  0.22017058  0.53742806  0.87938146  1
  N  N55  1  0.10949283  0.43290780  0.62979477  1
  N  N56  1  0.90275104  0.55190850  0.38589934  1
  N  N57  1  0.80000603  0.42168686  0.12871941  1
  N  N58  1  0.55799471  0.53321191  0.84463099  1
  N  N59  1  0.42926005  0.41424292  0.62799340  1
  N  N60  1  0.22645527  0.85182506  0.36713929  1
  N  N61  1  0.09900058  0.74840645  0.13348974  1
  N  N62  1  0.90069986  0.84908617  0.86934195  1
  N  N63  1  0.76775196  0.75070005  0.63116765  1
  N  N64  1  0.56204131  0.86947228  0.37293945  1
  N  N65  1  0.45116801  0.75293761  0.07430217  1
  N  N66  1  0.22567372  0.85511342  0.86759656  1
  N  N67  1  0.13120301  0.74741034  0.62845677  1
  N  N68  1  0.88799484  0.87390658  0.37393660  1
  N  N69  1  0.79930351  0.74957279  0.13132935  1
  N  N70  1  0.55498750  0.87865350  0.86319265  1
  N  N71  1  0.43391854  0.78204636  0.59054666  1
