# generated using pymatgen
data_Sc11Al25N36
_symmetry_space_group_name_H-M   'P 1'
_cell_length_a   9.86245918
_cell_length_b   9.87066691
_cell_length_c   10.17943949
_cell_angle_alpha   89.98869975
_cell_angle_beta   89.94700599
_cell_angle_gamma   59.95966994
_symmetry_Int_Tables_number   1
_chemical_formula_structural   Sc11Al25N36
_chemical_formula_sum   'Sc11 Al25 N36'
_cell_volume   857.84607490
_cell_formula_units_Z   1
loop_
 _symmetry_equiv_pos_site_id
 _symmetry_equiv_pos_as_xyz
  1  'x, y, z'
loop_
 _atom_site_type_symbol
 _atom_site_label
 _atom_site_symmetry_multiplicity
 _atom_site_fract_x
 _atom_site_fract_y
 _atom_site_fract_z
 _atom_site_occupancy
  Sc  Sc0  1  0.11339074  0.09081813  0.40030067  1
  Sc  Sc1  1  0.21709748  0.21615456  0.13606864  1
  Sc  Sc2  1  0.77764876  0.09028071  0.88104783  1
  Sc  Sc3  1  0.55537927  0.20738554  0.13962606  1
  Sc  Sc4  1  0.11281620  0.09615554  0.86977047  1
  Sc  Sc5  1  0.55070986  0.53907430  0.13299106  1
  Sc  Sc6  1  0.78281941  0.42983669  0.37838493  1
  Sc  Sc7  1  0.55722968  0.53536751  0.63445062  1
  Sc  Sc8  1  0.21528238  0.87012829  0.13134992  1
  Sc  Sc9  1  0.89258403  0.86529644  0.62308116  1
  Sc  Sc10  1  0.56011660  0.87217450  0.13552720  1
  Al  Al11  1  0.88545252  0.21345915  0.64468243  1
  Al  Al12  1  0.44650213  0.09531031  0.40277818  1
  Al  Al13  1  0.22478436  0.21320794  0.64229069  1
  Al  Al14  1  0.77281311  0.09683022  0.39445347  1
  Al  Al15  1  0.89063404  0.20075854  0.14003181  1
  Al  Al16  1  0.44305016  0.09953905  0.88014353  1
  Al  Al17  1  0.54770380  0.20990925  0.63964899  1
  Al  Al18  1  0.11383467  0.43551876  0.39483219  1
  Al  Al19  1  0.21169762  0.54267070  0.13927519  1
  Al  Al20  1  0.78018120  0.43241685  0.89578664  1
  Al  Al21  1  0.89151394  0.53543392  0.64352665  1
  Al  Al22  1  0.43534249  0.42762883  0.39610502  1
  Al  Al23  1  0.10978908  0.43633688  0.88658992  1
  Al  Al24  1  0.22220504  0.53555858  0.64166456  1
  Al  Al25  1  0.89721959  0.54379254  0.13647669  1
  Al  Al26  1  0.43382542  0.43197271  0.88756057  1
  Al  Al27  1  0.12096277  0.75115621  0.39094499  1
  Al  Al28  1  0.78359167  0.75506122  0.88827081  1
  Al  Al29  1  0.44043393  0.76472546  0.39979059  1
  Al  Al30  1  0.11204946  0.74811324  0.89018370  1
  Al  Al31  1  0.22701055  0.86319153  0.64644225  1
  Al  Al32  1  0.77700807  0.75912999  0.39252556  1
  Al  Al33  1  0.89299916  0.86575940  0.14490229  1
  Al  Al34  1  0.44795271  0.75701436  0.88450343  1
  Al  Al35  1  0.55363212  0.87297340  0.64141081  1
  N  N36  1  0.23042783  0.21610441  0.34856983  1
  N  N37  1  0.09594229  0.10454738  0.08090315  1
  N  N38  1  0.87363816  0.22849374  0.82905347  1
  N  N39  1  0.76797162  0.11452638  0.58745199  1
  N  N40  1  0.55379040  0.20466352  0.34943770  1
  N  N41  1  0.44419167  0.09682359  0.06491730  1
  N  N42  1  0.22881305  0.22245947  0.82956988  1
  N  N43  1  0.11263443  0.09168822  0.61448496  1
  N  N44  1  0.88269062  0.19295016  0.32760387  1
  N  N45  1  0.79563583  0.08077495  0.08992261  1
  N  N46  1  0.53866681  0.21784093  0.82877768  1
  N  N47  1  0.44592159  0.09280098  0.59097785  1
  N  N48  1  0.22270268  0.53746918  0.33040400  1
  N  N49  1  0.10226522  0.44705873  0.07283081  1
  N  N50  1  0.88844356  0.53883314  0.83336231  1
  N  N51  1  0.79943144  0.41904900  0.58419722  1
  N  N52  1  0.53683417  0.54682007  0.35135809  1
  N  N53  1  0.41909520  0.43828814  0.07422163  1
  N  N54  1  0.22065497  0.53885136  0.82832534  1
  N  N55  1  0.10835635  0.43297280  0.58478828  1
  N  N56  1  0.90349998  0.55068529  0.32507030  1
  N  N57  1  0.79672520  0.42141654  0.09024082  1
  N  N58  1  0.55870734  0.53518174  0.84885395  1
  N  N59  1  0.43120314  0.41934794  0.58237383  1
  N  N60  1  0.23002787  0.85668233  0.34028172  1
  N  N61  1  0.09926810  0.75068054  0.07971696  1
  N  N62  1  0.90056113  0.84949538  0.82937313  1
  N  N63  1  0.76722832  0.74702814  0.57983203  1
  N  N64  1  0.55328045  0.87412729  0.34733476  1
  N  N65  1  0.44432919  0.76353752  0.06822329  1
  N  N66  1  0.23103357  0.84640700  0.83498494  1
  N  N67  1  0.13519686  0.74618195  0.57795860  1
  N  N68  1  0.88928388  0.87104236  0.34663940  1
  N  N69  1  0.79453993  0.75471093  0.07762784  1
  N  N70  1  0.55791452  0.87194381  0.83269006  1
  N  N71  1  0.43539193  0.77924039  0.58742638  1
