# generated using pymatgen
data_Sc11Al25N36
_symmetry_space_group_name_H-M   'P 1'
_cell_length_a   9.86092696
_cell_length_b   9.86366334
_cell_length_c   10.18395697
_cell_angle_alpha   89.95911232
_cell_angle_beta   89.98038524
_cell_angle_gamma   59.95319108
_symmetry_Int_Tables_number   1
_chemical_formula_structural   Sc11Al25N36
_chemical_formula_sum   'Sc11 Al25 N36'
_cell_volume   857.42870627
_cell_formula_units_Z   1
loop_
 _symmetry_equiv_pos_site_id
 _symmetry_equiv_pos_as_xyz
  1  'x, y, z'
loop_
 _atom_site_type_symbol
 _atom_site_label
 _atom_site_symmetry_multiplicity
 _atom_site_fract_x
 _atom_site_fract_y
 _atom_site_fract_z
 _atom_site_occupancy
  Sc  Sc0  1  0.11283148  0.09494980  0.33538073  1
  Sc  Sc1  1  0.21643699  0.21576812  0.06680042  1
  Sc  Sc2  1  0.77223433  0.09755805  0.82781463  1
  Sc  Sc3  1  0.55035091  0.20995984  0.08155565  1
  Sc  Sc4  1  0.11359401  0.09222284  0.80457951  1
  Sc  Sc5  1  0.55498442  0.53622364  0.05481517  1
  Sc  Sc6  1  0.77636348  0.43407942  0.32266201  1
  Sc  Sc7  1  0.55319010  0.53722361  0.58643537  1
  Sc  Sc8  1  0.21827817  0.86822141  0.07595757  1
  Sc  Sc9  1  0.88992869  0.87034688  0.57208382  1
  Sc  Sc10  1  0.56029599  0.87005025  0.07032008  1
  Al  Al11  1  0.88503557  0.20634015  0.56058832  1
  Al  Al12  1  0.44604132  0.09602732  0.32560960  1
  Al  Al13  1  0.22550112  0.21410260  0.56349181  1
  Al  Al14  1  0.78036111  0.08873829  0.31075173  1
  Al  Al15  1  0.89061354  0.20934993  0.06527403  1
  Al  Al16  1  0.44363443  0.09728760  0.80329394  1
  Al  Al17  1  0.55302546  0.20659709  0.55786808  1
  Al  Al18  1  0.11251460  0.43870785  0.31733728  1
  Al  Al19  1  0.21242649  0.54323864  0.06634599  1
  Al  Al20  1  0.78646990  0.42918429  0.80905947  1
  Al  Al21  1  0.89565099  0.53798200  0.56599321  1
  Al  Al22  1  0.43396682  0.43592452  0.31979439  1
  Al  Al23  1  0.11115943  0.43289311  0.81073674  1
  Al  Al24  1  0.22180292  0.53521013  0.56348561  1
  Al  Al25  1  0.89354482  0.54030281  0.06365889  1
  Al  Al26  1  0.43275937  0.42385724  0.80824623  1
  Al  Al27  1  0.10976572  0.75335780  0.31474562  1
  Al  Al28  1  0.77794845  0.75401935  0.81285922  1
  Al  Al29  1  0.44563948  0.75566091  0.32254364  1
  Al  Al30  1  0.12119525  0.74790688  0.81423646  1
  Al  Al31  1  0.22631428  0.86500579  0.55827026  1
  Al  Al32  1  0.78379627  0.76099937  0.31523515  1
  Al  Al33  1  0.89652064  0.86022679  0.06510455  1
  Al  Al34  1  0.44241126  0.76679251  0.80417106  1
  Al  Al35  1  0.55422930  0.87354930  0.56356379  1
  N  N36  1  0.23079384  0.22400000  0.37656480  1
  N  N37  1  0.09612663  0.10429952  0.12425995  1
  N  N38  1  0.88330591  0.22401905  0.87768017  1
  N  N39  1  0.76581235  0.11354340  0.61944257  1
  N  N40  1  0.55794369  0.20651440  0.36431655  1
  N  N41  1  0.44006032  0.09342458  0.14212555  1
  N  N42  1  0.22877770  0.21416684  0.85470724  1
  N  N43  1  0.11230474  0.09275148  0.59067121  1
  N  N44  1  0.87355010  0.19959910  0.37639852  1
  N  N45  1  0.79780758  0.08202064  0.11521812  1
  N  N46  1  0.53300952  0.21500854  0.87215541  1
  N  N47  1  0.44837691  0.09358868  0.61306069  1
  N  N48  1  0.21976212  0.54168714  0.37695724  1
  N  N49  1  0.10031799  0.44771224  0.12898427  1
  N  N50  1  0.89120853  0.53865988  0.87181084  1
  N  N51  1  0.80389641  0.41606816  0.61909894  1
  N  N52  1  0.53939387  0.54345864  0.37543330  1
  N  N53  1  0.41961526  0.44513443  0.13241787  1
  N  N54  1  0.22171103  0.53637785  0.87494485  1
  N  N55  1  0.11028896  0.43242912  0.62307312  1
  N  N56  1  0.90053629  0.55089510  0.37984810  1
  N  N57  1  0.79175495  0.42477566  0.11451598  1
  N  N58  1  0.55556461  0.53820146  0.83596487  1
  N  N59  1  0.43048897  0.41359614  0.62203946  1
  N  N60  1  0.22888121  0.85007921  0.36942573  1
  N  N61  1  0.10171199  0.74985784  0.12796320  1
  N  N62  1  0.90125495  0.84900555  0.86919257  1
  N  N63  1  0.76812872  0.75058480  0.62582695  1
  N  N64  1  0.55868979  0.86965267  0.37246667  1
  N  N65  1  0.45010664  0.75426728  0.13718909  1
  N  N66  1  0.23225007  0.85284616  0.86647352  1
  N  N67  1  0.13254492  0.74805606  0.62553674  1
  N  N68  1  0.88844616  0.87326004  0.36375852  1
  N  N69  1  0.79516711  0.75109662  0.12643548  1
  N  N70  1  0.55377313  0.87507526  0.85851833  1
  N  N71  1  0.43261376  0.78485031  0.61886302  1
