# generated using pymatgen
data_Sc11Al25N36
_symmetry_space_group_name_H-M   'P 1'
_cell_length_a   9.98724830
_cell_length_b   9.99151216
_cell_length_c   9.85037005
_cell_angle_alpha   89.95040431
_cell_angle_beta   89.97254092
_cell_angle_gamma   59.96758855
_symmetry_Int_Tables_number   1
_chemical_formula_structural   Sc11Al25N36
_chemical_formula_sum   'Sc11 Al25 N36'
_cell_volume   850.97764247
_cell_formula_units_Z   1
loop_
 _symmetry_equiv_pos_site_id
 _symmetry_equiv_pos_as_xyz
  1  'x, y, z'
loop_
 _atom_site_type_symbol
 _atom_site_label
 _atom_site_symmetry_multiplicity
 _atom_site_fract_x
 _atom_site_fract_y
 _atom_site_fract_z
 _atom_site_occupancy
  Sc  Sc0  1  0.11395885  0.08849012  0.38127422  1
  Sc  Sc1  1  0.21631777  0.21903491  0.12477936  1
  Sc  Sc2  1  0.77988115  0.08938269  0.86073427  1
  Sc  Sc3  1  0.55797869  0.20710236  0.12177227  1
  Sc  Sc4  1  0.11221085  0.09832388  0.85842404  1
  Sc  Sc5  1  0.55018911  0.53843998  0.11861910  1
  Sc  Sc6  1  0.78423987  0.42896223  0.35971315  1
  Sc  Sc7  1  0.55862184  0.53407424  0.61750082  1
  Sc  Sc8  1  0.21692900  0.86783044  0.11243895  1
  Sc  Sc9  1  0.89406624  0.86291719  0.60579619  1
  Sc  Sc10  1  0.56091556  0.87110092  0.11968894  1
  Al  Al11  1  0.88630832  0.21505528  0.63132735  1
  Al  Al12  1  0.44693580  0.09523867  0.38798382  1
  Al  Al13  1  0.22404907  0.21365361  0.62598235  1
  Al  Al14  1  0.77110690  0.09782249  0.38557754  1
  Al  Al15  1  0.89066073  0.19826818  0.12828393  1
  Al  Al16  1  0.44202013  0.09978637  0.86773232  1
  Al  Al17  1  0.54657452  0.21036670  0.62899532  1
  Al  Al18  1  0.11249109  0.43749108  0.38589765  1
  Al  Al19  1  0.21073918  0.54297167  0.12952473  1
  Al  Al20  1  0.78080220  0.43282387  0.88640801  1
  Al  Al21  1  0.89002161  0.53580283  0.63228996  1
  Al  Al22  1  0.43508413  0.42704431  0.38402588  1
  Al  Al23  1  0.10932923  0.43704041  0.87396175  1
  Al  Al24  1  0.22228382  0.53639261  0.63067375  1
  Al  Al25  1  0.89831601  0.54542757  0.12579895  1
  Al  Al26  1  0.43233609  0.43293758  0.87623011  1
  Al  Al27  1  0.12350317  0.75020428  0.37855423  1
  Al  Al28  1  0.78511509  0.75517969  0.87652727  1
  Al  Al29  1  0.43993477  0.76454442  0.38811309  1
  Al  Al30  1  0.10984077  0.74787130  0.87975284  1
  Al  Al31  1  0.22611663  0.86348069  0.63645365  1
  Al  Al32  1  0.77553107  0.75851782  0.38117711  1
  Al  Al33  1  0.89269481  0.86676956  0.13549555  1
  Al  Al34  1  0.44859714  0.75610881  0.87080207  1
  Al  Al35  1  0.55385500  0.87292873  0.62998376  1
  N  N36  1  0.22888843  0.21828470  0.34531396  1
  N  N37  1  0.09708301  0.10470809  0.07951912  1
  N  N38  1  0.87545761  0.23000910  0.82275505  1
  N  N39  1  0.76761889  0.11411184  0.58571733  1
  N  N40  1  0.55447158  0.20483131  0.34031081  1
  N  N41  1  0.44271990  0.09769924  0.06354252  1
  N  N42  1  0.22825739  0.22267719  0.82205923  1
  N  N43  1  0.11240223  0.09088965  0.60357282  1
  N  N44  1  0.88100464  0.19150373  0.32216621  1
  N  N45  1  0.79843453  0.07843659  0.07770865  1
  N  N46  1  0.53826656  0.21798067  0.82589179  1
  N  N47  1  0.44673807  0.09251202  0.58402246  1
  N  N48  1  0.22243795  0.53707026  0.32472003  1
  N  N49  1  0.10156098  0.44880252  0.06535469  1
  N  N50  1  0.88749264  0.53928403  0.82711257  1
  N  N51  1  0.80007354  0.41944432  0.57333829  1
  N  N52  1  0.53750341  0.54600125  0.34688813  1
  N  N53  1  0.41690441  0.43991494  0.06876097  1
  N  N54  1  0.22017657  0.53961481  0.82164895  1
  N  N55  1  0.10687331  0.43543983  0.57983519  1
  N  N56  1  0.90422400  0.55158594  0.31914397  1
  N  N57  1  0.79740265  0.42125284  0.08803426  1
  N  N58  1  0.55956098  0.53401189  0.84136760  1
  N  N59  1  0.43096071  0.41881790  0.57644034  1
  N  N60  1  0.23189034  0.85386337  0.32927500  1
  N  N61  1  0.09782109  0.75023531  0.07487763  1
  N  N62  1  0.90152463  0.84774432  0.81881320  1
  N  N63  1  0.76608407  0.74689463  0.57366451  1
  N  N64  1  0.55289737  0.87310893  0.33888257  1
  N  N65  1  0.44629552  0.76124828  0.06065782  1
  N  N66  1  0.22869863  0.84843674  0.83257341  1
  N  N67  1  0.13674789  0.74589798  0.57088792  1
  N  N68  1  0.88806264  0.87171327  0.34296580  1
  N  N69  1  0.79602440  0.75527140  0.07136439  1
  N  N70  1  0.55825910  0.87257195  0.82770385  1
  N  N71  1  0.43482191  0.77939983  0.58321059  1
