# generated using pymatgen
data_Sc11Al25N36
_symmetry_space_group_name_H-M   'P 1'
_cell_length_a   9.87215498
_cell_length_b   9.88038367
_cell_length_c   10.15374738
_cell_angle_alpha   89.98727054
_cell_angle_beta   89.95434641
_cell_angle_gamma   59.96083511
_symmetry_Int_Tables_number   1
_chemical_formula_structural   Sc11Al25N36
_chemical_formula_sum   'Sc11 Al25 N36'
_cell_volume   857.37552669
_cell_formula_units_Z   1
loop_
 _symmetry_equiv_pos_site_id
 _symmetry_equiv_pos_as_xyz
  1  'x, y, z'
loop_
 _atom_site_type_symbol
 _atom_site_label
 _atom_site_symmetry_multiplicity
 _atom_site_fract_x
 _atom_site_fract_y
 _atom_site_fract_z
 _atom_site_occupancy
  Sc  Sc0  1  0.11353527  0.09052386  0.39072547  1
  Sc  Sc1  1  0.21713171  0.21639046  0.12712746  1
  Sc  Sc2  1  0.77798501  0.09010600  0.87110958  1
  Sc  Sc3  1  0.55572563  0.20725860  0.12991908  1
  Sc  Sc4  1  0.11276668  0.09644383  0.86078788  1
  Sc  Sc5  1  0.55063828  0.53901474  0.12411238  1
  Sc  Sc6  1  0.78310076  0.42963684  0.36870532  1
  Sc  Sc7  1  0.55733725  0.53528836  0.62466603  1
  Sc  Sc8  1  0.21547769  0.86993833  0.12153662  1
  Sc  Sc9  1  0.89275596  0.86502876  0.61337947  1
  Sc  Sc10  1  0.56019692  0.87212509  0.12614628  1
  Al  Al11  1  0.88552990  0.21364754  0.63553127  1
  Al  Al12  1  0.44652548  0.09533678  0.39366965  1
  Al  Al13  1  0.22473954  0.21329978  0.63306080  1
  Al  Al14  1  0.77259468  0.09693467  0.38574423  1
  Al  Al15  1  0.89069471  0.20047768  0.13098290  1
  Al  Al16  1  0.44294877  0.09961258  0.87126361  1
  Al  Al17  1  0.54754617  0.20996024  0.63097474  1
  Al  Al18  1  0.11375141  0.43566644  0.38606218  1
  Al  Al19  1  0.21163528  0.54268950  0.13044227  1
  Al  Al20  1  0.78012149  0.43253500  0.88698609  1
  Al  Al21  1  0.89137021  0.53547169  0.63454367  1
  Al  Al22  1  0.43533518  0.42741216  0.38707118  1
  Al  Al23  1  0.10974343  0.43643538  0.87756111  1
  Al  Al24  1  0.22224792  0.53560635  0.63273807  1
  Al  Al25  1  0.89731805  0.54395045  0.12758225  1
  Al  Al26  1  0.43375755  0.43215353  0.87859660  1
  Al  Al27  1  0.12128838  0.75104075  0.38186230  1
  Al  Al28  1  0.78374450  0.75506999  0.87923356  1
  Al  Al29  1  0.44036462  0.76481148  0.39076130  1
  Al  Al30  1  0.11184950  0.74807621  0.88123788  1
  Al  Al31  1  0.22696994  0.86323832  0.63769156  1
  Al  Al32  1  0.77679890  0.75910077  0.38355660  1
  Al  Al33  1  0.89302003  0.86583165  0.13609452  1
  Al  Al34  1  0.44810532  0.75684454  0.87535242  1
  Al  Al35  1  0.55360336  0.87303165  0.63256981  1
  N  N36  1  0.23032739  0.21628722  0.34013271  1
  N  N37  1  0.09607395  0.10466908  0.07260057  1
  N  N38  1  0.87379346  0.22873754  0.82040975  1
  N  N39  1  0.76784383  0.11454977  0.57932372  1
  N  N40  1  0.55384437  0.20458604  0.34037577  1
  N  N41  1  0.44405225  0.09689024  0.05642935  1
  N  N42  1  0.22879139  0.22255458  0.82088035  1
  N  N43  1  0.11264121  0.09164021  0.60552553  1
  N  N44  1  0.88260306  0.19264976  0.31902109  1
  N  N45  1  0.79601553  0.08047189  0.08060001  1
  N  N46  1  0.53862106  0.21790268  0.82057865  1
  N  N47  1  0.44598233  0.09281519  0.58234131  1
  N  N48  1  0.22271026  0.53740953  0.32182426  1
  N  N49  1  0.10221065  0.44719942  0.06415576  1
  N  N50  1  0.88834690  0.53886928  0.82475509  1
  N  N51  1  0.79958904  0.41903398  0.57505230  1
  N  N52  1  0.53692963  0.54670151  0.34320112  1
  N  N53  1  0.41894624  0.43845201  0.06569423  1
  N  N54  1  0.22065234  0.53890588  0.81969265  1
  N  N55  1  0.10823622  0.43319942  0.57627287  1
  N  N56  1  0.90358718  0.55081775  0.31648968  1
  N  N57  1  0.79671770  0.42142083  0.08207821  1
  N  N58  1  0.55876863  0.53511592  0.83986247  1
  N  N59  1  0.43117174  0.41916572  0.57376716  1
  N  N60  1  0.23023868  0.85639424  0.33104276  1
  N  N61  1  0.09913865  0.75060401  0.07117982  1
  N  N62  1  0.90070970  0.84921434  0.82018881  1
  N  N63  1  0.76701003  0.74702450  0.57121886  1
  N  N64  1  0.55317832  0.87415569  0.33844563  1
  N  N65  1  0.44469464  0.76316777  0.05951329  1
  N  N66  1  0.23083793  0.84662956  0.82681989  1
  N  N67  1  0.13549841  0.74611922  0.56926853  1
  N  N68  1  0.88919277  0.87109078  0.33840577  1
  N  N69  1  0.79470194  0.75477092  0.06900256  1
  N  N70  1  0.55793811  0.87201432  0.82423695  1
  N  N71  1  0.43526127  0.77942868  0.57892531  1
