# generated using pymatgen
data_Sc11Al25N36
_symmetry_space_group_name_H-M   'P 1'
_cell_length_a   10.11066541
_cell_length_b   10.09919186
_cell_length_c   9.54364741
_cell_angle_alpha   89.92960458
_cell_angle_beta   89.89548460
_cell_angle_gamma   59.96565215
_symmetry_Int_Tables_number   1
_chemical_formula_structural   Sc11Al25N36
_chemical_formula_sum   'Sc11 Al25 N36'
_cell_volume   843.64591731
_cell_formula_units_Z   1
loop_
 _symmetry_equiv_pos_site_id
 _symmetry_equiv_pos_as_xyz
  1  'x, y, z'
loop_
 _atom_site_type_symbol
 _atom_site_label
 _atom_site_symmetry_multiplicity
 _atom_site_fract_x
 _atom_site_fract_y
 _atom_site_fract_z
 _atom_site_occupancy
  Sc  Sc0  1  0.11201538  0.09295485  0.34908504  1
  Sc  Sc1  1  0.21906916  0.21704248  0.08910933  1
  Sc  Sc2  1  0.77068864  0.09960442  0.85013900  1
  Sc  Sc3  1  0.54901098  0.21048243  0.10294508  1
  Sc  Sc4  1  0.11384684  0.09520322  0.83472069  1
  Sc  Sc5  1  0.56126084  0.52888836  0.08839516  1
  Sc  Sc6  1  0.78241642  0.43109023  0.34835956  1
  Sc  Sc7  1  0.55138800  0.53599661  0.60496888  1
  Sc  Sc8  1  0.21831604  0.86337491  0.09588713  1
  Sc  Sc9  1  0.88778886  0.87224850  0.59466952  1
  Sc  Sc10  1  0.56254771  0.87114680  0.09207676  1
  Al  Al11  1  0.88497344  0.20422949  0.57875328  1
  Al  Al12  1  0.44528168  0.09609017  0.34520790  1
  Al  Al13  1  0.22203879  0.21606095  0.57894802  1
  Al  Al14  1  0.78322461  0.08590640  0.32293625  1
  Al  Al15  1  0.89112422  0.21127394  0.07841222  1
  Al  Al16  1  0.44384499  0.09947280  0.81518071  1
  Al  Al17  1  0.55458155  0.20811286  0.56966138  1
  Al  Al18  1  0.11091661  0.44107048  0.32822023  1
  Al  Al19  1  0.21025100  0.54451253  0.07555474  1
  Al  Al20  1  0.78486632  0.43102680  0.82140046  1
  Al  Al21  1  0.89653769  0.53979726  0.57939735  1
  Al  Al22  1  0.43011308  0.43838424  0.33193381  1
  Al  Al23  1  0.11135530  0.43283434  0.82511968  1
  Al  Al24  1  0.22120127  0.53405085  0.57671233  1
  Al  Al25  1  0.89421767  0.53970151  0.07578115  1
  Al  Al26  1  0.43292443  0.42258815  0.82499283  1
  Al  Al27  1  0.10802595  0.75303145  0.33067886  1
  Al  Al28  1  0.77682305  0.75433632  0.82599417  1
  Al  Al29  1  0.44330344  0.76032597  0.38325006  1
  Al  Al30  1  0.12022188  0.74693261  0.82302564  1
  Al  Al31  1  0.22214984  0.86832910  0.59024856  1
  Al  Al32  1  0.78690112  0.75988858  0.32818290  1
  Al  Al33  1  0.89770732  0.85824526  0.07354993  1
  Al  Al34  1  0.44567938  0.76063451  0.86129252  1
  Al  Al35  1  0.55670837  0.87326925  0.58448163  1
  N  N36  1  0.22608707  0.22450954  0.37622505  1
  N  N37  1  0.09910789  0.10091998  0.11481098  1
  N  N38  1  0.87972710  0.22758353  0.87731311  1
  N  N39  1  0.76332497  0.11496366  0.62628255  1
  N  N40  1  0.55921723  0.20749751  0.36498608  1
  N  N41  1  0.44123741  0.09380873  0.14838232  1
  N  N42  1  0.23149798  0.21662277  0.86018132  1
  N  N43  1  0.11124563  0.09374572  0.60292323  1
  N  N44  1  0.87726950  0.19480562  0.37959335  1
  N  N45  1  0.79819384  0.08142809  0.11318021  1
  N  N46  1  0.53289403  0.21483635  0.87778586  1
  N  N47  1  0.44737000  0.09553759  0.60980167  1
  N  N48  1  0.21920642  0.54097676  0.38040529  1
  N  N49  1  0.09941545  0.45015526  0.12891352  1
  N  N50  1  0.89033730  0.53884360  0.87310052  1
  N  N51  1  0.80016228  0.41929320  0.61489111  1
  N  N52  1  0.54003947  0.54497505  0.36542320  1
  N  N53  1  0.41434702  0.44480772  0.13300045  1
  N  N54  1  0.22036970  0.53756171  0.87505975  1
  N  N55  1  0.10955693  0.43248851  0.62698404  1
  N  N56  1  0.90256340  0.55205810  0.38254835  1
  N  N57  1  0.79986516  0.42201949  0.12551543  1
  N  N58  1  0.55863202  0.53240661  0.84577500  1
  N  N59  1  0.43017089  0.41465248  0.62410804  1
  N  N60  1  0.22825857  0.85148290  0.36336270  1
  N  N61  1  0.09925046  0.74868963  0.13031091  1
  N  N62  1  0.90100799  0.84915525  0.86467612  1
  N  N63  1  0.76863605  0.75027874  0.62751054  1
  N  N64  1  0.56104585  0.86750238  0.37112628  1
  N  N65  1  0.44900335  0.75589613  0.07344574  1
  N  N66  1  0.22690746  0.85412905  0.85648461  1
  N  N67  1  0.13019142  0.74653985  0.62299908  1
  N  N68  1  0.88764627  0.87351935  0.37116338  1
  N  N69  1  0.79788561  0.75012736  0.12655916  1
  N  N70  1  0.55465592  0.87932838  0.85652716  1
  N  N71  1  0.43554827  0.77937291  0.59776728  1
