# generated using pymatgen
data_Sc11Al25N36
_symmetry_space_group_name_H-M   'P 1'
_cell_length_a   10.30790890
_cell_length_b   10.30081296
_cell_length_c   8.94111100
_cell_angle_alpha   89.94341308
_cell_angle_beta   89.98024875
_cell_angle_gamma   60.00213170
_symmetry_Int_Tables_number   1
_chemical_formula_structural   Sc11Al25N36
_chemical_formula_sum   'Sc11 Al25 N36'
_cell_volume   822.19210309
_cell_formula_units_Z   1
loop_
 _symmetry_equiv_pos_site_id
 _symmetry_equiv_pos_as_xyz
  1  'x, y, z'
loop_
 _atom_site_type_symbol
 _atom_site_label
 _atom_site_symmetry_multiplicity
 _atom_site_fract_x
 _atom_site_fract_y
 _atom_site_fract_z
 _atom_site_occupancy
  Sc  Sc0  1  0.11275046  0.09178888  0.35583460  1
  Sc  Sc1  1  0.22025427  0.21724196  0.10022458  1
  Sc  Sc2  1  0.77445003  0.09504324  0.85234969  1
  Sc  Sc3  1  0.55145986  0.20934102  0.10695308  1
  Sc  Sc4  1  0.11372680  0.09529581  0.84515068  1
  Sc  Sc5  1  0.55570454  0.53435144  0.09694426  1
  Sc  Sc6  1  0.78450759  0.43059277  0.35044511  1
  Sc  Sc7  1  0.55381585  0.53494490  0.60533146  1
  Sc  Sc8  1  0.21883891  0.86270182  0.10046115  1
  Sc  Sc9  1  0.88877487  0.86917749  0.59663643  1
  Sc  Sc10  1  0.56056766  0.87099929  0.09981755  1
  Al  Al11  1  0.88615499  0.20741874  0.59300187  1
  Al  Al12  1  0.44483243  0.09635129  0.35710685  1
  Al  Al13  1  0.22074322  0.21659517  0.59228653  1
  Al  Al14  1  0.77893039  0.09123861  0.34381275  1
  Al  Al15  1  0.89046572  0.20766809  0.08906898  1
  Al  Al16  1  0.44385672  0.09873007  0.82021119  1
  Al  Al17  1  0.55288375  0.20928035  0.58461156  1
  Al  Al18  1  0.11037652  0.44031945  0.33853984  1
  Al  Al19  1  0.21067054  0.54476013  0.08221856  1
  Al  Al20  1  0.78304778  0.43116188  0.84111959  1
  Al  Al21  1  0.89460557  0.53901552  0.59156182  1
  Al  Al22  1  0.43123983  0.43514800  0.34196998  1
  Al  Al23  1  0.11133083  0.43363410  0.83277552  1
  Al  Al24  1  0.22152685  0.53408841  0.58645593  1
  Al  Al25  1  0.89496683  0.54111874  0.08074819  1
  Al  Al26  1  0.43365628  0.42551573  0.83503998  1
  Al  Al27  1  0.11306724  0.75129303  0.34450538  1
  Al  Al28  1  0.77963202  0.75579619  0.83624131  1
  Al  Al29  1  0.44347100  0.76070314  0.37483086  1
  Al  Al30  1  0.11630017  0.74897817  0.82987762  1
  Al  Al31  1  0.22431383  0.86637487  0.60342119  1
  Al  Al32  1  0.78325314  0.75822424  0.33905031  1
  Al  Al33  1  0.89613669  0.86181702  0.09661099  1
  Al  Al34  1  0.44433346  0.76117555  0.85105393  1
  Al  Al35  1  0.55646995  0.87113404  0.59822527  1
  N  N36  1  0.22392873  0.22368310  0.36909976  1
  N  N37  1  0.10040393  0.10023401  0.10396227  1
  N  N38  1  0.88024078  0.22269553  0.86102413  1
  N  N39  1  0.76744875  0.10986451  0.60667759  1
  N  N40  1  0.55673670  0.20954555  0.36391803  1
  N  N41  1  0.44354869  0.09415879  0.13809676  1
  N  N42  1  0.23203956  0.21661249  0.84741957  1
  N  N43  1  0.11170475  0.09342642  0.60296747  1
  N  N44  1  0.88002917  0.19813651  0.36731665  1
  N  N45  1  0.79563055  0.08401087  0.11081889  1
  N  N46  1  0.53716606  0.21297218  0.85889992  1
  N  N47  1  0.44662794  0.09457630  0.59871544  1
  N  N48  1  0.22041547  0.53881737  0.37265000  1
  N  N49  1  0.10025660  0.44931164  0.11730730  1
  N  N50  1  0.89147570  0.53964044  0.86132038  1
  N  N51  1  0.79660912  0.42162498  0.61167539  1
  N  N52  1  0.54110361  0.54549324  0.35691057  1
  N  N53  1  0.41647763  0.44133964  0.12003867  1
  N  N54  1  0.21997652  0.53882862  0.86348681  1
  N  N55  1  0.10891796  0.43332199  0.61810000  1
  N  N56  1  0.90143029  0.54981324  0.37349400  1
  N  N57  1  0.79736630  0.42305504  0.10511737  1
  N  N58  1  0.55714597  0.53292187  0.84930441  1
  N  N59  1  0.43167601  0.41855123  0.61441825  1
  N  N60  1  0.23069374  0.85224195  0.36153431  1
  N  N61  1  0.10219984  0.74862809  0.12281362  1
  N  N62  1  0.90088182  0.85110455  0.85945328  1
  N  N63  1  0.76967933  0.75137973  0.61697490  1
  N  N64  1  0.55925356  0.86557034  0.36643588  1
  N  N65  1  0.44576031  0.75982792  0.07983356  1
  N  N66  1  0.22624031  0.85367625  0.84468514  1
  N  N67  1  0.12727479  0.74809867  0.60901761  1
  N  N68  1  0.88704433  0.87229993  0.35486289  1
  N  N69  1  0.79473863  0.75083697  0.11477934  1
  N  N70  1  0.55455516  0.87926142  0.84466472  1
  N  N71  1  0.43740260  0.77607764  0.60610671  1
