# generated using pymatgen
data_Gd2Al7N9
_symmetry_space_group_name_H-M   'P 1'
_cell_length_a   9.87294157
_cell_length_b   9.87041624
_cell_length_c   10.41142241
_cell_angle_alpha   90.01907455
_cell_angle_beta   89.85094546
_cell_angle_gamma   60.03487551
_symmetry_Int_Tables_number   1
_chemical_formula_structural   Gd2Al7N9
_chemical_formula_sum   'Gd8 Al28 N36'
_cell_volume   878.96788720
_cell_formula_units_Z   4
loop_
 _symmetry_equiv_pos_site_id
 _symmetry_equiv_pos_as_xyz
  1  'x, y, z'
loop_
 _atom_site_type_symbol
 _atom_site_label
 _atom_site_symmetry_multiplicity
 _atom_site_fract_x
 _atom_site_fract_y
 _atom_site_fract_z
 _atom_site_occupancy
  Al  Al0  1  0.11242893  0.08624466  0.41320333  1
  Al  Al1  1  0.21398568  0.21300342  0.14522870  1
  Al  Al2  1  0.89768183  0.21499005  0.65759553  1
  Al  Al3  1  0.55868871  0.21114745  0.15594517  1
  Al  Al4  1  0.11223370  0.10236888  0.90196083  1
  Al  Al5  1  0.22375900  0.20374588  0.67399802  1
  Al  Al6  1  0.78418121  0.09939011  0.39833581  1
  Al  Al7  1  0.89482910  0.20110343  0.15489837  1
  Al  Al8  1  0.43899433  0.09975757  0.90831205  1
  Al  Al9  1  0.53913036  0.21323311  0.65601092  1
  Al  Al10  1  0.21986226  0.53918450  0.14918785  1
  Al  Al11  1  0.77992226  0.42879791  0.91635510  1
  Al  Al12  1  0.88917835  0.53513906  0.68164508  1
  Al  Al13  1  0.43522729  0.43658030  0.39456201  1
  Al  Al14  1  0.55154059  0.54113629  0.15023684  1
  Al  Al15  1  0.11503909  0.42732848  0.90342081  1
  Al  Al16  1  0.22554845  0.53136550  0.66769012  1
  Al  Al17  1  0.89397116  0.53668290  0.13789857  1
  Al  Al18  1  0.43774684  0.43198264  0.91337556  1
  Al  Al19  1  0.12610368  0.75698513  0.40977842  1
  Al  Al20  1  0.77910714  0.75864820  0.91424265  1
  Al  Al21  1  0.43077125  0.76782886  0.40990167  1
  Al  Al22  1  0.55647077  0.86881313  0.14255484  1
  Al  Al23  1  0.11395790  0.75341363  0.90844796  1
  Al  Al24  1  0.22723818  0.87512742  0.65574547  1
  Al  Al25  1  0.89222611  0.86942796  0.15952506  1
  Al  Al26  1  0.44955262  0.75837047  0.90627517  1
  Al  Al27  1  0.55063998  0.87435986  0.67172636  1
  Gd  Gd28  1  0.77567335  0.10019332  0.90228429  1
  Gd  Gd29  1  0.44304555  0.09577112  0.39919823  1
  Gd  Gd30  1  0.11590870  0.42728951  0.41706666  1
  Gd  Gd31  1  0.77615952  0.41653853  0.38870381  1
  Gd  Gd32  1  0.55169030  0.53212154  0.65088577  1
  Gd  Gd33  1  0.22373568  0.87687512  0.15791974  1
  Gd  Gd34  1  0.89333643  0.87159538  0.64463690  1
  Gd  Gd35  1  0.76652011  0.75891749  0.39757831  1
  N  N36  1  0.20362053  0.19324970  0.32866486  1
  N  N37  1  0.09605686  0.12252804  0.08134543  1
  N  N38  1  0.90339957  0.22346837  0.84032860  1
  N  N39  1  0.75869749  0.13602958  0.59505635  1
  N  N40  1  0.57236863  0.22485669  0.33662533  1
  N  N41  1  0.44549201  0.09814968  0.09957204  1
  N  N42  1  0.22538444  0.20400642  0.85598541  1
  N  N43  1  0.11388877  0.09625077  0.60266319  1
  N  N44  1  0.91628093  0.16828371  0.33528697  1
  N  N45  1  0.78140517  0.09100061  0.11561432  1
  N  N46  1  0.52332987  0.22602889  0.84172396  1
  N  N47  1  0.44377238  0.09007766  0.61997906  1
  N  N48  1  0.22810263  0.55449852  0.33056283  1
  N  N49  1  0.11610698  0.42774695  0.09082683  1
  N  N50  1  0.88612555  0.54002122  0.86924882  1
  N  N51  1  0.80746569  0.42150856  0.60331613  1
  N  N52  1  0.51999147  0.56214493  0.34182574  1
  N  N53  1  0.44342330  0.42822809  0.09678631  1
  N  N54  1  0.22712458  0.54010970  0.85251875  1
  N  N55  1  0.10746581  0.42891275  0.64033301  1
  N  N56  1  0.89768150  0.53227115  0.31550557  1
  N  N57  1  0.77567085  0.42213393  0.10566846  1
  N  N58  1  0.55855912  0.53354663  0.86624587  1
  N  N59  1  0.41747451  0.41052797  0.57763058  1
  N  N60  1  0.21951322  0.87480249  0.37426232  1
  N  N61  1  0.09960876  0.75011402  0.09099928  1
  N  N62  1  0.90228835  0.84537617  0.85677702  1
  N  N63  1  0.76288847  0.74326604  0.61788584  1
  N  N64  1  0.52892224  0.86121098  0.32119555  1
  N  N65  1  0.47024003  0.74658407  0.08384141  1
  N  N66  1  0.22259272  0.87287899  0.85076507  1
  N  N67  1  0.14956037  0.73744516  0.59629690  1
  N  N68  1  0.90565570  0.87855599  0.35521867  1
  N  N69  1  0.77757527  0.76535559  0.10294410  1
  N  N70  1  0.55624647  0.87474959  0.85793860  1
  N  N71  1  0.43621958  0.78749497  0.59633531  1
