# generated using pymatgen
data_Gd2Al7N9
_symmetry_space_group_name_H-M   'P 1'
_cell_length_a   9.87293421
_cell_length_b   9.87041382
_cell_length_c   10.41143689
_cell_angle_alpha   90.01906029
_cell_angle_beta   89.85091141
_cell_angle_gamma   60.03489992
_symmetry_Int_Tables_number   1
_chemical_formula_structural   Gd2Al7N9
_chemical_formula_sum   'Gd8 Al28 N36'
_cell_volume   878.96845405
_cell_formula_units_Z   4
loop_
 _symmetry_equiv_pos_site_id
 _symmetry_equiv_pos_as_xyz
  1  'x, y, z'
loop_
 _atom_site_type_symbol
 _atom_site_label
 _atom_site_symmetry_multiplicity
 _atom_site_fract_x
 _atom_site_fract_y
 _atom_site_fract_z
 _atom_site_occupancy
  Al  Al0  1  0.11243254  0.08622519  0.41078105  1
  Al  Al1  1  0.21398958  0.21298324  0.14280461  1
  Al  Al2  1  0.89768371  0.21497107  0.65516991  1
  Al  Al3  1  0.55869107  0.21112787  0.15352439  1
  Al  Al4  1  0.11223645  0.10235074  0.89953278  1
  Al  Al5  1  0.22376164  0.20372885  0.67157194  1
  Al  Al6  1  0.78418449  0.09937041  0.39590908  1
  Al  Al7  1  0.89483274  0.20108548  0.15247585  1
  Al  Al8  1  0.43899716  0.09973943  0.90588499  1
  Al  Al9  1  0.53913489  0.21321478  0.65358925  1
  Al  Al10  1  0.21986517  0.53916641  0.14676570  1
  Al  Al11  1  0.77992590  0.42877847  0.91392673  1
  Al  Al12  1  0.88918252  0.53512038  0.67921748  1
  Al  Al13  1  0.43523060  0.43656172  0.39213894  1
  Al  Al14  1  0.55154420  0.54111703  0.14781047  1
  Al  Al15  1  0.11504283  0.42730976  0.90099915  1
  Al  Al16  1  0.22555169  0.53134642  0.66526299  1
  Al  Al17  1  0.89397274  0.53666388  0.13547044  1
  Al  Al18  1  0.43774940  0.43196376  0.91095484  1
  Al  Al19  1  0.12610689  0.75696640  0.40735383  1
  Al  Al20  1  0.77911082  0.75862917  0.91181736  1
  Al  Al21  1  0.43077529  0.76780986  0.40747549  1
  Al  Al22  1  0.55647363  0.86879563  0.14012931  1
  Al  Al23  1  0.11396153  0.75339418  0.90602145  1
  Al  Al24  1  0.22724203  0.87510859  0.65332003  1
  Al  Al25  1  0.89222972  0.86940785  0.15710192  1
  Al  Al26  1  0.44955479  0.75835224  0.90385436  1
  Al  Al27  1  0.55064310  0.87434094  0.66930425  1
  Gd  Gd28  1  0.77567731  0.10017432  0.89986373  1
  Gd  Gd29  1  0.44304872  0.09575140  0.39677742  1
  Gd  Gd30  1  0.11590999  0.42727031  0.41463840  1
  Gd  Gd31  1  0.77616133  0.41652000  0.38628032  1
  Gd  Gd32  1  0.55169183  0.53210513  0.64846328  1
  Gd  Gd33  1  0.22373632  0.87685836  0.15549547  1
  Gd  Gd34  1  0.89333939  0.87157750  0.64221297  1
  Gd  Gd35  1  0.76652379  0.75889734  0.39515419  1
  N  N36  1  0.20362487  0.19322842  0.32624059  1
  N  N37  1  0.09605922  0.12251013  0.07891827  1
  N  N38  1  0.90340194  0.22344901  0.83790202  1
  N  N39  1  0.75870107  0.13601018  0.59263097  1
  N  N40  1  0.57237057  0.22483742  0.33420346  1
  N  N41  1  0.44549470  0.09813115  0.09714640  1
  N  N42  1  0.22538674  0.20398948  0.85355905  1
  N  N43  1  0.11389195  0.09623236  0.60023929  1
  N  N44  1  0.91628485  0.16826493  0.33286372  1
  N  N45  1  0.78140834  0.09098158  0.11319375  1
  N  N46  1  0.52333457  0.22601034  0.83930156  1
  N  N47  1  0.44377644  0.09005920  0.61755772  1
  N  N48  1  0.22810564  0.55447991  0.32813992  1
  N  N49  1  0.11611067  0.42772781  0.08840430  1
  N  N50  1  0.88613017  0.54000192  0.86682256  1
  N  N51  1  0.80746735  0.42149051  0.60089209  1
  N  N52  1  0.51999468  0.56212583  0.33940021  1
  N  N53  1  0.44342602  0.42820873  0.09436460  1
  N  N54  1  0.22712800  0.54008981  0.85009315  1
  N  N55  1  0.10746897  0.42889437  0.63790356  1
  N  N56  1  0.89768212  0.53225211  0.31307785  1
  N  N57  1  0.77567381  0.42211439  0.10324095  1
  N  N58  1  0.55856103  0.53352888  0.86382346  1
  N  N59  1  0.41747959  0.41050910  0.57520720  1
  N  N60  1  0.21951659  0.87478365  0.37183786  1
  N  N61  1  0.09961231  0.75009461  0.08857379  1
  N  N62  1  0.90229123  0.84535832  0.85435278  1
  N  N63  1  0.76289127  0.74324810  0.61546209  1
  N  N64  1  0.52892679  0.86119296  0.31877070  1
  N  N65  1  0.47024148  0.74656645  0.08141956  1
  N  N66  1  0.22259638  0.87286003  0.84833962  1
  N  N67  1  0.14956360  0.73742693  0.59387213  1
  N  N68  1  0.90565930  0.87853609  0.35279391  1
  N  N69  1  0.77757833  0.76533669  0.10051821  1
  N  N70  1  0.55624931  0.87473021  0.85551549  1
  N  N71  1  0.43622310  0.78747737  0.59390941  1
