# generated using pymatgen
data_Gd2Al7N9
_symmetry_space_group_name_H-M   'P 1'
_cell_length_a   9.85467566
_cell_length_b   9.86531436
_cell_length_c   10.74585308
_cell_angle_alpha   91.90855692
_cell_angle_beta   91.71171817
_cell_angle_gamma   59.93570899
_symmetry_Int_Tables_number   1
_chemical_formula_structural   Gd2Al7N9
_chemical_formula_sum   'Gd8 Al28 N36'
_cell_volume   903.54880811
_cell_formula_units_Z   4
loop_
 _symmetry_equiv_pos_site_id
 _symmetry_equiv_pos_as_xyz
  1  'x, y, z'
loop_
 _atom_site_type_symbol
 _atom_site_label
 _atom_site_symmetry_multiplicity
 _atom_site_fract_x
 _atom_site_fract_y
 _atom_site_fract_z
 _atom_site_occupancy
  Al  Al0  1  0.11408316  0.07201187  0.40352195  1
  Al  Al1  1  0.23155611  0.21777937  0.03475035  1
  Al  Al2  1  0.87749436  0.20619509  0.57160294  1
  Al  Al3  1  0.56294328  0.22261406  0.11990849  1
  Al  Al4  1  0.11054825  0.10205891  0.80553921  1
  Al  Al5  1  0.21863984  0.20604488  0.57870068  1
  Al  Al6  1  0.80663135  0.07927077  0.29798551  1
  Al  Al7  1  0.91197052  0.22704367  0.05207297  1
  Al  Al8  1  0.43289088  0.09430506  0.80200705  1
  Al  Al9  1  0.53085809  0.21238637  0.63324310  1
  Al  Al10  1  0.22869958  0.54616420  0.11527355  1
  Al  Al11  1  0.79436974  0.42707813  0.80639328  1
  Al  Al12  1  0.88794036  0.52583462  0.56891090  1
  Al  Al13  1  0.42905007  0.42814415  0.37540151  1
  Al  Al14  1  0.57347215  0.54293043  0.03390589  1
  Al  Al15  1  0.10857894  0.42952321  0.81285864  1
  Al  Al16  1  0.21725476  0.52554448  0.62466757  1
  Al  Al17  1  0.89513673  0.54881232  0.03141646  1
  Al  Al18  1  0.42563705  0.43416991  0.87716913  1
  Al  Al19  1  0.13028975  0.74352047  0.37905542  1
  Al  Al20  1  0.77667436  0.75558552  0.80417711  1
  Al  Al21  1  0.42490271  0.76537761  0.41219297  1
  Al  Al22  1  0.56743206  0.88751354  0.03352588  1
  Al  Al23  1  0.12057225  0.75258890  0.87252545  1
  Al  Al24  1  0.22140571  0.86240331  0.63781001  1
  Al  Al25  1  0.89689253  0.86613447  0.04303258  1
  Al  Al26  1  0.44270591  0.77052528  0.86478489  1
  Al  Al27  1  0.55245923  0.86935086  0.57552719  1
  Gd  Gd28  1  0.76470770  0.11342645  0.84567820  1
  Gd  Gd29  1  0.44799139  0.09538832  0.32786078  1
  Gd  Gd30  1  0.09958842  0.39163178  0.28605796  1
  Gd  Gd31  1  0.74700898  0.41233962  0.31042261  1
  Gd  Gd32  1  0.53640318  0.52599516  0.61094990  1
  Gd  Gd33  1  0.23071575  0.88731340  0.13158917  1
  Gd  Gd34  1  0.88223538  0.87731120  0.57396024  1
  Gd  Gd35  1  0.77632670  0.74723542  0.29707082  1
  N  N36  1  0.21470190  0.18505885  0.40672192  1
  N  N37  1  0.11273772  0.14805713  0.11717924  1
  N  N38  1  0.91204259  0.22597641  0.87443611  1
  N  N39  1  0.74883870  0.13255626  0.62871028  1
  N  N40  1  0.58501734  0.23285133  0.29630431  1
  N  N41  1  0.45258800  0.10291582  0.09811367  1
  N  N42  1  0.22341897  0.20393290  0.85512017  1
  N  N43  1  0.10210871  0.08846447  0.61661188  1
  N  N44  1  0.89994375  0.17284748  0.39475395  1
  N  N45  1  0.80271397  0.09473388  0.09702128  1
  N  N46  1  0.50697355  0.23538085  0.81214526  1
  N  N47  1  0.43941388  0.08344443  0.62195419  1
  N  N48  1  0.22788193  0.54183284  0.29557732  1
  N  N49  1  0.11790618  0.43924908  0.06952148  1
  N  N50  1  0.88876108  0.54460724  0.85711140  1
  N  N51  1  0.79959738  0.41108585  0.62937849  1
  N  N52  1  0.51777223  0.55368058  0.39255522  1
  N  N53  1  0.45111350  0.43572525  0.05561182  1
  N  N54  1  0.22351189  0.54634338  0.80699534  1
  N  N55  1  0.10055729  0.42092889  0.63126670  1
  N  N56  1  0.88462186  0.52206815  0.39223778  1
  N  N57  1  0.78305267  0.44608451  0.09663608  1
  N  N58  1  0.56204127  0.53373110  0.84736256  1
  N  N59  1  0.40715422  0.39061246  0.54472389  1
  N  N60  1  0.22185226  0.86776958  0.34469856  1
  N  N61  1  0.11699183  0.75099789  0.05112378  1
  N  N62  1  0.89804217  0.85191339  0.85267019  1
  N  N63  1  0.76439714  0.74199747  0.62702985  1
  N  N64  1  0.54921729  0.85829899  0.39346759  1
  N  N65  1  0.47103331  0.76233090  0.04537761  1
  N  N66  1  0.21950136  0.87198434  0.82006536  1
  N  N67  1  0.14904868  0.72966109  0.56330717  1
  N  N68  1  0.90334826  0.87314013  0.35691877  1
  N  N69  1  0.78284532  0.76830803  0.08309007  1
  N  N70  1  0.55782286  0.88311932  0.85389242  1
  N  N71  1  0.42418195  0.78564274  0.59290352  1
