# generated using pymatgen
data_Gd2Al7N9
_symmetry_space_group_name_H-M   'P 1'
_cell_length_a   9.87203548
_cell_length_b   9.86869815
_cell_length_c   10.83590190
_cell_angle_alpha   91.21891635
_cell_angle_beta   91.25519183
_cell_angle_gamma   59.74745646
_symmetry_Int_Tables_number   1
_chemical_formula_structural   Gd2Al7N9
_chemical_formula_sum   'Gd8 Al28 N36'
_cell_volume   911.62601788
_cell_formula_units_Z   4
loop_
 _symmetry_equiv_pos_site_id
 _symmetry_equiv_pos_as_xyz
  1  'x, y, z'
loop_
 _atom_site_type_symbol
 _atom_site_label
 _atom_site_symmetry_multiplicity
 _atom_site_fract_x
 _atom_site_fract_y
 _atom_site_fract_z
 _atom_site_occupancy
  Al  Al0  1  0.11301024  0.07438389  0.41042692  1
  Al  Al1  1  0.23643814  0.21687203  0.04152312  1
  Al  Al2  1  0.87799724  0.20697722  0.56791991  1
  Al  Al3  1  0.56367406  0.21910253  0.12011669  1
  Al  Al4  1  0.11925918  0.09476768  0.87677730  1
  Al  Al5  1  0.21375445  0.20307157  0.57643165  1
  Al  Al6  1  0.80528413  0.08524292  0.29691806  1
  Al  Al7  1  0.89941178  0.21955165  0.04919939  1
  Al  Al8  1  0.43013412  0.09607984  0.80107199  1
  Al  Al9  1  0.52786088  0.21322252  0.62969917  1
  Al  Al10  1  0.23020563  0.54239960  0.11746400  1
  Al  Al11  1  0.79568325  0.42435912  0.80529087  1
  Al  Al12  1  0.88275497  0.53111602  0.57163626  1
  Al  Al13  1  0.43586576  0.43281303  0.37487698  1
  Al  Al14  1  0.57520179  0.53519719  0.03165794  1
  Al  Al15  1  0.10803486  0.42599814  0.80507302  1
  Al  Al16  1  0.21667141  0.52841184  0.62355716  1
  Al  Al17  1  0.89770340  0.53930941  0.03740971  1
  Al  Al18  1  0.42511182  0.43158670  0.87509726  1
  Al  Al19  1  0.13362610  0.75320012  0.38277713  1
  Al  Al20  1  0.77765766  0.75286381  0.80856985  1
  Al  Al21  1  0.42524793  0.77063536  0.41725005  1
  Al  Al22  1  0.56717770  0.88293590  0.03451417  1
  Al  Al23  1  0.12043898  0.74939769  0.87183395  1
  Al  Al24  1  0.21602434  0.87559250  0.64312491  1
  Al  Al25  1  0.89592089  0.86217930  0.04045549  1
  Al  Al26  1  0.44404837  0.76755297  0.86513740  1
  Al  Al27  1  0.55135193  0.87065689  0.58026936  1
  Gd  Gd28  1  0.76503291  0.10917255  0.83557276  1
  Gd  Gd29  1  0.44770425  0.09940271  0.33175658  1
  Gd  Gd30  1  0.10845447  0.41953791  0.31332768  1
  Gd  Gd31  1  0.75167478  0.42251603  0.31243741  1
  Gd  Gd32  1  0.53434181  0.52751706  0.61230715  1
  Gd  Gd33  1  0.23661938  0.86985088  0.13300321  1
  Gd  Gd34  1  0.88129391  0.87565988  0.57079642  1
  Gd  Gd35  1  0.77223274  0.75929901  0.29642756  1
  N  N36  1  0.21219066  0.19065206  0.40093456  1
  N  N37  1  0.11993984  0.11304049  0.06058693  1
  N  N38  1  0.90184006  0.22572668  0.87281537  1
  N  N39  1  0.74715163  0.13181991  0.62149824  1
  N  N40  1  0.58323198  0.23732801  0.29408465  1
  N  N41  1  0.45422011  0.09713629  0.10360633  1
  N  N42  1  0.22482377  0.21049780  0.86077193  1
  N  N43  1  0.10146661  0.08615330  0.59184159  1
  N  N44  1  0.89770076  0.18057173  0.38684117  1
  N  N45  1  0.79990846  0.09009134  0.09606510  1
  N  N46  1  0.50710851  0.23503733  0.80733637  1
  N  N47  1  0.43438538  0.08600018  0.62252726  1
  N  N48  1  0.23734402  0.55709681  0.29577138  1
  N  N49  1  0.11623572  0.43018663  0.09553523  1
  N  N50  1  0.89345756  0.53823793  0.86176103  1
  N  N51  1  0.79877475  0.41161196  0.62951604  1
  N  N52  1  0.52281528  0.55790796  0.39722864  1
  N  N53  1  0.44885062  0.43066061  0.05212993  1
  N  N54  1  0.22242258  0.54410631  0.80486096  1
  N  N55  1  0.09946383  0.42225715  0.62626344  1
  N  N56  1  0.87884614  0.53890501  0.39685238  1
  N  N57  1  0.78356922  0.43595734  0.09693689  1
  N  N58  1  0.56185653  0.53224729  0.84708705  1
  N  N59  1  0.40477224  0.39286270  0.54091209  1
  N  N60  1  0.22535178  0.87410292  0.34481905  1
  N  N61  1  0.11688573  0.74337182  0.04844899  1
  N  N62  1  0.89843118  0.84837066  0.85437441  1
  N  N63  1  0.76265966  0.74320323  0.63376472  1
  N  N64  1  0.55056185  0.86265939  0.40016773  1
  N  N65  1  0.47428520  0.75436154  0.04501590  1
  N  N66  1  0.21861472  0.87340685  0.82411657  1
  N  N67  1  0.14863244  0.73482393  0.56590201  1
  N  N68  1  0.90574749  0.87715344  0.35658375  1
  N  N69  1  0.78362667  0.76203274  0.08281991  1
  N  N70  1  0.55615797  0.88392460  0.85641310  1
  N  N71  1  0.42250329  0.78754097  0.59774476  1
