# generated using pymatgen
data_Gd2Al7N9
_symmetry_space_group_name_H-M   'P 1'
_cell_length_a   9.87252095
_cell_length_b   9.86856559
_cell_length_c   10.83628058
_cell_angle_alpha   91.19434645
_cell_angle_beta   91.24439663
_cell_angle_gamma   59.74090910
_symmetry_Int_Tables_number   1
_chemical_formula_structural   Gd2Al7N9
_chemical_formula_sum   'Gd8 Al28 N36'
_cell_volume   911.63756782
_cell_formula_units_Z   4
loop_
 _symmetry_equiv_pos_site_id
 _symmetry_equiv_pos_as_xyz
  1  'x, y, z'
loop_
 _atom_site_type_symbol
 _atom_site_label
 _atom_site_symmetry_multiplicity
 _atom_site_fract_x
 _atom_site_fract_y
 _atom_site_fract_z
 _atom_site_occupancy
  Al  Al0  1  0.11297837  0.07472214  0.43450117  1
  Al  Al1  1  0.23635080  0.21693120  0.06588333  1
  Al  Al2  1  0.87794570  0.20719018  0.59198286  1
  Al  Al3  1  0.56365571  0.21915879  0.14420146  1
  Al  Al4  1  0.11928633  0.09486678  0.90099900  1
  Al  Al5  1  0.21364026  0.20328897  0.60058954  1
  Al  Al6  1  0.80525889  0.08555655  0.32099129  1
  Al  Al7  1  0.89936928  0.21953835  0.07332014  1
  Al  Al8  1  0.43005931  0.09629071  0.82527490  1
  Al  Al9  1  0.52775641  0.21340741  0.65376037  1
  Al  Al10  1  0.23019472  0.54249922  0.14155688  1
  Al  Al11  1  0.79570289  0.42447995  0.82944996  1
  Al  Al12  1  0.88264171  0.53141276  0.59582494  1
  Al  Al13  1  0.43600807  0.43312673  0.39888214  1
  Al  Al14  1  0.57516758  0.53520045  0.05573941  1
  Al  Al15  1  0.10800379  0.42614643  0.82920023  1
  Al  Al16  1  0.21664509  0.52860888  0.64765825  1
  Al  Al17  1  0.89769983  0.53930752  0.06166657  1
  Al  Al18  1  0.42506884  0.43171375  0.89917368  1
  Al  Al19  1  0.13368617  0.75357294  0.40692872  1
  Al  Al20  1  0.77762029  0.75300226  0.83278541  1
  Al  Al21  1  0.42533282  0.77091493  0.44143799  1
  Al  Al22  1  0.56710509  0.88298147  0.05867832  1
  Al  Al23  1  0.12038611  0.74954885  0.89589937  1
  Al  Al24  1  0.21599180  0.87579203  0.66724778  1
  Al  Al25  1  0.89586368  0.86225394  0.06450550  1
  Al  Al26  1  0.44401956  0.76766224  0.88923903  1
  Al  Al27  1  0.55128903  0.87088787  0.60453212  1
  Gd  Gd28  1  0.76501621  0.10933778  0.85958518  1
  Gd  Gd29  1  0.44759168  0.09978160  0.35598483  1
  Gd  Gd30  1  0.10859301  0.42018239  0.33789855  1
  Gd  Gd31  1  0.75185425  0.42288825  0.33654291  1
  Gd  Gd32  1  0.53434095  0.52762088  0.63642428  1
  Gd  Gd33  1  0.23662568  0.86974432  0.15716305  1
  Gd  Gd34  1  0.88124269  0.87582885  0.59488791  1
  Gd  Gd35  1  0.77213303  0.75980970  0.32054220  1
  N  N36  1  0.21205581  0.19106010  0.42510985  1
  N  N37  1  0.11992178  0.11299000  0.08475131  1
  N  N38  1  0.90186460  0.22578690  0.89693850  1
  N  N39  1  0.74706122  0.13202601  0.64550425  1
  N  N40  1  0.58321177  0.23758665  0.31813013  1
  N  N41  1  0.45422842  0.09714326  0.12785234  1
  N  N42  1  0.22478962  0.21069641  0.88507233  1
  N  N43  1  0.10140022  0.08636086  0.61592033  1
  N  N44  1  0.89766033  0.18087549  0.41090199  1
  N  N45  1  0.79984634  0.09013477  0.12013469  1
  N  N46  1  0.50707649  0.23520711  0.83138470  1
  N  N47  1  0.43423230  0.08623621  0.64673644  1
  N  N48  1  0.23753162  0.55761989  0.31977853  1
  N  N49  1  0.11619333  0.43022266  0.12004905  1
  N  N50  1  0.89348977  0.53831499  0.88598586  1
  N  N51  1  0.79876856  0.41178556  0.65366383  1
  N  N52  1  0.52299030  0.55815712  0.42137575  1
  N  N53  1  0.44877382  0.43070625  0.07616377  1
  N  N54  1  0.22237903  0.54426050  0.82893276  1
  N  N55  1  0.09939639  0.42249044  0.65038844  1
  N  N56  1  0.87876390  0.53943971  0.42104186  1
  N  N57  1  0.78351235  0.43593492  0.12100413  1
  N  N58  1  0.56184621  0.53234712  0.87118179  1
  N  N59  1  0.40467188  0.39306360  0.56487401  1
  N  N60  1  0.22544333  0.87444295  0.36899124  1
  N  N61  1  0.11681491  0.74343102  0.07246431  1
  N  N62  1  0.89836405  0.84853169  0.87845276  1
  N  N63  1  0.76259738  0.74341585  0.65800890  1
  N  N64  1  0.55057119  0.86302808  0.42445164  1
  N  N65  1  0.47424724  0.75437366  0.06912363  1
  N  N66  1  0.21858531  0.87355541  0.84821894  1
  N  N67  1  0.14860601  0.73505597  0.59001724  1
  N  N68  1  0.90582834  0.87742986  0.38068461  1
  N  N69  1  0.78359572  0.76207024  0.10693551  1
  N  N70  1  0.55609342  0.88407666  0.88058486  1
  N  N71  1  0.42251089  0.78767634  0.62193532  1
