# generated using pymatgen
data_Gd2Al7N9
_symmetry_space_group_name_H-M   'P 1'
_cell_length_a   9.87990326
_cell_length_b   9.88139009
_cell_length_c   10.40958747
_cell_angle_alpha   90.33933315
_cell_angle_beta   90.30994648
_cell_angle_gamma   60.13286092
_symmetry_Int_Tables_number   1
_chemical_formula_structural   Gd2Al7N9
_chemical_formula_sum   'Gd8 Al28 N36'
_cell_volume   881.26271996
_cell_formula_units_Z   4
loop_
 _symmetry_equiv_pos_site_id
 _symmetry_equiv_pos_as_xyz
  1  'x, y, z'
loop_
 _atom_site_type_symbol
 _atom_site_label
 _atom_site_symmetry_multiplicity
 _atom_site_fract_x
 _atom_site_fract_y
 _atom_site_fract_z
 _atom_site_occupancy
  Al  Al0  1  0.10814769  0.09148077  0.31212617  1
  Al  Al1  1  0.21926763  0.21178038  0.03480929  1
  Al  Al2  1  0.89709273  0.19829836  0.55392162  1
  Al  Al3  1  0.54308201  0.21400452  0.05013760  1
  Al  Al4  1  0.11685301  0.09345857  0.79537625  1
  Al  Al5  1  0.21801920  0.20415760  0.56515117  1
  Al  Al6  1  0.78630812  0.09231972  0.29580779  1
  Al  Al7  1  0.89549556  0.21823745  0.04697818  1
  Al  Al8  1  0.43886392  0.09978081  0.79785240  1
  Al  Al9  1  0.55413284  0.21274406  0.55205276  1
  Al  Al10  1  0.22069219  0.53651401  0.04086160  1
  Al  Al11  1  0.79333842  0.42255568  0.80167632  1
  Al  Al12  1  0.89423463  0.52961776  0.56819500  1
  Al  Al13  1  0.43987038  0.43930238  0.29779271  1
  Al  Al14  1  0.55898470  0.54146767  0.03943176  1
  Al  Al15  1  0.11479784  0.42884220  0.80047749  1
  Al  Al16  1  0.22908351  0.53233419  0.55602864  1
  Al  Al17  1  0.89131974  0.53788463  0.02549296  1
  Al  Al18  1  0.43279830  0.42831734  0.80333745  1
  Al  Al19  1  0.11345541  0.75822360  0.30174548  1
  Al  Al20  1  0.77598430  0.75284247  0.80474602  1
  Al  Al21  1  0.44002180  0.75917522  0.30344585  1
  Al  Al22  1  0.55743646  0.87413196  0.03446984  1
  Al  Al23  1  0.12548288  0.75200590  0.79702906  1
  Al  Al24  1  0.22377778  0.87628864  0.55153662  1
  Al  Al25  1  0.89620243  0.85685085  0.04023437  1
  Al  Al26  1  0.43590071  0.77386411  0.80029027  1
  Al  Al27  1  0.54661403  0.87418412  0.56438502  1
  Gd  Gd28  1  0.77402278  0.10292185  0.82133094  1
  Gd  Gd29  1  0.44181625  0.09393151  0.31238916  1
  Gd  Gd30  1  0.11347315  0.42407549  0.29756000  1
  Gd  Gd31  1  0.77438870  0.41548876  0.29880134  1
  Gd  Gd32  1  0.55220342  0.54272751  0.56982249  1
  Gd  Gd33  1  0.21861469  0.87841547  0.06672040  1
  Gd  Gd34  1  0.89101927  0.86698615  0.55955965  1
  Gd  Gd35  1  0.76805211  0.75826378  0.28814100  1
  N  N36  1  0.20533066  0.19298884  0.38659087  1
  N  N37  1  0.09666623  0.13492653  0.12649016  1
  N  N38  1  0.91495717  0.21630529  0.86767121  1
  N  N39  1  0.76346504  0.12156918  0.60729094  1
  N  N40  1  0.57168419  0.22626451  0.36133615  1
  N  N41  1  0.44024335  0.09380138  0.09131605  1
  N  N42  1  0.22330482  0.20324821  0.84779491  1
  N  N43  1  0.11018558  0.08915371  0.61242714  1
  N  N44  1  0.90543432  0.17197632  0.37139971  1
  N  N45  1  0.78010168  0.09748033  0.09452950  1
  N  N46  1  0.51992754  0.22403133  0.86958154  1
  N  N47  1  0.44820541  0.09657145  0.60642088  1
  N  N48  1  0.23368601  0.54985167  0.37106071  1
  N  N49  1  0.10999856  0.42846060  0.07492985  1
  N  N50  1  0.89430454  0.53618142  0.84546941  1
  N  N51  1  0.81040884  0.40407232  0.61808589  1
  N  N52  1  0.52804609  0.55485728  0.35395281  1
  N  N53  1  0.44052941  0.43384855  0.10673400  1
  N  N54  1  0.22251192  0.54218314  0.85792387  1
  N  N55  1  0.11465440  0.42881543  0.61299760  1
  N  N56  1  0.88666755  0.53703595  0.38700798  1
  N  N57  1  0.77631092  0.43629735  0.08035748  1
  N  N58  1  0.55382511  0.54088030  0.84694143  1
  N  N59  1  0.43031983  0.41113690  0.62263338  1
  N  N60  1  0.22096047  0.87107181  0.34780610  1
  N  N61  1  0.09963923  0.73953748  0.11644115  1
  N  N62  1  0.90937499  0.84164694  0.85044787  1
  N  N63  1  0.75901999  0.74463843  0.62112745  1
  N  N64  1  0.53937438  0.85654205  0.38349492  1
  N  N65  1  0.47677872  0.75064118  0.11419460  1
  N  N66  1  0.21930432  0.87612729  0.85116852  1
  N  N67  1  0.14637129  0.74399060  0.61370419  1
  N  N68  1  0.89659387  0.88034501  0.34326987  1
  N  N69  1  0.77719636  0.75868326  0.06895423  1
  N  N70  1  0.55079440  0.87828970  0.85233650  1
  N  N71  1  0.42258215  0.79573948  0.62207180  1
