# generated using pymatgen
data_Gd2Al7N9
_symmetry_space_group_name_H-M   'P 1'
_cell_length_a   9.88354351
_cell_length_b   9.88456131
_cell_length_c   10.47621634
_cell_angle_alpha   90.18802535
_cell_angle_beta   90.36737879
_cell_angle_gamma   60.35203142
_symmetry_Int_Tables_number   1
_chemical_formula_structural   Gd2Al7N9
_chemical_formula_sum   'Gd8 Al28 N36'
_cell_volume   889.45894399
_cell_formula_units_Z   4
loop_
 _symmetry_equiv_pos_site_id
 _symmetry_equiv_pos_as_xyz
  1  'x, y, z'
loop_
 _atom_site_type_symbol
 _atom_site_label
 _atom_site_symmetry_multiplicity
 _atom_site_fract_x
 _atom_site_fract_y
 _atom_site_fract_z
 _atom_site_occupancy
  Al  Al0  1  0.10718197  0.09296374  0.31961312  1
  Al  Al1  1  0.22110328  0.21217465  0.04124753  1
  Al  Al2  1  0.89808747  0.19710276  0.56046076  1
  Al  Al3  1  0.54790380  0.21210114  0.05225403  1
  Al  Al4  1  0.11800822  0.09358793  0.80319167  1
  Al  Al5  1  0.21832420  0.20373641  0.57202689  1
  Al  Al6  1  0.78664780  0.09043046  0.30194396  1
  Al  Al7  1  0.89782059  0.21840002  0.05598359  1
  Al  Al8  1  0.44009489  0.09815449  0.80397746  1
  Al  Al9  1  0.55872127  0.20175601  0.56267889  1
  Al  Al10  1  0.21776000  0.54044436  0.04538908  1
  Al  Al11  1  0.80089896  0.41981292  0.81044725  1
  Al  Al12  1  0.89322092  0.52719749  0.57382586  1
  Al  Al13  1  0.43443576  0.43590557  0.39144142  1
  Al  Al14  1  0.56394329  0.54567347  0.04425637  1
  Al  Al15  1  0.11496434  0.42791971  0.80732246  1
  Al  Al16  1  0.21693271  0.53760811  0.56911654  1
  Al  Al17  1  0.89331022  0.53827684  0.03391093  1
  Al  Al18  1  0.43798342  0.43385218  0.86354263  1
  Al  Al19  1  0.11088003  0.75889677  0.30765757  1
  Al  Al20  1  0.77686839  0.75193807  0.81184154  1
  Al  Al21  1  0.43799651  0.75820834  0.31700825  1
  Al  Al22  1  0.56010688  0.87448430  0.04276150  1
  Al  Al23  1  0.12386858  0.75389236  0.80472492  1
  Al  Al24  1  0.22221862  0.87711350  0.55937560  1
  Al  Al25  1  0.89663020  0.85720452  0.04836683  1
  Al  Al26  1  0.43384633  0.78084679  0.80845562  1
  Al  Al27  1  0.54500383  0.87509480  0.57096398  1
  Gd  Gd28  1  0.77979378  0.10008221  0.82711645  1
  Gd  Gd29  1  0.44052637  0.09489160  0.31586283  1
  Gd  Gd30  1  0.10801175  0.42423822  0.30355799  1
  Gd  Gd31  1  0.76035741  0.41695414  0.30753509  1
  Gd  Gd32  1  0.55520711  0.54496920  0.59851603  1
  Gd  Gd33  1  0.22271659  0.87712973  0.07637055  1
  Gd  Gd34  1  0.89009984  0.86528446  0.56393271  1
  Gd  Gd35  1  0.76508975  0.75591935  0.29591286  1
  N  N36  1  0.20593310  0.19365999  0.39442568  1
  N  N37  1  0.09999148  0.13396436  0.13435991  1
  N  N38  1  0.91806581  0.21598811  0.87773216  1
  N  N39  1  0.76683785  0.11725001  0.61498058  1
  N  N40  1  0.57622700  0.21738375  0.37013895  1
  N  N41  1  0.44267037  0.09546477  0.09581233  1
  N  N42  1  0.22513262  0.20274310  0.85543196  1
  N  N43  1  0.10987321  0.08914321  0.62046324  1
  N  N44  1  0.90432576  0.17280695  0.37808317  1
  N  N45  1  0.78128754  0.09794594  0.10153768  1
  N  N46  1  0.52691345  0.21704437  0.86866298  1
  N  N47  1  0.44778946  0.09469440  0.61589379  1
  N  N48  1  0.21605810  0.55748244  0.38311476  1
  N  N49  1  0.11267858  0.42834552  0.08162085  1
  N  N50  1  0.89640172  0.53656812  0.85503010  1
  N  N51  1  0.81515284  0.39918476  0.62882875  1
  N  N52  1  0.52201518  0.55937056  0.37840263  1
  N  N53  1  0.44475575  0.43905217  0.06091151  1
  N  N54  1  0.21908518  0.54342077  0.85961505  1
  N  N55  1  0.11176042  0.42763627  0.62239192  1
  N  N56  1  0.88105948  0.53280904  0.39359392  1
  N  N57  1  0.77893037  0.43647779  0.08939514  1
  N  N58  1  0.55924260  0.54644439  0.84952958  1
  N  N59  1  0.42930774  0.41156314  0.58437399  1
  N  N60  1  0.21831352  0.87229265  0.35552507  1
  N  N61  1  0.10045176  0.74064296  0.12294656  1
  N  N62  1  0.90949483  0.84082531  0.85969663  1
  N  N63  1  0.75786447  0.74232069  0.62868130  1
  N  N64  1  0.53722642  0.85937496  0.39150300  1
  N  N65  1  0.48131493  0.74964310  0.12649283  1
  N  N66  1  0.21956443  0.87650047  0.86105735  1
  N  N67  1  0.14256692  0.74740385  0.62367798  1
  N  N68  1  0.89456784  0.87919945  0.34846551  1
  N  N69  1  0.77883440  0.75822012  0.07802528  1
  N  N70  1  0.55234990  0.87839700  0.86162304  1
  N  N71  1  0.41841967  0.80188806  0.63161569  1
