# generated using pymatgen
data_Gd2Al7N9
_symmetry_space_group_name_H-M   'P 1'
_cell_length_a   9.84812508
_cell_length_b   9.88333231
_cell_length_c   10.60492702
_cell_angle_alpha   91.30199177
_cell_angle_beta   91.02027810
_cell_angle_gamma   60.15350110
_symmetry_Int_Tables_number   1
_chemical_formula_structural   Gd2Al7N9
_chemical_formula_sum   'Gd8 Al28 N36'
_cell_volume   895.03623241
_cell_formula_units_Z   4
loop_
 _symmetry_equiv_pos_site_id
 _symmetry_equiv_pos_as_xyz
  1  'x, y, z'
loop_
 _atom_site_type_symbol
 _atom_site_label
 _atom_site_symmetry_multiplicity
 _atom_site_fract_x
 _atom_site_fract_y
 _atom_site_fract_z
 _atom_site_occupancy
  Al  Al0  1  0.11283360  0.08928513  0.31799452  1
  Al  Al1  1  0.23168768  0.21777456  0.04799813  1
  Al  Al2  1  0.89112173  0.19583568  0.56302757  1
  Al  Al3  1  0.56128947  0.22175162  0.12030203  1
  Al  Al4  1  0.10876774  0.10624579  0.81152250  1
  Al  Al5  1  0.21051316  0.19779831  0.57447662  1
  Al  Al6  1  0.80574724  0.08337076  0.29141963  1
  Al  Al7  1  0.90253095  0.22879810  0.05694973  1
  Al  Al8  1  0.43426172  0.09209042  0.80399371  1
  Al  Al9  1  0.53571327  0.21004433  0.62924584  1
  Al  Al10  1  0.23085444  0.54126674  0.10797884  1
  Al  Al11  1  0.79066941  0.42714959  0.80614858  1
  Al  Al12  1  0.88759238  0.52457374  0.57342615  1
  Al  Al13  1  0.42817131  0.43766857  0.36794882  1
  Al  Al14  1  0.57021257  0.54839612  0.04420387  1
  Al  Al15  1  0.11068218  0.42321817  0.81639157  1
  Al  Al16  1  0.22015486  0.52269806  0.62689033  1
  Al  Al17  1  0.89420928  0.54495251  0.03332295  1
  Al  Al18  1  0.43258593  0.43128616  0.87665380  1
  Al  Al19  1  0.12278636  0.75985635  0.33527225  1
  Al  Al20  1  0.77480066  0.75381436  0.80766919  1
  Al  Al21  1  0.43677369  0.76229077  0.31014073  1
  Al  Al22  1  0.56445029  0.88259404  0.04892860  1
  Al  Al23  1  0.11766268  0.74547395  0.86776208  1
  Al  Al24  1  0.21575712  0.86934760  0.64220174  1
  Al  Al25  1  0.89428985  0.86382895  0.04287163  1
  Al  Al26  1  0.44819839  0.76945233  0.81662327  1
  Al  Al27  1  0.54590277  0.86245595  0.57090529  1
  Gd  Gd28  1  0.77343060  0.10634164  0.83650098  1
  Gd  Gd29  1  0.45503755  0.10504136  0.35466475  1
  Gd  Gd30  1  0.10287901  0.40685032  0.29571116  1
  Gd  Gd31  1  0.75246816  0.41266680  0.31341685  1
  Gd  Gd32  1  0.53289081  0.53600733  0.59338417  1
  Gd  Gd33  1  0.22675399  0.89193359  0.07857150  1
  Gd  Gd34  1  0.88959935  0.86609385  0.56406276  1
  Gd  Gd35  1  0.76716917  0.74959612  0.29452468  1
  N  N36  1  0.21115608  0.18563952  0.39923716  1
  N  N37  1  0.10035004  0.15413492  0.13841465  1
  N  N38  1  0.91027197  0.22802735  0.88010758  1
  N  N39  1  0.75617198  0.12160359  0.61722994  1
  N  N40  1  0.58795964  0.24189889  0.29561163  1
  N  N41  1  0.45017778  0.10194725  0.11124191  1
  N  N42  1  0.22698183  0.19977733  0.86639977  1
  N  N43  1  0.10160143  0.09054478  0.63239837  1
  N  N44  1  0.91197695  0.16701648  0.38298954  1
  N  N45  1  0.80089444  0.09247591  0.09416016  1
  N  N46  1  0.51411675  0.23082980  0.81047567  1
  N  N47  1  0.43923398  0.08199154  0.61706480  1
  N  N48  1  0.23062543  0.54767846  0.28904914  1
  N  N49  1  0.11541862  0.43666945  0.07360611  1
  N  N50  1  0.88942761  0.54070223  0.85660639  1
  N  N51  1  0.79765318  0.40499270  0.62532631  1
  N  N52  1  0.51177785  0.56881423  0.38213268  1
  N  N53  1  0.45145536  0.43332638  0.05535828  1
  N  N54  1  0.22752655  0.53664041  0.81208868  1
  N  N55  1  0.10329998  0.41530308  0.63115754  1
  N  N56  1  0.88234213  0.52894851  0.39532734  1
  N  N57  1  0.78194511  0.44375697  0.09958222  1
  N  N58  1  0.55987631  0.54374439  0.85562825  1
  N  N59  1  0.40926064  0.39085207  0.53987358  1
  N  N60  1  0.21852423  0.87315742  0.30041815  1
  N  N61  1  0.11291095  0.74558126  0.05127929  1
  N  N62  1  0.89689343  0.84798530  0.85267740  1
  N  N63  1  0.75954859  0.74127925  0.62789947  1
  N  N64  1  0.53815930  0.85926805  0.39196060  1
  N  N65  1  0.48866335  0.75178479  0.12180461  1
  N  N66  1  0.21585901  0.87574161  0.84067147  1
  N  N67  1  0.15060584  0.73221967  0.58119005  1
  N  N68  1  0.90049250  0.87378404  0.34192626  1
  N  N69  1  0.78373787  0.76317903  0.08119045  1
  N  N70  1  0.55320342  0.88100490  0.86850422  1
  N  N71  1  0.42845127  0.78747946  0.64257299  1
