# generated using pymatgen
data_Gd2Al7N9
_symmetry_space_group_name_H-M   'P 1'
_cell_length_a   9.90885774
_cell_length_b   9.90497428
_cell_length_c   10.75549909
_cell_angle_alpha   90.93729497
_cell_angle_beta   91.03010562
_cell_angle_gamma   59.46526532
_symmetry_Int_Tables_number   1
_chemical_formula_structural   Gd2Al7N9
_chemical_formula_sum   'Gd8 Al28 N36'
_cell_volume   909.04887377
_cell_formula_units_Z   4
loop_
 _symmetry_equiv_pos_site_id
 _symmetry_equiv_pos_as_xyz
  1  'x, y, z'
loop_
 _atom_site_type_symbol
 _atom_site_label
 _atom_site_symmetry_multiplicity
 _atom_site_fract_x
 _atom_site_fract_y
 _atom_site_fract_z
 _atom_site_occupancy
  Al  Al0  1  0.11429461  0.07661435  0.43421009  1
  Al  Al1  1  0.23607531  0.21421940  0.07979241  1
  Al  Al2  1  0.87797331  0.20634298  0.59194091  1
  Al  Al3  1  0.56058755  0.21640740  0.14594091  1
  Al  Al4  1  0.11921875  0.09470069  0.89806269  1
  Al  Al5  1  0.20879362  0.20251473  0.60927477  1
  Al  Al6  1  0.80615770  0.08696254  0.31955296  1
  Al  Al7  1  0.90008681  0.21693695  0.07244703  1
  Al  Al8  1  0.42945585  0.09522130  0.82359751  1
  Al  Al9  1  0.52887022  0.21546822  0.65587937  1
  Al  Al10  1  0.22866439  0.54109725  0.14359983  1
  Al  Al11  1  0.79614739  0.42294221  0.83073019  1
  Al  Al12  1  0.87845494  0.53465750  0.59526495  1
  Al  Al13  1  0.44059231  0.43847803  0.39339071  1
  Al  Al14  1  0.57386811  0.53265847  0.05594776  1
  Al  Al15  1  0.10589746  0.42664323  0.82479068  1
  Al  Al16  1  0.21786057  0.52941387  0.64585038  1
  Al  Al17  1  0.89953023  0.53516339  0.06542496  1
  Al  Al18  1  0.42302849  0.43058037  0.89967173  1
  Al  Al19  1  0.13313332  0.75947160  0.40697696  1
  Al  Al20  1  0.77725990  0.75136361  0.83620633  1
  Al  Al21  1  0.42669669  0.77290764  0.44066927  1
  Al  Al22  1  0.56348887  0.88328745  0.05976960  1
  Al  Al23  1  0.11958800  0.74805815  0.89440933  1
  Al  Al24  1  0.21622881  0.87387017  0.66802237  1
  Al  Al25  1  0.89543441  0.85949451  0.06371226  1
  Al  Al26  1  0.44331505  0.76582927  0.88804242  1
  Al  Al27  1  0.55339900  0.86646445  0.60775594  1
  Gd  Gd28  1  0.76284061  0.10949130  0.86382839  1
  Gd  Gd29  1  0.45402433  0.11178498  0.39451101  1
  Gd  Gd30  1  0.11546955  0.43044640  0.36021144  1
  Gd  Gd31  1  0.75863705  0.42270999  0.33541486  1
  Gd  Gd32  1  0.53607168  0.52547167  0.63527631  1
  Gd  Gd33  1  0.23558404  0.86624458  0.15560613  1
  Gd  Gd34  1  0.88140156  0.87513434  0.59886223  1
  Gd  Gd35  1  0.76773719  0.76662319  0.31863416  1
  N  N36  1  0.21020793  0.19332046  0.42965715  1
  N  N37  1  0.12100482  0.11089135  0.08251913  1
  N  N38  1  0.90144769  0.22290067  0.89532266  1
  N  N39  1  0.74639132  0.13317530  0.64584859  1
  N  N40  1  0.58582809  0.24076861  0.31736263  1
  N  N41  1  0.45491185  0.09567243  0.12963414  1
  N  N42  1  0.21991128  0.20950019  0.87030103  1
  N  N43  1  0.10048790  0.08453916  0.61776655  1
  N  N44  1  0.89948137  0.18013886  0.41012191  1
  N  N45  1  0.80067765  0.08685905  0.11855960  1
  N  N46  1  0.50477923  0.23439088  0.83156362  1
  N  N47  1  0.43851803  0.08584835  0.64085357  1
  N  N48  1  0.24172944  0.56637480  0.31877743  1
  N  N49  1  0.11517862  0.42760300  0.13313378  1
  N  N50  1  0.89521799  0.53532641  0.88743401  1
  N  N51  1  0.79990209  0.41121565  0.65331669  1
  N  N52  1  0.52850589  0.55990993  0.42056466  1
  N  N53  1  0.44704823  0.42888350  0.07639892  1
  N  N54  1  0.22162324  0.54254410  0.82709689  1
  N  N55  1  0.09710821  0.42783595  0.64373648  1
  N  N56  1  0.87499011  0.54634276  0.41997829  1
  N  N57  1  0.78289901  0.43280200  0.11884687  1
  N  N58  1  0.56127574  0.53004999  0.87041975  1
  N  N59  1  0.40460354  0.39046611  0.55900524  1
  N  N60  1  0.22657242  0.87707973  0.36906029  1
  N  N61  1  0.11517980  0.73996688  0.07105055  1
  N  N62  1  0.89749091  0.84814680  0.87529531  1
  N  N63  1  0.76279509  0.74248312  0.66046101  1
  N  N64  1  0.55015525  0.86477616  0.42705697  1
  N  N65  1  0.47388206  0.75189634  0.06924133  1
  N  N66  1  0.21784185  0.87133744  0.84914703  1
  N  N67  1  0.14931557  0.73565483  0.58997124  1
  N  N68  1  0.90503291  0.87909787  0.38170932  1
  N  N69  1  0.78216756  0.76026863  0.10385758  1
  N  N70  1  0.55351356  0.88356332  0.87950185  1
  N  N71  1  0.42342902  0.78587226  0.62468152  1
