# generated using pymatgen
data_Gd2Al7N9
_symmetry_space_group_name_H-M   'P 1'
_cell_length_a   9.88819285
_cell_length_b   9.93425885
_cell_length_c   10.66742744
_cell_angle_alpha   89.96023957
_cell_angle_beta   90.53460606
_cell_angle_gamma   59.09389372
_symmetry_Int_Tables_number   1
_chemical_formula_structural   Gd2Al7N9
_chemical_formula_sum   'Gd8 Al28 N36'
_cell_volume   899.03530795
_cell_formula_units_Z   4
loop_
 _symmetry_equiv_pos_site_id
 _symmetry_equiv_pos_as_xyz
  1  'x, y, z'
loop_
 _atom_site_type_symbol
 _atom_site_label
 _atom_site_symmetry_multiplicity
 _atom_site_fract_x
 _atom_site_fract_y
 _atom_site_fract_z
 _atom_site_occupancy
  Al  Al0  1  0.11302703  0.08782485  0.40490492  1
  Al  Al1  1  0.21695804  0.20938363  0.14936412  1
  Al  Al2  1  0.88949339  0.21987940  0.65858231  1
  Al  Al3  1  0.54806469  0.21244348  0.14180493  1
  Al  Al4  1  0.11542154  0.09943725  0.89985312  1
  Al  Al5  1  0.22067506  0.19177768  0.66638476  1
  Al  Al6  1  0.79560604  0.08969549  0.31147642  1
  Al  Al7  1  0.90384396  0.20699928  0.13672033  1
  Al  Al8  1  0.43145350  0.09753186  0.90868540  1
  Al  Al9  1  0.52131080  0.21628610  0.66092392  1
  Al  Al10  1  0.21610901  0.54010844  0.14629812  1
  Al  Al11  1  0.78717866  0.42776497  0.89204915  1
  Al  Al12  1  0.88321545  0.54266235  0.60247113  1
  Al  Al13  1  0.44060725  0.43294559  0.39154698  1
  Al  Al14  1  0.55972984  0.53196209  0.06768612  1
  Al  Al15  1  0.10859178  0.42507843  0.84071153  1
  Al  Al16  1  0.21756484  0.53812858  0.65940288  1
  Al  Al17  1  0.90316831  0.53579346  0.06520935  1
  Al  Al18  1  0.41971740  0.43101832  0.90419878  1
  Al  Al19  1  0.13421367  0.76167333  0.41572490  1
  Al  Al20  1  0.77468566  0.75519366  0.83954334  1
  Al  Al21  1  0.44083670  0.76740234  0.41762373  1
  Al  Al22  1  0.55766601  0.86004844  0.13584139  1
  Al  Al23  1  0.11646121  0.75584989  0.89298452  1
  Al  Al24  1  0.22235040  0.87969995  0.65200103  1
  Al  Al25  1  0.88473009  0.86191662  0.05687509  1
  Al  Al26  1  0.43943565  0.76955890  0.89584413  1
  Al  Al27  1  0.54024682  0.87998285  0.66923363  1
  Gd  Gd28  1  0.75898721  0.12413208  0.87683768  1
  Gd  Gd29  1  0.47061907  0.07139078  0.39430419  1
  Gd  Gd30  1  0.16356502  0.40455071  0.42497754  1
  Gd  Gd31  1  0.77730632  0.43163159  0.37441945  1
  Gd  Gd32  1  0.53897916  0.52901929  0.63183219  1
  Gd  Gd33  1  0.22145408  0.86727934  0.15875147  1
  Gd  Gd34  1  0.87670574  0.89269306  0.61144439  1
  Gd  Gd35  1  0.82511034  0.74573818  0.31524997  1
  N  N36  1  0.22169903  0.17892322  0.32873669  1
  N  N37  1  0.10888520  0.11295385  0.07545143  1
  N  N38  1  0.91111068  0.22503105  0.83650205  1
  N  N39  1  0.73946174  0.15085250  0.65374949  1
  N  N40  1  0.56895943  0.22552809  0.31826061  1
  N  N41  1  0.44609520  0.09159085  0.09467480  1
  N  N42  1  0.22306402  0.19763732  0.84490732  1
  N  N43  1  0.10282062  0.09855139  0.59336693  1
  N  N44  1  0.91969299  0.17770204  0.31277469  1
  N  N45  1  0.78389073  0.08502075  0.11292704  1
  N  N46  1  0.49928094  0.23008167  0.84185960  1
  N  N47  1  0.43697450  0.09064406  0.60996442  1
  N  N48  1  0.22792521  0.56726107  0.32324519  1
  N  N49  1  0.11540529  0.42612997  0.11370214  1
  N  N50  1  0.89169254  0.54007691  0.88651249  1
  N  N51  1  0.79242814  0.42049697  0.59823590  1
  N  N52  1  0.52527736  0.55480071  0.40797642  1
  N  N53  1  0.43925986  0.42857101  0.08253895  1
  N  N54  1  0.21685409  0.54654125  0.83680588  1
  N  N55  1  0.10375114  0.42533752  0.65278659  1
  N  N56  1  0.91451049  0.54232423  0.42854079  1
  N  N57  1  0.78258762  0.42343773  0.08714253  1
  N  N58  1  0.55508572  0.52996266  0.87423026  1
  N  N59  1  0.39822978  0.40206530  0.56607846  1
  N  N60  1  0.22793485  0.87442436  0.37067597  1
  N  N61  1  0.10520652  0.74374341  0.07175516  1
  N  N62  1  0.88994324  0.85947458  0.87177447  1
  N  N63  1  0.76240978  0.75094987  0.65878577  1
  N  N64  1  0.56194759  0.83140791  0.31861964  1
  N  N65  1  0.46336513  0.75013590  0.07237353  1
  N  N66  1  0.21772168  0.87537412  0.84083746  1
  N  N67  1  0.14892571  0.74177316  0.59749094  1
  N  N68  1  0.90424355  0.89944216  0.39656893  1
  N  N69  1  0.78033539  0.75650334  0.10178271  1
  N  N70  1  0.54368655  0.88016878  0.85105198  1
  N  N71  1  0.43114594  0.79432620  0.59946810  1
