# generated using pymatgen
data_Gd2Al7N9
_symmetry_space_group_name_H-M   'P 1'
_cell_length_a   9.85492007
_cell_length_b   9.86632630
_cell_length_c   10.62916853
_cell_angle_alpha   91.20617471
_cell_angle_beta   90.70326012
_cell_angle_gamma   60.25798611
_symmetry_Int_Tables_number   1
_chemical_formula_structural   Gd2Al7N9
_chemical_formula_sum   'Gd8 Al28 N36'
_cell_volume   897.14873029
_cell_formula_units_Z   4
loop_
 _symmetry_equiv_pos_site_id
 _symmetry_equiv_pos_as_xyz
  1  'x, y, z'
loop_
 _atom_site_type_symbol
 _atom_site_label
 _atom_site_symmetry_multiplicity
 _atom_site_fract_x
 _atom_site_fract_y
 _atom_site_fract_z
 _atom_site_occupancy
  Al  Al0  1  0.11277413  0.08694513  0.31750164  1
  Al  Al1  1  0.22809798  0.21569268  0.04799110  1
  Al  Al2  1  0.89396640  0.19519709  0.56336764  1
  Al  Al3  1  0.55843017  0.22443188  0.11956542  1
  Al  Al4  1  0.10973344  0.10715420  0.81240882  1
  Al  Al5  1  0.21359099  0.19904790  0.57259459  1
  Al  Al6  1  0.80223687  0.08511812  0.29104259  1
  Al  Al7  1  0.90204068  0.22567766  0.05596749  1
  Al  Al8  1  0.43342599  0.09426662  0.80420323  1
  Al  Al9  1  0.54131788  0.20791939  0.63192247  1
  Al  Al10  1  0.21648581  0.54067280  0.04602263  1
  Al  Al11  1  0.79418874  0.42536303  0.80695493  1
  Al  Al12  1  0.88957433  0.52713917  0.57268575  1
  Al  Al13  1  0.43331521  0.43622039  0.37251904  1
  Al  Al14  1  0.56879594  0.54884929  0.04554687  1
  Al  Al15  1  0.11494210  0.42720380  0.80899606  1
  Al  Al16  1  0.21434502  0.52742637  0.55545976  1
  Al  Al17  1  0.89219903  0.54326905  0.03248217  1
  Al  Al18  1  0.43999654  0.42985813  0.87614800  1
  Al  Al19  1  0.11054778  0.75785350  0.29167307  1
  Al  Al20  1  0.77806160  0.75403536  0.80923836  1
  Al  Al21  1  0.43357315  0.76322794  0.31156815  1
  Al  Al22  1  0.56194560  0.88327400  0.04764351  1
  Al  Al23  1  0.11903925  0.74376208  0.81029630  1
  Al  Al24  1  0.22102183  0.87357773  0.64094396  1
  Al  Al25  1  0.89838083  0.85798426  0.04574266  1
  Al  Al26  1  0.44914188  0.77052561  0.81672309  1
  Al  Al27  1  0.54779792  0.86545293  0.57038709  1
  Gd  Gd28  1  0.77589017  0.10159485  0.84029809  1
  Gd  Gd29  1  0.45270321  0.10364380  0.34713346  1
  Gd  Gd30  1  0.10313226  0.41335071  0.29823622  1
  Gd  Gd31  1  0.75554050  0.41124474  0.31047544  1
  Gd  Gd32  1  0.54288277  0.53485024  0.59363891  1
  Gd  Gd33  1  0.22312046  0.88381432  0.07726406  1
  Gd  Gd34  1  0.89347600  0.86710245  0.55715480  1
  Gd  Gd35  1  0.76415407  0.74943617  0.29241981  1
  N  N36  1  0.20927506  0.18746760  0.39748644  1
  N  N37  1  0.10078349  0.14523401  0.13454915  1
  N  N38  1  0.91019976  0.22602203  0.87930159  1
  N  N39  1  0.76278469  0.11657482  0.62084928  1
  N  N40  1  0.58452438  0.24277732  0.29465824  1
  N  N41  1  0.44753133  0.10329272  0.10966328  1
  N  N42  1  0.22533605  0.20429555  0.86454350  1
  N  N43  1  0.10436446  0.09241395  0.63220992  1
  N  N44  1  0.91064186  0.16674864  0.38343679  1
  N  N45  1  0.79896129  0.09285296  0.09361671  1
  N  N46  1  0.51647584  0.23042904  0.81156029  1
  N  N47  1  0.43969721  0.08446551  0.61721809  1
  N  N48  1  0.20972052  0.55654491  0.36797891  1
  N  N49  1  0.11015772  0.43342697  0.08136404  1
  N  N50  1  0.89335712  0.53911487  0.85479151  1
  N  N51  1  0.80496123  0.40344232  0.62707488  1
  N  N52  1  0.51587762  0.56738959  0.37993988  1
  N  N53  1  0.45083398  0.43511983  0.05717639  1
  N  N54  1  0.22109222  0.53846969  0.86476098  1
  N  N55  1  0.11037425  0.42272372  0.62486733  1
  N  N56  1  0.87969515  0.52963702  0.39546766  1
  N  N57  1  0.78081314  0.44204574  0.09676929  1
  N  N58  1  0.56115328  0.54389478  0.85436920  1
  N  N59  1  0.42781318  0.38811212  0.54578675  1
  N  N60  1  0.21706570  0.87087461  0.30588116  1
  N  N61  1  0.10182053  0.74318385  0.11021508  1
  N  N62  1  0.90704251  0.84168335  0.86013056  1
  N  N63  1  0.76192129  0.74546424  0.62822014  1
  N  N64  1  0.53712756  0.85965752  0.39207369  1
  N  N65  1  0.48496201  0.75346264  0.12059507  1
  N  N66  1  0.21779897  0.87704640  0.84329013  1
  N  N67  1  0.14676812  0.73123408  0.63068191  1
  N  N68  1  0.89216589  0.87773935  0.34122019  1
  N  N69  1  0.78015075  0.76235535  0.07865867  1
  N  N70  1  0.55413910  0.88245167  0.86724849  1
  N  N71  1  0.43174960  0.78778002  0.64197022  1
