# generated using pymatgen
data_Gd2Al7N9
_symmetry_space_group_name_H-M   'P 1'
_cell_length_a   9.86855138
_cell_length_b   9.95049980
_cell_length_c   10.67262086
_cell_angle_alpha   90.04530539
_cell_angle_beta   90.32867558
_cell_angle_gamma   58.89735174
_symmetry_Int_Tables_number   1
_chemical_formula_structural   Gd2Al7N9
_chemical_formula_sum   'Gd8 Al28 N36'
_cell_volume   897.34196716
_cell_formula_units_Z   4
loop_
 _symmetry_equiv_pos_site_id
 _symmetry_equiv_pos_as_xyz
  1  'x, y, z'
loop_
 _atom_site_type_symbol
 _atom_site_label
 _atom_site_symmetry_multiplicity
 _atom_site_fract_x
 _atom_site_fract_y
 _atom_site_fract_z
 _atom_site_occupancy
  Al  Al0  1  0.11452767  0.08637667  0.40408602  1
  Al  Al1  1  0.21616652  0.20977252  0.15139926  1
  Al  Al2  1  0.88996077  0.21840897  0.65648563  1
  Al  Al3  1  0.54705456  0.21323935  0.14018703  1
  Al  Al4  1  0.11518275  0.10077072  0.89891818  1
  Al  Al5  1  0.22249297  0.19016700  0.66312837  1
  Al  Al6  1  0.79558982  0.08938106  0.30998695  1
  Al  Al7  1  0.90236290  0.20875869  0.13573135  1
  Al  Al8  1  0.43010856  0.09884437  0.90742908  1
  Al  Al9  1  0.52175469  0.21628955  0.65898148  1
  Al  Al10  1  0.21484669  0.54084537  0.14653823  1
  Al  Al11  1  0.78470507  0.43195694  0.87076776  1
  Al  Al12  1  0.88266681  0.54406915  0.60118712  1
  Al  Al13  1  0.44131223  0.43249560  0.39013794  1
  Al  Al14  1  0.56081305  0.53186777  0.06541829  1
  Al  Al15  1  0.10808619  0.42534107  0.83285309  1
  Al  Al16  1  0.21744584  0.53852097  0.65578994  1
  Al  Al17  1  0.90012271  0.53233774  0.06346106  1
  Al  Al18  1  0.41828494  0.43149167  0.90237531  1
  Al  Al19  1  0.13519519  0.76181126  0.41441841  1
  Al  Al20  1  0.77397336  0.75635038  0.84247241  1
  Al  Al21  1  0.44351003  0.76657711  0.41478376  1
  Al  Al22  1  0.55757365  0.85948846  0.13371309  1
  Al  Al23  1  0.11591214  0.75615876  0.89086067  1
  Al  Al24  1  0.22219501  0.88042421  0.65052912  1
  Al  Al25  1  0.88300769  0.86337937  0.05327751  1
  Al  Al26  1  0.43760558  0.77120952  0.89532604  1
  Al  Al27  1  0.54154177  0.87894662  0.66904342  1
  Gd  Gd28  1  0.75844931  0.12516648  0.87542265  1
  Gd  Gd29  1  0.47730569  0.06590271  0.39327863  1
  Gd  Gd30  1  0.16465776  0.40238530  0.42100380  1
  Gd  Gd31  1  0.77671823  0.43496802  0.36489708  1
  Gd  Gd32  1  0.53580597  0.53147215  0.62866102  1
  Gd  Gd33  1  0.21779989  0.86918163  0.15688894  1
  Gd  Gd34  1  0.87522138  0.89173096  0.60916108  1
  Gd  Gd35  1  0.83752939  0.73667373  0.30576786  1
  N  N36  1  0.22689995  0.17312920  0.32942248  1
  N  N37  1  0.10845098  0.11510138  0.07429780  1
  N  N38  1  0.91159815  0.22327656  0.83496414  1
  N  N39  1  0.74039102  0.15005599  0.65152512  1
  N  N40  1  0.56807787  0.22582613  0.31628573  1
  N  N41  1  0.44455736  0.09328934  0.09319402  1
  N  N42  1  0.22204231  0.19895858  0.84200671  1
  N  N43  1  0.10341923  0.09830394  0.59134602  1
  N  N44  1  0.92034413  0.17672855  0.31272364  1
  N  N45  1  0.78397127  0.08565188  0.11118027  1
  N  N46  1  0.49826616  0.23070946  0.83973272  1
  N  N47  1  0.44007967  0.08876744  0.60838471  1
  N  N48  1  0.22810427  0.56830146  0.32282831  1
  N  N49  1  0.10794265  0.43025281  0.12679524  1
  N  N50  1  0.89333626  0.53815673  0.88503195  1
  N  N51  1  0.79129026  0.42398179  0.60878748  1
  N  N52  1  0.52674522  0.55361532  0.40747820  1
  N  N53  1  0.43796184  0.42909451  0.08021414  1
  N  N54  1  0.21570832  0.54701286  0.83358033  1
  N  N55  1  0.10534624  0.42448946  0.64876798  1
  N  N56  1  0.91354302  0.54178390  0.42851655  1
  N  N57  1  0.77994925  0.42686071  0.09713492  1
  N  N58  1  0.55449411  0.53102128  0.87232860  1
  N  N59  1  0.39885784  0.40102043  0.56346869  1
  N  N60  1  0.22973822  0.87308195  0.36843788  1
  N  N61  1  0.10397045  0.74298642  0.07008098  1
  N  N62  1  0.88962664  0.86104763  0.86956766  1
  N  N63  1  0.76385113  0.75020726  0.66141429  1
  N  N64  1  0.57051788  0.82511791  0.31587094  1
  N  N65  1  0.46085849  0.75109779  0.07125248  1
  N  N66  1  0.21683199  0.87604728  0.83935669  1
  N  N67  1  0.14900677  0.74262874  0.59574810  1
  N  N68  1  0.90289357  0.89775896  0.39329823  1
  N  N69  1  0.77774773  0.75762078  0.09267145  1
  N  N70  1  0.54146756  0.88133357  0.85049718  1
  N  N71  1  0.43155537  0.79568452  0.59680578  1
