# generated using pymatgen
data_Gd2Al7N9
_symmetry_space_group_name_H-M   'P 1'
_cell_length_a   9.81801892
_cell_length_b   9.90709335
_cell_length_c   10.80526606
_cell_angle_alpha   90.92923089
_cell_angle_beta   90.71754217
_cell_angle_gamma   59.31567165
_symmetry_Int_Tables_number   1
_chemical_formula_structural   Gd2Al7N9
_chemical_formula_sum   'Gd8 Al28 N36'
_cell_volume   903.72754936
_cell_formula_units_Z   4
loop_
 _symmetry_equiv_pos_site_id
 _symmetry_equiv_pos_as_xyz
  1  'x, y, z'
loop_
 _atom_site_type_symbol
 _atom_site_label
 _atom_site_symmetry_multiplicity
 _atom_site_fract_x
 _atom_site_fract_y
 _atom_site_fract_z
 _atom_site_occupancy
  Al  Al0  1  0.12158999  0.08263088  0.41710593  1
  Al  Al1  1  0.21625008  0.21298385  0.15404281  1
  Al  Al2  1  0.88044590  0.20779080  0.58343989  1
  Al  Al3  1  0.55550339  0.21862981  0.13929473  1
  Al  Al4  1  0.11929372  0.09701789  0.90541823  1
  Al  Al5  1  0.21748563  0.19104415  0.66505926  1
  Al  Al6  1  0.80056945  0.09261705  0.31605127  1
  Al  Al7  1  0.89340727  0.21870350  0.07246158  1
  Al  Al8  1  0.42172218  0.11693624  0.90145305  1
  Al  Al9  1  0.51751807  0.21549256  0.65633985  1
  Al  Al10  1  0.21960478  0.54278072  0.14737308  1
  Al  Al11  1  0.79412700  0.42337132  0.83043013  1
  Al  Al12  1  0.87875042  0.53574354  0.60270600  1
  Al  Al13  1  0.44374281  0.43295573  0.39148160  1
  Al  Al14  1  0.57087374  0.53358200  0.05637857  1
  Al  Al15  1  0.10555509  0.42996193  0.83056121  1
  Al  Al16  1  0.21444205  0.53794490  0.65362750  1
  Al  Al17  1  0.90133241  0.53191616  0.06272710  1
  Al  Al18  1  0.42220565  0.43469037  0.90085198  1
  Al  Al19  1  0.13383462  0.76039727  0.40919818  1
  Al  Al20  1  0.78323015  0.75040094  0.84260512  1
  Al  Al21  1  0.44306258  0.76671155  0.43667898  1
  Al  Al22  1  0.56378537  0.87527624  0.06115329  1
  Al  Al23  1  0.11839002  0.75418834  0.89612388  1
  Al  Al24  1  0.21387825  0.87863283  0.65898022  1
  Al  Al25  1  0.89171558  0.86759027  0.06082426  1
  Al  Al26  1  0.43632129  0.76573772  0.88687714  1
  Al  Al27  1  0.54185838  0.87592830  0.67042986  1
  Gd  Gd28  1  0.76386658  0.11212335  0.85365103  1
  Gd  Gd29  1  0.46859991  0.08307517  0.39991904  1
  Gd  Gd30  1  0.14976213  0.41401653  0.41344891  1
  Gd  Gd31  1  0.77069834  0.43179091  0.33571144  1
  Gd  Gd32  1  0.53749449  0.52278519  0.63188781  1
  Gd  Gd33  1  0.23604954  0.86616308  0.16278831  1
  Gd  Gd34  1  0.86812812  0.87984423  0.59007922  1
  Gd  Gd35  1  0.80658068  0.74098520  0.30672859  1
  N  N36  1  0.21853892  0.17776069  0.33084644  1
  N  N37  1  0.11736188  0.10967347  0.08276633  1
  N  N38  1  0.89942006  0.22537322  0.89700828  1
  N  N39  1  0.74155968  0.13886297  0.64094114  1
  N  N40  1  0.57352948  0.23108978  0.31298176  1
  N  N41  1  0.44585631  0.10440325  0.08351953  1
  N  N42  1  0.21438834  0.20444109  0.84178223  1
  N  N43  1  0.10939551  0.09114221  0.60080850  1
  N  N44  1  0.89871793  0.18519153  0.40342626  1
  N  N45  1  0.79453982  0.09155937  0.11708480  1
  N  N46  1  0.49881703  0.23641425  0.83336119  1
  N  N47  1  0.43707820  0.08469203  0.61534545  1
  N  N48  1  0.23728670  0.56523331  0.32168736  1
  N  N49  1  0.10826825  0.43336325  0.13088408  1
  N  N50  1  0.89379575  0.53491206  0.88689543  1
  N  N51  1  0.80237889  0.40851761  0.65488988  1
  N  N52  1  0.53552391  0.55031890  0.42105939  1
  N  N53  1  0.44386966  0.43228468  0.07661527  1
  N  N54  1  0.21838143  0.54751354  0.83088806  1
  N  N55  1  0.10295485  0.42419309  0.64676915  1
  N  N56  1  0.89688157  0.53722420  0.43163831  1
  N  N57  1  0.77978888  0.43542172  0.11832234  1
  N  N58  1  0.55818682  0.53102107  0.86910841  1
  N  N59  1  0.39679679  0.39696275  0.56081681  1
  N  N60  1  0.23316713  0.87125427  0.37481522  1
  N  N61  1  0.11375678  0.74453525  0.07307485  1
  N  N62  1  0.89588886  0.85353213  0.87729913  1
  N  N63  1  0.76219597  0.74257513  0.66805642  1
  N  N64  1  0.56774817  0.83796785  0.37211498  1
  N  N65  1  0.46862366  0.75318461  0.06285904  1
  N  N66  1  0.21268980  0.87747589  0.84244316  1
  N  N67  1  0.13978671  0.74227476  0.59181399  1
  N  N68  1  0.90397446  0.88707835  0.37905489  1
  N  N69  1  0.78119577  0.76189074  0.09296424  1
  N  N70  1  0.54568460  0.88564037  0.86556051  1
  N  N71  1  0.42728330  0.78573757  0.61993315  1
