# generated using pymatgen
data_Gd2Al7N9
_symmetry_space_group_name_H-M   'P 1'
_cell_length_a   9.85861143
_cell_length_b   9.86905327
_cell_length_c   10.60997001
_cell_angle_alpha   91.05564738
_cell_angle_beta   90.63348625
_cell_angle_gamma   60.23433293
_symmetry_Int_Tables_number   1
_chemical_formula_structural   Gd2Al7N9
_chemical_formula_sum   'Gd8 Al28 N36'
_cell_volume   895.94618282
_cell_formula_units_Z   4
loop_
 _symmetry_equiv_pos_site_id
 _symmetry_equiv_pos_as_xyz
  1  'x, y, z'
loop_
 _atom_site_type_symbol
 _atom_site_label
 _atom_site_symmetry_multiplicity
 _atom_site_fract_x
 _atom_site_fract_y
 _atom_site_fract_z
 _atom_site_occupancy
  Al  Al0  1  0.11186216  0.08837646  0.31750321  1
  Al  Al1  1  0.22795840  0.21427885  0.04708062  1
  Al  Al2  1  0.89373842  0.19595794  0.56281644  1
  Al  Al3  1  0.55755475  0.22449588  0.11846540  1
  Al  Al4  1  0.11253392  0.10218055  0.81079691  1
  Al  Al5  1  0.21397430  0.20085542  0.57168791  1
  Al  Al6  1  0.80089679  0.08619606  0.29099779  1
  Al  Al7  1  0.90315469  0.22352368  0.05475115  1
  Al  Al8  1  0.43330264  0.09401249  0.80425758  1
  Al  Al9  1  0.54127234  0.20877928  0.63269028  1
  Al  Al10  1  0.21606041  0.54062223  0.04520448  1
  Al  Al11  1  0.79663175  0.42350756  0.80691300  1
  Al  Al12  1  0.88975297  0.52769315  0.57169507  1
  Al  Al13  1  0.43414045  0.43624571  0.37417363  1
  Al  Al14  1  0.56868149  0.54848860  0.04402163  1
  Al  Al15  1  0.11575708  0.42744472  0.80692830  1
  Al  Al16  1  0.21460742  0.52971805  0.55468757  1
  Al  Al17  1  0.89351751  0.54116885  0.03193118  1
  Al  Al18  1  0.43957830  0.43026496  0.87496323  1
  Al  Al19  1  0.10916466  0.75902829  0.29573344  1
  Al  Al20  1  0.77825317  0.75293909  0.81006849  1
  Al  Al21  1  0.43401549  0.76272877  0.31324458  1
  Al  Al22  1  0.56142660  0.88194458  0.04678780  1
  Al  Al23  1  0.12094885  0.74653207  0.80812656  1
  Al  Al24  1  0.22098169  0.87439550  0.62271651  1
  Al  Al25  1  0.89936497  0.85602139  0.04562380  1
  Al  Al26  1  0.44446081  0.77268460  0.81495056  1
  Al  Al27  1  0.54766001  0.86622033  0.57037614  1
  Gd  Gd28  1  0.77570200  0.10110253  0.84161409  1
  Gd  Gd29  1  0.45226204  0.10321980  0.34512189  1
  Gd  Gd30  1  0.10385870  0.41600110  0.29902513  1
  Gd  Gd31  1  0.75532143  0.41229246  0.30855223  1
  Gd  Gd32  1  0.54575155  0.53393821  0.59517659  1
  Gd  Gd33  1  0.22324815  0.88099404  0.07878148  1
  Gd  Gd34  1  0.88982872  0.86897936  0.55904182  1
  Gd  Gd35  1  0.76347418  0.75069448  0.29171952  1
  N  N36  1  0.20888349  0.18895027  0.39631082  1
  N  N37  1  0.10156575  0.14231363  0.13390737  1
  N  N38  1  0.91229360  0.22317299  0.87778812  1
  N  N39  1  0.76233903  0.11842618  0.62173184  1
  N  N40  1  0.58287970  0.24341407  0.29416690  1
  N  N41  1  0.44788484  0.10204432  0.10856887  1
  N  N42  1  0.22477957  0.20399787  0.86285646  1
  N  N43  1  0.10528498  0.09236826  0.62945830  1
  N  N44  1  0.90920698  0.16838278  0.38250323  1
  N  N45  1  0.79872633  0.09187296  0.09346353  1
  N  N46  1  0.51619862  0.22996450  0.81255546  1
  N  N47  1  0.44002227  0.08526878  0.61660296  1
  N  N48  1  0.20993524  0.55797200  0.37115109  1
  N  N49  1  0.11133473  0.43178741  0.08168339  1
  N  N50  1  0.89519635  0.53765837  0.85419961  1
  N  N51  1  0.80740053  0.40286094  0.62690403  1
  N  N52  1  0.51705905  0.56663232  0.38077061  1
  N  N53  1  0.45018437  0.43545953  0.05625059  1
  N  N54  1  0.22055445  0.54021583  0.86322458  1
  N  N55  1  0.11070840  0.42443706  0.62276817  1
  N  N56  1  0.87894384  0.53054010  0.39405206  1
  N  N57  1  0.78116750  0.44013536  0.09400389  1
  N  N58  1  0.56092237  0.54411984  0.85255339  1
  N  N59  1  0.42841826  0.39019716  0.54813544  1
  N  N60  1  0.21658824  0.87128518  0.31353350  1
  N  N61  1  0.10124387  0.74134312  0.11413808  1
  N  N62  1  0.90839073  0.84068749  0.85931635  1
  N  N63  1  0.76086075  0.74483688  0.62869777  1
  N  N64  1  0.53717031  0.85986421  0.39208856  1
  N  N65  1  0.48511624  0.75211624  0.12221115  1
  N  N66  1  0.21842300  0.87647206  0.84844434  1
  N  N67  1  0.14515577  0.73470679  0.62773447  1
  N  N68  1  0.89008463  0.87943365  0.34314721  1
  N  N69  1  0.78024183  0.76077560  0.07712500  1
  N  N70  1  0.55315748  0.88138276  0.86621752  1
  N  N71  1  0.43000831  0.78877238  0.63953464  1
