# generated using pymatgen
data_Gd2Al7N9
_symmetry_space_group_name_H-M   'P 1'
_cell_length_a   9.89800683
_cell_length_b   9.88784538
_cell_length_c   10.78146434
_cell_angle_alpha   91.03858901
_cell_angle_beta   91.12737233
_cell_angle_gamma   59.55915296
_symmetry_Int_Tables_number   1
_chemical_formula_structural   Gd2Al7N9
_chemical_formula_sum   'Gd8 Al28 N36'
_cell_volume   909.51073632
_cell_formula_units_Z   4
loop_
 _symmetry_equiv_pos_site_id
 _symmetry_equiv_pos_as_xyz
  1  'x, y, z'
loop_
 _atom_site_type_symbol
 _atom_site_label
 _atom_site_symmetry_multiplicity
 _atom_site_fract_x
 _atom_site_fract_y
 _atom_site_fract_z
 _atom_site_occupancy
  Al  Al0  1  0.11354566  0.07586378  0.43438396  1
  Al  Al1  1  0.23635624  0.21503597  0.07062709  1
  Al  Al2  1  0.87802412  0.20658882  0.59246872  1
  Al  Al3  1  0.56187238  0.21739026  0.14546044  1
  Al  Al4  1  0.11951016  0.09418311  0.90083589  1
  Al  Al5  1  0.21074954  0.20338146  0.60343176  1
  Al  Al6  1  0.80606901  0.08678473  0.32027388  1
  Al  Al7  1  0.89968294  0.21757681  0.07328242  1
  Al  Al8  1  0.42931934  0.09631504  0.82552667  1
  Al  Al9  1  0.52801973  0.21413799  0.65481176  1
  Al  Al10  1  0.22936301  0.54184152  0.14184869  1
  Al  Al11  1  0.79595376  0.42352943  0.83010618  1
  Al  Al12  1  0.88112775  0.53277159  0.59590742  1
  Al  Al13  1  0.43851849  0.43689796  0.39546754  1
  Al  Al14  1  0.57437054  0.53347265  0.05621120  1
  Al  Al15  1  0.10747642  0.42606284  0.82899593  1
  Al  Al16  1  0.21723741  0.52803081  0.64671207  1
  Al  Al17  1  0.89814225  0.53682165  0.06405007  1
  Al  Al18  1  0.42401774  0.43125350  0.89946118  1
  Al  Al19  1  0.13320204  0.75682587  0.40742872  1
  Al  Al20  1  0.77737487  0.75194214  0.83516693  1
  Al  Al21  1  0.42606092  0.77253705  0.44178480  1
  Al  Al22  1  0.56478803  0.88328442  0.06040632  1
  Al  Al23  1  0.11987467  0.74890816  0.89506387  1
  Al  Al24  1  0.21622014  0.87472868  0.66806954  1
  Al  Al25  1  0.89554606  0.86043492  0.06414526  1
  Al  Al26  1  0.44392754  0.76646053  0.88877346  1
  Al  Al27  1  0.55209622  0.86873287  0.60756324  1
  Gd  Gd28  1  0.76347613  0.10966233  0.86266140  1
  Gd  Gd29  1  0.45141456  0.10752666  0.37723642  1
  Gd  Gd30  1  0.11225525  0.42534450  0.34621080  1
  Gd  Gd31  1  0.75576453  0.42326166  0.33662763  1
  Gd  Gd32  1  0.53507299  0.52586872  0.63590031  1
  Gd  Gd33  1  0.23635612  0.86733468  0.15699404  1
  Gd  Gd34  1  0.88159157  0.87516424  0.59804142  1
  Gd  Gd35  1  0.76945573  0.76446175  0.32009802  1
  N  N36  1  0.21028458  0.19288271  0.42701677  1
  N  N37  1  0.11992089  0.11116687  0.08483960  1
  N  N38  1  0.90212844  0.22385092  0.89589942  1
  N  N39  1  0.74641738  0.13266683  0.64593199  1
  N  N40  1  0.58575780  0.24067159  0.31765040  1
  N  N41  1  0.45443334  0.09616656  0.13181063  1
  N  N42  1  0.22405342  0.21060443  0.88508728  1
  N  N43  1  0.10116806  0.08581682  0.61768462  1
  N  N44  1  0.89886460  0.18068009  0.41085698  1
  N  N45  1  0.79985535  0.08802825  0.11883638  1
  N  N46  1  0.50570229  0.23496293  0.83147436  1
  N  N47  1  0.43476699  0.08664621  0.64457040  1
  N  N48  1  0.23967353  0.56273542  0.31890618  1
  N  N49  1  0.11549416  0.42873694  0.12604836  1
  N  N50  1  0.89419145  0.53646037  0.88719362  1
  N  N51  1  0.79899554  0.41173400  0.65320092  1
  N  N52  1  0.52595884  0.55981520  0.42103543  1
  N  N53  1  0.44763258  0.42953486  0.07628432  1
  N  N54  1  0.22203700  0.54332909  0.82827359  1
  N  N55  1  0.09859506  0.42377555  0.64908123  1
  N  N56  1  0.87781971  0.54367864  0.42058078  1
  N  N57  1  0.78295672  0.43370792  0.12020029  1
  N  N58  1  0.56167875  0.53075507  0.87088693  1
  N  N59  1  0.40441686  0.39104976  0.56096186  1
  N  N60  1  0.22607476  0.87579818  0.36991665  1
  N  N61  1  0.11563831  0.74185242  0.07164519  1
  N  N62  1  0.89783983  0.84827819  0.87639500  1
  N  N63  1  0.76272623  0.74275872  0.65976271  1
  N  N64  1  0.55021802  0.86459337  0.42699413  1
  N  N65  1  0.47423642  0.75269553  0.06950429  1
  N  N66  1  0.21841367  0.87232012  0.84914728  1
  N  N67  1  0.14925557  0.73487428  0.59049858  1
  N  N68  1  0.90527598  0.87894001  0.38168379  1
  N  N69  1  0.78279703  0.76082465  0.10560839  1
  N  N70  1  0.55459337  0.88408759  0.88063304  1
  N  N71  1  0.42326656  0.78627991  0.62439603  1
