# generated using pymatgen
data_Gd2Al7N9
_symmetry_space_group_name_H-M   'P 1'
_cell_length_a   9.78213813
_cell_length_b   9.91356981
_cell_length_c   10.78973633
_cell_angle_alpha   90.24067561
_cell_angle_beta   90.00614716
_cell_angle_gamma   59.15304717
_symmetry_Int_Tables_number   1
_chemical_formula_structural   Gd2Al7N9
_chemical_formula_sum   'Gd8 Al28 N36'
_cell_volume   898.31812061
_cell_formula_units_Z   4
loop_
 _symmetry_equiv_pos_site_id
 _symmetry_equiv_pos_as_xyz
  1  'x, y, z'
loop_
 _atom_site_type_symbol
 _atom_site_label
 _atom_site_symmetry_multiplicity
 _atom_site_fract_x
 _atom_site_fract_y
 _atom_site_fract_z
 _atom_site_occupancy
  Al  Al0  1  0.12165632  0.08410802  0.41671642  1
  Al  Al1  1  0.21431251  0.21342461  0.15664390  1
  Al  Al2  1  0.87888038  0.21197857  0.58360563  1
  Al  Al3  1  0.55315697  0.21576206  0.14104581  1
  Al  Al4  1  0.11962926  0.09718783  0.90537874  1
  Al  Al5  1  0.22138548  0.18990764  0.66667495  1
  Al  Al6  1  0.79910827  0.09529821  0.31870003  1
  Al  Al7  1  0.89036882  0.21946588  0.07184247  1
  Al  Al8  1  0.42852993  0.10282173  0.90885225  1
  Al  Al9  1  0.51844831  0.21676676  0.65593458  1
  Al  Al10  1  0.21711980  0.54093133  0.14757891  1
  Al  Al11  1  0.79073660  0.42552732  0.83065870  1
  Al  Al12  1  0.88016035  0.53760128  0.60543239  1
  Al  Al13  1  0.44436139  0.43319418  0.39171985  1
  Al  Al14  1  0.56604928  0.53313192  0.05817344  1
  Al  Al15  1  0.10679926  0.42781764  0.83253643  1
  Al  Al16  1  0.21654141  0.53893742  0.65661968  1
  Al  Al17  1  0.89623841  0.53299518  0.06065097  1
  Al  Al18  1  0.42197531  0.43195754  0.90126305  1
  Al  Al19  1  0.13651073  0.76092430  0.41289127  1
  Al  Al20  1  0.77452497  0.75440114  0.84528680  1
  Al  Al21  1  0.44718613  0.76611066  0.41693760  1
  Al  Al22  1  0.55726680  0.86469735  0.13207953  1
  Al  Al23  1  0.11788930  0.75407516  0.89410213  1
  Al  Al24  1  0.22002164  0.88095585  0.65526729  1
  Al  Al25  1  0.88440402  0.86853630  0.05563499  1
  Al  Al26  1  0.43906684  0.77111108  0.89526120  1
  Al  Al27  1  0.54049059  0.87931523  0.67154431  1
  Gd  Gd28  1  0.76230007  0.11509452  0.85324307  1
  Gd  Gd29  1  0.47787832  0.06912571  0.39310297  1
  Gd  Gd30  1  0.15865595  0.40651398  0.42377637  1
  Gd  Gd31  1  0.77640172  0.43530139  0.33301379  1
  Gd  Gd32  1  0.53356366  0.53461030  0.62849612  1
  Gd  Gd33  1  0.22268099  0.86760887  0.15947197  1
  Gd  Gd34  1  0.87339969  0.88083774  0.59824345  1
  Gd  Gd35  1  0.84022214  0.72679612  0.30141426  1
  N  N36  1  0.22345142  0.17698139  0.33340679  1
  N  N37  1  0.11456926  0.11196474  0.08393384  1
  N  N38  1  0.89917427  0.22629706  0.89661084  1
  N  N39  1  0.74245718  0.14087257  0.64183095  1
  N  N40  1  0.56926810  0.22912313  0.31587240  1
  N  N41  1  0.44539750  0.09834637  0.09333253  1
  N  N42  1  0.21839725  0.20180410  0.84366538  1
  N  N43  1  0.10938791  0.09475605  0.59991265  1
  N  N44  1  0.89745655  0.18871807  0.40257289  1
  N  N45  1  0.79249880  0.09055298  0.11804328  1
  N  N46  1  0.49749534  0.23240609  0.83587624  1
  N  N47  1  0.43973885  0.08707623  0.60758598  1
  N  N48  1  0.23228527  0.56677965  0.32356377  1
  N  N49  1  0.10162863  0.43559583  0.13373145  1
  N  N50  1  0.89175803  0.53568255  0.88550557  1
  N  N51  1  0.79952348  0.41230075  0.65462122  1
  N  N52  1  0.53714418  0.55040592  0.41382515  1
  N  N53  1  0.44075342  0.42955600  0.07788951  1
  N  N54  1  0.21779228  0.54685193  0.83261866  1
  N  N55  1  0.10544225  0.42395607  0.64943597  1
  N  N56  1  0.90157615  0.53751687  0.43436944  1
  N  N57  1  0.77622283  0.43469249  0.11701715  1
  N  N58  1  0.55535605  0.53339912  0.87049736  1
  N  N59  1  0.39905028  0.40190209  0.56313397  1
  N  N60  1  0.23098330  0.87409013  0.36989283  1
  N  N61  1  0.10722482  0.74264542  0.07146460  1
  N  N62  1  0.89325707  0.85521657  0.87331135  1
  N  N63  1  0.76332827  0.74450148  0.66572091  1
  N  N64  1  0.56826001  0.82975987  0.31392408  1
  N  N65  1  0.46338983  0.75301323  0.06874460  1
  N  N66  1  0.21635543  0.87639139  0.84107346  1
  N  N67  1  0.14701852  0.74246799  0.59408965  1
  N  N68  1  0.90319106  0.89082730  0.38530091  1
  N  N69  1  0.77785915  0.76094726  0.09198492  1
  N  N70  1  0.53983455  0.88560064  0.85085632  1
  N  N71  1  0.43053864  0.79532730  0.59831315  1
