# generated using pymatgen
data_Gd2Al7N9
_symmetry_space_group_name_H-M   'P 1'
_cell_length_a   9.91920787
_cell_length_b   9.92829416
_cell_length_c   10.61011362
_cell_angle_alpha   89.90936757
_cell_angle_beta   90.56346548
_cell_angle_gamma   59.28871069
_symmetry_Int_Tables_number   1
_chemical_formula_structural   Gd2Al7N9
_chemical_formula_sum   'Gd8 Al28 N36'
_cell_volume   898.27821835
_cell_formula_units_Z   4
loop_
 _symmetry_equiv_pos_site_id
 _symmetry_equiv_pos_as_xyz
  1  'x, y, z'
loop_
 _atom_site_type_symbol
 _atom_site_label
 _atom_site_symmetry_multiplicity
 _atom_site_fract_x
 _atom_site_fract_y
 _atom_site_fract_z
 _atom_site_occupancy
  Al  Al0  1  0.11231768  0.08885727  0.40450018  1
  Al  Al1  1  0.21874088  0.20807098  0.14340736  1
  Al  Al2  1  0.89008374  0.21971905  0.65835026  1
  Al  Al3  1  0.55040959  0.21169516  0.14169011  1
  Al  Al4  1  0.11665076  0.09859173  0.89857140  1
  Al  Al5  1  0.21658241  0.20144924  0.66879757  1
  Al  Al6  1  0.79763821  0.08655862  0.31197778  1
  Al  Al7  1  0.90530031  0.20506609  0.13644206  1
  Al  Al8  1  0.43449041  0.09608791  0.90692487  1
  Al  Al9  1  0.52349520  0.21529726  0.66048448  1
  Al  Al10  1  0.21881900  0.53971030  0.14176279  1
  Al  Al11  1  0.78807390  0.42774390  0.89000718  1
  Al  Al12  1  0.88438116  0.54020775  0.60051509  1
  Al  Al13  1  0.43909565  0.43245407  0.39196946  1
  Al  Al14  1  0.56116398  0.53204442  0.06852274  1
  Al  Al15  1  0.11698903  0.42283104  0.88189245  1
  Al  Al16  1  0.21597084  0.53326977  0.66195211  1
  Al  Al17  1  0.89608076  0.53942957  0.06796005  1
  Al  Al18  1  0.42386947  0.43030421  0.90352924  1
  Al  Al19  1  0.13439975  0.75988681  0.41543413  1
  Al  Al20  1  0.77665781  0.75323212  0.83559275  1
  Al  Al21  1  0.43792537  0.76896477  0.41818803  1
  Al  Al22  1  0.55562307  0.86246462  0.13623323  1
  Al  Al23  1  0.11783744  0.75534563  0.89230454  1
  Al  Al24  1  0.22262507  0.88028256  0.65105473  1
  Al  Al25  1  0.88666842  0.85971121  0.05909492  1
  Al  Al26  1  0.44084777  0.76946890  0.89482203  1
  Al  Al27  1  0.53993048  0.88138761  0.66752803  1
  Gd  Gd28  1  0.76120623  0.12184608  0.87701992  1
  Gd  Gd29  1  0.46256978  0.07912230  0.39446168  1
  Gd  Gd30  1  0.15700609  0.40865351  0.42311201  1
  Gd  Gd31  1  0.77316692  0.42653759  0.37452052  1
  Gd  Gd32  1  0.53674391  0.53051348  0.63214132  1
  Gd  Gd33  1  0.22329339  0.86677170  0.15890988  1
  Gd  Gd34  1  0.88091287  0.89115856  0.61305554  1
  Gd  Gd35  1  0.80918916  0.75527339  0.32444262  1
  N  N36  1  0.21627693  0.18504800  0.32354763  1
  N  N37  1  0.10902151  0.11205731  0.07474769  1
  N  N38  1  0.91214573  0.22422174  0.83733103  1
  N  N39  1  0.74134206  0.14905181  0.65329899  1
  N  N40  1  0.57191126  0.22432189  0.31900128  1
  N  N41  1  0.44733031  0.09164893  0.09382072  1
  N  N42  1  0.22440227  0.19901865  0.84808261  1
  N  N43  1  0.10310123  0.10019190  0.59393490  1
  N  N44  1  0.92126685  0.17431066  0.31244092  1
  N  N45  1  0.78482224  0.08354170  0.11277679  1
  N  N46  1  0.50259141  0.22922675  0.84251503  1
  N  N47  1  0.43503843  0.09258383  0.61141322  1
  N  N48  1  0.22806996  0.56483279  0.31974422  1
  N  N49  1  0.12196488  0.42291174  0.08507439  1
  N  N50  1  0.88968129  0.54193337  0.88816783  1
  N  N51  1  0.79032825  0.42093598  0.59906124  1
  N  N52  1  0.52149280  0.55680620  0.40677705  1
  N  N53  1  0.44166916  0.42802405  0.08281858  1
  N  N54  1  0.21934444  0.54411126  0.84033083  1
  N  N55  1  0.10258637  0.42647024  0.64335594  1
  N  N56  1  0.90858038  0.53919874  0.41999376  1
  N  N57  1  0.78304023  0.42294579  0.08990571  1
  N  N58  1  0.55698193  0.52957521  0.87416421  1
  N  N59  1  0.39941686  0.40161912  0.56732307  1
  N  N60  1  0.22627386  0.87516382  0.37169163  1
  N  N61  1  0.10605261  0.74443984  0.07160549  1
  N  N62  1  0.89149324  0.85687953  0.87177468  1
  N  N63  1  0.76209717  0.75115823  0.65360053  1
  N  N64  1  0.54972769  0.84099758  0.31899324  1
  N  N65  1  0.46472275  0.74995693  0.07209331  1
  N  N66  1  0.21917551  0.87515465  0.84074428  1
  N  N67  1  0.15173180  0.73832704  0.59886877  1
  N  N68  1  0.90758123  0.89682597  0.39761496  1
  N  N69  1  0.78132733  0.75644602  0.10964802  1
  N  N70  1  0.54687106  0.87888280  0.85041979  1
  N  N71  1  0.43068043  0.79489892  0.60006288  1
