# generated using pymatgen
data_Gd2Al7N9
_symmetry_space_group_name_H-M   'P 1'
_cell_length_a   9.88744467
_cell_length_b   9.90217572
_cell_length_c   10.40103482
_cell_angle_alpha   90.03862766
_cell_angle_beta   90.24068917
_cell_angle_gamma   59.99279617
_symmetry_Int_Tables_number   1
_chemical_formula_structural   Gd2Al7N9
_chemical_formula_sum   'Gd8 Al28 N36'
_cell_volume   881.83214434
_cell_formula_units_Z   4
loop_
 _symmetry_equiv_pos_site_id
 _symmetry_equiv_pos_as_xyz
  1  'x, y, z'
loop_
 _atom_site_type_symbol
 _atom_site_label
 _atom_site_symmetry_multiplicity
 _atom_site_fract_x
 _atom_site_fract_y
 _atom_site_fract_z
 _atom_site_occupancy
  Al  Al0  1  0.11109268  0.08737269  0.40671408  1
  Al  Al1  1  0.21411937  0.21267315  0.13925001  1
  Al  Al2  1  0.89586846  0.21581504  0.64933557  1
  Al  Al3  1  0.55967135  0.21052898  0.15001344  1
  Al  Al4  1  0.11289209  0.10161297  0.89586908  1
  Al  Al5  1  0.22231285  0.20407195  0.66674831  1
  Al  Al6  1  0.78368361  0.09981262  0.39237404  1
  Al  Al7  1  0.89716009  0.19784809  0.14850635  1
  Al  Al8  1  0.43885916  0.09933703  0.90305476  1
  Al  Al9  1  0.53802317  0.21179228  0.65049412  1
  Al  Al10  1  0.22119955  0.53922302  0.14273629  1
  Al  Al11  1  0.78650438  0.42517695  0.90381455  1
  Al  Al12  1  0.88715810  0.53577484  0.67259005  1
  Al  Al13  1  0.43572521  0.43577782  0.39438104  1
  Al  Al14  1  0.55972511  0.53436369  0.09920406  1
  Al  Al15  1  0.11491573  0.42696724  0.89598820  1
  Al  Al16  1  0.22334672  0.53111631  0.66181991  1
  Al  Al17  1  0.89661048  0.53745179  0.13053733  1
  Al  Al18  1  0.43593008  0.42848752  0.90270194  1
  Al  Al19  1  0.12827315  0.75638744  0.40365767  1
  Al  Al20  1  0.77921708  0.75909156  0.90718743  1
  Al  Al21  1  0.42864928  0.77159275  0.41227874  1
  Al  Al22  1  0.55737367  0.86827108  0.13662008  1
  Al  Al23  1  0.11345448  0.75349702  0.90260235  1
  Al  Al24  1  0.22389258  0.87798452  0.65133860  1
  Al  Al25  1  0.89321126  0.86926871  0.15405575  1
  Al  Al26  1  0.44756822  0.76232909  0.89527107  1
  Al  Al27  1  0.54958892  0.87708494  0.66634053  1
  Gd  Gd28  1  0.77678009  0.09929377  0.89459966  1
  Gd  Gd29  1  0.44323950  0.09551797  0.39194375  1
  Gd  Gd30  1  0.11789404  0.42809703  0.40980727  1
  Gd  Gd31  1  0.77576472  0.41882334  0.37749241  1
  Gd  Gd32  1  0.54715384  0.53514190  0.63608237  1
  Gd  Gd33  1  0.22806530  0.87415796  0.15304512  1
  Gd  Gd34  1  0.89359493  0.87049131  0.63686308  1
  Gd  Gd35  1  0.76561540  0.75919489  0.39032527  1
  N  N36  1  0.20260898  0.19435628  0.32280284  1
  N  N37  1  0.09793540  0.12006361  0.07566762  1
  N  N38  1  0.90491347  0.22176623  0.83249966  1
  N  N39  1  0.75777893  0.13469286  0.58977977  1
  N  N40  1  0.57145469  0.22604622  0.33051264  1
  N  N41  1  0.44563279  0.09780350  0.09433657  1
  N  N42  1  0.22513266  0.20369740  0.84955257  1
  N  N43  1  0.11143905  0.09759119  0.59609334  1
  N  N44  1  0.91506082  0.16772238  0.32879074  1
  N  N45  1  0.78143710  0.09070343  0.10853987  1
  N  N46  1  0.52376628  0.22324305  0.83618674  1
  N  N47  1  0.44199760  0.09088393  0.61289103  1
  N  N48  1  0.23125820  0.55436209  0.32331112  1
  N  N49  1  0.11775363  0.42717638  0.08372064  1
  N  N50  1  0.88647978  0.54078747  0.86104413  1
  N  N51  1  0.80529164  0.42181603  0.59572191  1
  N  N52  1  0.52130904  0.56173525  0.38002124  1
  N  N53  1  0.44431630  0.42656477  0.08723850  1
  N  N54  1  0.22526942  0.54048489  0.84628430  1
  N  N55  1  0.10487485  0.42967533  0.63336759  1
  N  N56  1  0.89962788  0.53490279  0.30766735  1
  N  N57  1  0.78188185  0.41891769  0.09512393  1
  N  N58  1  0.55938248  0.53167342  0.86680938  1
  N  N59  1  0.41337163  0.40736389  0.57570372  1
  N  N60  1  0.21896974  0.87636486  0.36878068  1
  N  N61  1  0.10055856  0.75036990  0.08529783  1
  N  N62  1  0.90215090  0.84521009  0.84986581  1
  N  N63  1  0.76058449  0.74469812  0.61088349  1
  N  N64  1  0.52626665  0.86056837  0.31492563  1
  N  N65  1  0.47162207  0.74751961  0.07402673  1
  N  N66  1  0.22069719  0.87366819  0.84529698  1
  N  N67  1  0.15040310  0.73682250  0.59053819  1
  N  N68  1  0.90565799  0.87825354  0.34970194  1
  N  N69  1  0.77805305  0.76562761  0.09613522  1
  N  N70  1  0.55651467  0.87612677  0.85210544  1
  N  N71  1  0.43116023  0.79454016  0.59827785  1
