# generated using pymatgen
data_Gd2Al7N9
_symmetry_space_group_name_H-M   'P 1'
_cell_length_a   9.79529223
_cell_length_b   9.93726396
_cell_length_c   10.77210212
_cell_angle_alpha   89.90258356
_cell_angle_beta   89.65955956
_cell_angle_gamma   58.97354767
_symmetry_Int_Tables_number   1
_chemical_formula_structural   Gd2Al7N9
_chemical_formula_sum   'Gd8 Al28 N36'
_cell_volume   898.50712733
_cell_formula_units_Z   4
loop_
 _symmetry_equiv_pos_site_id
 _symmetry_equiv_pos_as_xyz
  1  'x, y, z'
loop_
 _atom_site_type_symbol
 _atom_site_label
 _atom_site_symmetry_multiplicity
 _atom_site_fract_x
 _atom_site_fract_y
 _atom_site_fract_z
 _atom_site_occupancy
  Al  Al0  1  0.12187956  0.08352961  0.41282947  1
  Al  Al1  1  0.21422043  0.21217499  0.15758096  1
  Al  Al2  1  0.88324402  0.21486259  0.60069332  1
  Al  Al3  1  0.54936609  0.21490562  0.14078254  1
  Al  Al4  1  0.11833437  0.09764993  0.90445873  1
  Al  Al5  1  0.22373805  0.19038507  0.66600129  1
  Al  Al6  1  0.80032521  0.09318009  0.31313475  1
  Al  Al7  1  0.88982046  0.21958325  0.07276041  1
  Al  Al8  1  0.42684311  0.10186274  0.90910746  1
  Al  Al9  1  0.51968057  0.21819899  0.65834542  1
  Al  Al10  1  0.21524231  0.54069729  0.14881939  1
  Al  Al11  1  0.78750939  0.42942873  0.83595825  1
  Al  Al12  1  0.88206362  0.53982102  0.60533642  1
  Al  Al13  1  0.44643710  0.43156530  0.39175697  1
  Al  Al14  1  0.56119749  0.53439850  0.05971244  1
  Al  Al15  1  0.10644018  0.42783659  0.83175937  1
  Al  Al16  1  0.21748577  0.53930382  0.65626294  1
  Al  Al17  1  0.89490147  0.53374673  0.06164677  1
  Al  Al18  1  0.41872600  0.43344539  0.90183775  1
  Al  Al19  1  0.13722629  0.76067779  0.41399750  1
  Al  Al20  1  0.77441060  0.75474574  0.84386978  1
  Al  Al21  1  0.44942896  0.76370340  0.41549658  1
  Al  Al22  1  0.55605146  0.86246642  0.13491044  1
  Al  Al23  1  0.11641867  0.75489869  0.89326829  1
  Al  Al24  1  0.22216686  0.88049158  0.65428076  1
  Al  Al25  1  0.88257669  0.86515319  0.05482679  1
  Al  Al26  1  0.43706369  0.77209015  0.89663619  1
  Al  Al27  1  0.54187316  0.87906685  0.67092107  1
  Gd  Gd28  1  0.75714227  0.11701794  0.86333500  1
  Gd  Gd29  1  0.48225213  0.06520700  0.39431013  1
  Gd  Gd30  1  0.16183453  0.40325986  0.42316216  1
  Gd  Gd31  1  0.77895792  0.43476862  0.33000087  1
  Gd  Gd32  1  0.53558423  0.53401612  0.62770012  1
  Gd  Gd33  1  0.21605822  0.86983073  0.15995216  1
  Gd  Gd34  1  0.87439681  0.88674384  0.60180212  1
  Gd  Gd35  1  0.84349400  0.72487779  0.30362982  1
  N  N36  1  0.22951758  0.17310135  0.33369846  1
  N  N37  1  0.11367200  0.11324372  0.08278069  1
  N  N38  1  0.89793505  0.22617915  0.89503292  1
  N  N39  1  0.74375428  0.14655809  0.64870519  1
  N  N40  1  0.56932759  0.22733114  0.31501723  1
  N  N41  1  0.44400651  0.09689175  0.09318668  1
  N  N42  1  0.21749455  0.20157332  0.84275691  1
  N  N43  1  0.11012391  0.09596557  0.59832923  1
  N  N44  1  0.90498110  0.18515208  0.38217168  1
  N  N45  1  0.78921865  0.08867320  0.11301032  1
  N  N46  1  0.49362038  0.23395594  0.83718838  1
  N  N47  1  0.44276982  0.08761176  0.60869609  1
  N  N48  1  0.23261611  0.56678224  0.32448957  1
  N  N49  1  0.09907280  0.43578436  0.13760912  1
  N  N50  1  0.89179898  0.53702464  0.88646201  1
  N  N51  1  0.80019943  0.41787445  0.65966246  1
  N  N52  1  0.53958435  0.54781956  0.41353678  1
  N  N53  1  0.43778491  0.42914737  0.07847885  1
  N  N54  1  0.21568200  0.54796828  0.83254519  1
  N  N55  1  0.10728752  0.42419951  0.64908289  1
  N  N56  1  0.90503693  0.53307466  0.43439503  1
  N  N57  1  0.77323427  0.43543222  0.11341426  1
  N  N58  1  0.55186608  0.53545732  0.87231357  1
  N  N59  1  0.40123764  0.40202002  0.56416036  1
  N  N60  1  0.23352446  0.87178034  0.37005462  1
  N  N61  1  0.10491973  0.74171565  0.07119908  1
  N  N62  1  0.89167214  0.85586092  0.87225669  1
  N  N63  1  0.76531255  0.74729404  0.66391559  1
  N  N64  1  0.57166572  0.82645627  0.31507892  1
  N  N65  1  0.45870153  0.75450165  0.07114958  1
  N  N66  1  0.21538289  0.87719450  0.84055496  1
  N  N67  1  0.14827558  0.74341894  0.59505590  1
  N  N68  1  0.90267606  0.89130838  0.38732738  1
  N  N69  1  0.77632802  0.75957103  0.09385489  1
  N  N70  1  0.53955004  0.88443589  0.85056463  1
  N  N71  1  0.43272419  0.79540464  0.59720552  1
