# generated using pymatgen
data_Gd2Al7N9
_symmetry_space_group_name_H-M   'P 1'
_cell_length_a   9.87183671
_cell_length_b   9.86822411
_cell_length_c   10.83733725
_cell_angle_alpha   91.20209831
_cell_angle_beta   91.24836430
_cell_angle_gamma   59.74538496
_symmetry_Int_Tables_number   1
_chemical_formula_structural   Gd2Al7N9
_chemical_formula_sum   'Gd8 Al28 N36'
_cell_volume   911.67066399
_cell_formula_units_Z   4
loop_
 _symmetry_equiv_pos_site_id
 _symmetry_equiv_pos_as_xyz
  1  'x, y, z'
loop_
 _atom_site_type_symbol
 _atom_site_label
 _atom_site_symmetry_multiplicity
 _atom_site_fract_x
 _atom_site_fract_y
 _atom_site_fract_z
 _atom_site_occupancy
  Al  Al0  1  0.11298284  0.07462273  0.42801467  1
  Al  Al1  1  0.23637782  0.21693973  0.05926748  1
  Al  Al2  1  0.87794989  0.20714031  0.58547976  1
  Al  Al3  1  0.56367890  0.21915266  0.13769376  1
  Al  Al4  1  0.11927454  0.09484762  0.89448104  1
  Al  Al5  1  0.21369160  0.20323497  0.59405484  1
  Al  Al6  1  0.80525861  0.08545136  0.31448691  1
  Al  Al7  1  0.89937545  0.21955663  0.06682206  1
  Al  Al8  1  0.43008586  0.09623382  0.81875284  1
  Al  Al9  1  0.52777529  0.21335834  0.64727463  1
  Al  Al10  1  0.23021926  0.54247001  0.13507345  1
  Al  Al11  1  0.79569458  0.42445398  0.82294109  1
  Al  Al12  1  0.88267416  0.53132219  0.58930928  1
  Al  Al13  1  0.43595371  0.43299598  0.39245613  1
  Al  Al14  1  0.57518934  0.53521465  0.04924040  1
  Al  Al15  1  0.10801465  0.42610862  0.82268436  1
  Al  Al16  1  0.21663790  0.52857683  0.64117287  1
  Al  Al17  1  0.89771064  0.53932636  0.05510590  1
  Al  Al18  1  0.42509752  0.43167950  0.89268457  1
  Al  Al19  1  0.13368527  0.75344079  0.40040404  1
  Al  Al20  1  0.77764056  0.75296991  0.82623916  1
  Al  Al21  1  0.42531466  0.77082278  0.43492181  1
  Al  Al22  1  0.56715445  0.88296480  0.05212937  1
  Al  Al23  1  0.12040967  0.74950745  0.88943020  1
  Al  Al24  1  0.21598237  0.87575759  0.66073514  1
  Al  Al25  1  0.89589017  0.86224956  0.05803231  1
  Al  Al26  1  0.44402019  0.76764573  0.88275289  1
  Al  Al27  1  0.55129357  0.87085105  0.59797550  1
  Gd  Gd28  1  0.76506041  0.10926480  0.85304662  1
  Gd  Gd29  1  0.44758111  0.09960233  0.34926212  1
  Gd  Gd30  1  0.10851725  0.41997163  0.33121808  1
  Gd  Gd31  1  0.75176995  0.42277715  0.33003663  1
  Gd  Gd32  1  0.53433188  0.52762032  0.62993656  1
  Gd  Gd33  1  0.23663064  0.86979732  0.15065806  1
  Gd  Gd34  1  0.88122725  0.87578611  0.58830473  1
  Gd  Gd35  1  0.77217358  0.75961747  0.31402521  1
  N  N36  1  0.21211308  0.19094237  0.41858594  1
  N  N37  1  0.11993357  0.11301742  0.07822991  1
  N  N38  1  0.90184750  0.22578961  0.89046167  1
  N  N39  1  0.74709281  0.13194698  0.63901443  1
  N  N40  1  0.58317558  0.23747464  0.31164843  1
  N  N41  1  0.45423609  0.09714600  0.12123584  1
  N  N42  1  0.22479724  0.21065251  0.87851432  1
  N  N43  1  0.10141141  0.08631386  0.60940056  1
  N  N44  1  0.89765240  0.18078901  0.40441464  1
  N  N45  1  0.79987654  0.09013857  0.11368493  1
  N  N46  1  0.50711172  0.23516002  0.82490140  1
  N  N47  1  0.43426147  0.08617386  0.64024301  1
  N  N48  1  0.23747654  0.55742802  0.31331912  1
  N  N49  1  0.11621831  0.43022076  0.11341017  1
  N  N50  1  0.89348368  0.53830543  0.87945132  1
  N  N51  1  0.79876989  0.41172896  0.64717672  1
  N  N52  1  0.52292966  0.55806536  0.41488545  1
  N  N53  1  0.44881292  0.43069753  0.06968159  1
  N  N54  1  0.22239984  0.54422890  0.82244341  1
  N  N55  1  0.09941535  0.42242362  0.64389504  1
  N  N56  1  0.87878032  0.53926100  0.41453816  1
  N  N57  1  0.78353746  0.43596258  0.11452688  1
  N  N58  1  0.56184902  0.53234080  0.86469413  1
  N  N59  1  0.40469937  0.39303427  0.55846003  1
  N  N60  1  0.22542635  0.87434305  0.36246395  1
  N  N61  1  0.11686314  0.74341804  0.06600167  1
  N  N62  1  0.89839170  0.84848044  0.87201250  1
  N  N63  1  0.76261093  0.74336180  0.65147277  1
  N  N64  1  0.55058732  0.86292322  0.41790172  1
  N  N65  1  0.47425441  0.75438816  0.06261622  1
  N  N66  1  0.21858648  0.87353288  0.84170456  1
  N  N67  1  0.14858450  0.73500890  0.58349971  1
  N  N68  1  0.90581958  0.87732154  0.37414272  1
  N  N69  1  0.78361410  0.76206675  0.10044251  1
  N  N70  1  0.55612481  0.88402958  0.87406154  1
  N  N71  1  0.42248724  0.78766114  0.61538184  1
