# generated using pymatgen
data_Gd2Al7N9
_symmetry_space_group_name_H-M   'P 1'
_cell_length_a   9.85791515
_cell_length_b   9.86857162
_cell_length_c   10.49688815
_cell_angle_alpha   90.80075293
_cell_angle_beta   90.86945808
_cell_angle_gamma   60.53336254
_symmetry_Int_Tables_number   1
_chemical_formula_structural   Gd2Al7N9
_chemical_formula_sum   'Gd8 Al28 N36'
_cell_volume   888.95042738
_cell_formula_units_Z   4
loop_
 _symmetry_equiv_pos_site_id
 _symmetry_equiv_pos_as_xyz
  1  'x, y, z'
loop_
 _atom_site_type_symbol
 _atom_site_label
 _atom_site_symmetry_multiplicity
 _atom_site_fract_x
 _atom_site_fract_y
 _atom_site_fract_z
 _atom_site_occupancy
  Al  Al0  1  0.10824226  0.09197129  0.32281335  1
  Al  Al1  1  0.22366231  0.21394058  0.04281736  1
  Al  Al2  1  0.89416167  0.19733649  0.56182413  1
  Al  Al3  1  0.55564283  0.21984285  0.09463108  1
  Al  Al4  1  0.11805431  0.09348058  0.80363205  1
  Al  Al5  1  0.21630928  0.20266383  0.57383935  1
  Al  Al6  1  0.79330622  0.08704725  0.29076055  1
  Al  Al7  1  0.90365536  0.22032247  0.05548178  1
  Al  Al8  1  0.43757704  0.09495294  0.81319170  1
  Al  Al9  1  0.54472023  0.20640984  0.62199796  1
  Al  Al10  1  0.21742201  0.54308397  0.04717680  1
  Al  Al11  1  0.79990673  0.42096752  0.80938240  1
  Al  Al12  1  0.88959795  0.52747942  0.57315181  1
  Al  Al13  1  0.43444707  0.43182515  0.37833983  1
  Al  Al14  1  0.56750984  0.55010960  0.04543159  1
  Al  Al15  1  0.11614022  0.42845837  0.80728618  1
  Al  Al16  1  0.21340347  0.53457655  0.55890901  1
  Al  Al17  1  0.89517017  0.53965051  0.03263055  1
  Al  Al18  1  0.44028606  0.43305403  0.87630717  1
  Al  Al19  1  0.10904525  0.75855351  0.30467775  1
  Al  Al20  1  0.77912464  0.75150773  0.81134470  1
  Al  Al21  1  0.43694007  0.76065047  0.32076335  1
  Al  Al22  1  0.56283556  0.87621204  0.04386065  1
  Al  Al23  1  0.12608388  0.75085270  0.80279362  1
  Al  Al24  1  0.22185919  0.87502393  0.55905803  1
  Al  Al25  1  0.90122164  0.85563973  0.04669271  1
  Al  Al26  1  0.43497464  0.77920729  0.80830453  1
  Al  Al27  1  0.54500384  0.87262649  0.57292426  1
  Gd  Gd28  1  0.78318530  0.09765806  0.83758169  1
  Gd  Gd29  1  0.44465691  0.09910328  0.32053625  1
  Gd  Gd30  1  0.10108845  0.41924448  0.30165762  1
  Gd  Gd31  1  0.75190065  0.41218394  0.30760456  1
  Gd  Gd32  1  0.54814840  0.53923375  0.59894370  1
  Gd  Gd33  1  0.22569062  0.87963076  0.07633292  1
  Gd  Gd34  1  0.88689905  0.86944882  0.56134761  1
  Gd  Gd35  1  0.76220338  0.75091809  0.29393107  1
  N  N36  1  0.20934554  0.19152924  0.39683215  1
  N  N37  1  0.10311445  0.13668519  0.13767503  1
  N  N38  1  0.91939794  0.21918498  0.87764435  1
  N  N39  1  0.75974550  0.12073941  0.61886241  1
  N  N40  1  0.57571770  0.23736106  0.29621824  1
  N  N41  1  0.44521138  0.09676166  0.09618733  1
  N  N42  1  0.22392491  0.20352647  0.85857472  1
  N  N43  1  0.10741068  0.08789916  0.62134239  1
  N  N44  1  0.90489647  0.16915040  0.38023827  1
  N  N45  1  0.79624084  0.09159396  0.09314350  1
  N  N46  1  0.52636783  0.22126335  0.84858172  1
  N  N47  1  0.44145869  0.09001002  0.62425825  1
  N  N48  1  0.21174056  0.55553654  0.37416028  1
  N  N49  1  0.11374891  0.43034877  0.08152621  1
  N  N50  1  0.89718009  0.53681472  0.85431278  1
  N  N51  1  0.80953248  0.40103652  0.62832090  1
  N  N52  1  0.51664135  0.56327640  0.38178500  1
  N  N53  1  0.44701876  0.44276321  0.06096011  1
  N  N54  1  0.22161835  0.54287109  0.86136675  1
  N  N55  1  0.11000543  0.42678202  0.62227717  1
  N  N56  1  0.87558359  0.52965982  0.39397759  1
  N  N57  1  0.78203839  0.43807789  0.09196175  1
  N  N58  1  0.56011097  0.54696886  0.85150244  1
  N  N59  1  0.42690209  0.39952589  0.56068063  1
  N  N60  1  0.21705256  0.87208116  0.35676261  1
  N  N61  1  0.10363441  0.74374748  0.12106142  1
  N  N62  1  0.91298298  0.83792870  0.85843612  1
  N  N63  1  0.75885770  0.74387213  0.62875610  1
  N  N64  1  0.53712657  0.86330785  0.39356972  1
  N  N65  1  0.48486769  0.75189410  0.13013548  1
  N  N66  1  0.22040162  0.87640378  0.86061333  1
  N  N67  1  0.14358711  0.74246775  0.62070748  1
  N  N68  1  0.89069297  0.87861651  0.34422357  1
  N  N69  1  0.78164552  0.75902707  0.07672429  1
  N  N70  1  0.55371570  0.87672570  0.86353301  1
  N  N71  1  0.41943554  0.79709207  0.63136457  1
