# generated using pymatgen
data_Gd2Al7N9
_symmetry_space_group_name_H-M   'P 1'
_cell_length_a   9.94406568
_cell_length_b   9.93236465
_cell_length_c   10.57945441
_cell_angle_alpha   89.85118320
_cell_angle_beta   90.51286981
_cell_angle_gamma   59.35513407
_symmetry_Int_Tables_number   1
_chemical_formula_structural   Gd2Al7N9
_chemical_formula_sum   'Gd8 Al28 N36'
_cell_volume   898.91614003
_cell_formula_units_Z   4
loop_
 _symmetry_equiv_pos_site_id
 _symmetry_equiv_pos_as_xyz
  1  'x, y, z'
loop_
 _atom_site_type_symbol
 _atom_site_label
 _atom_site_symmetry_multiplicity
 _atom_site_fract_x
 _atom_site_fract_y
 _atom_site_fract_z
 _atom_site_occupancy
  Al  Al0  1  0.11342279  0.08782658  0.40414448  1
  Al  Al1  1  0.21943634  0.20720199  0.14343788  1
  Al  Al2  1  0.89143203  0.21924121  0.65865971  1
  Al  Al3  1  0.55086880  0.21192789  0.14208620  1
  Al  Al4  1  0.11695722  0.09939918  0.89775294  1
  Al  Al5  1  0.21744712  0.20262905  0.66739927  1
  Al  Al6  1  0.79941312  0.08416034  0.31227894  1
  Al  Al7  1  0.90612654  0.20433516  0.13609809  1
  Al  Al8  1  0.43410083  0.09741213  0.90649731  1
  Al  Al9  1  0.52535196  0.21511707  0.66095289  1
  Al  Al10  1  0.21965733  0.54012624  0.14230099  1
  Al  Al11  1  0.78844696  0.42723586  0.89302782  1
  Al  Al12  1  0.88512238  0.53775686  0.61620639  1
  Al  Al13  1  0.43830231  0.43251787  0.39374773  1
  Al  Al14  1  0.56029248  0.53235332  0.06887820  1
  Al  Al15  1  0.11865909  0.42275208  0.89059597  1
  Al  Al16  1  0.21681156  0.53234157  0.66101086  1
  Al  Al17  1  0.89502983  0.53937684  0.07274089  1
  Al  Al18  1  0.42404839  0.43037985  0.90309052  1
  Al  Al19  1  0.13481647  0.75881397  0.41552795  1
  Al  Al20  1  0.77548965  0.75531028  0.83992688  1
  Al  Al21  1  0.43720532  0.76928324  0.41797195  1
  Al  Al22  1  0.55287934  0.86444465  0.13538076  1
  Al  Al23  1  0.11794528  0.75506071  0.89201436  1
  Al  Al24  1  0.22291494  0.88044178  0.65081516  1
  Al  Al25  1  0.88705488  0.86015521  0.05973185  1
  Al  Al26  1  0.44022470  0.76963660  0.89464207  1
  Al  Al27  1  0.53999821  0.88171597  0.66822917  1
  Gd  Gd28  1  0.76182768  0.12227989  0.87750008  1
  Gd  Gd29  1  0.46110818  0.08146684  0.39506072  1
  Gd  Gd30  1  0.14981243  0.41144791  0.41644376  1
  Gd  Gd31  1  0.77137053  0.42072013  0.37613691  1
  Gd  Gd32  1  0.53699511  0.53169819  0.63272195  1
  Gd  Gd33  1  0.22280670  0.86746175  0.15927419  1
  Gd  Gd34  1  0.88230227  0.89065354  0.61369840  1
  Gd  Gd35  1  0.80139034  0.76054962  0.32414796  1
  N  N36  1  0.21809198  0.18251054  0.32299876  1
  N  N37  1  0.10927031  0.11265655  0.07414830  1
  N  N38  1  0.91246879  0.22480467  0.83763520  1
  N  N39  1  0.74298855  0.14896903  0.65276549  1
  N  N40  1  0.57401473  0.22415031  0.31976016  1
  N  N41  1  0.44645540  0.09306095  0.09343025  1
  N  N42  1  0.22388488  0.20151206  0.84741429  1
  N  N43  1  0.10384601  0.10061749  0.59403491  1
  N  N44  1  0.92403297  0.17033982  0.31143930  1
  N  N45  1  0.78495546  0.08331115  0.11266313  1
  N  N46  1  0.50417834  0.22892137  0.84307558  1
  N  N47  1  0.43647337  0.09253156  0.61267553  1
  N  N48  1  0.23061241  0.56384245  0.31986751  1
  N  N49  1  0.12234548  0.42293975  0.08483591  1
  N  N50  1  0.89054908  0.54150594  0.88785465  1
  N  N51  1  0.79258172  0.42109877  0.59918174  1
  N  N52  1  0.51981605  0.55772558  0.40855278  1
  N  N53  1  0.44147785  0.42808961  0.08285455  1
  N  N54  1  0.21892068  0.54298904  0.84055059  1
  N  N55  1  0.10255542  0.42747212  0.63572981  1
  N  N56  1  0.90797826  0.53128248  0.38918517  1
  N  N57  1  0.78234193  0.42197446  0.08842581  1
  N  N58  1  0.55691249  0.52984019  0.87411952  1
  N  N59  1  0.40199346  0.40180255  0.57007565  1
  N  N60  1  0.22618814  0.87441127  0.37241254  1
  N  N61  1  0.10587668  0.74447323  0.07189523  1
  N  N62  1  0.89189945  0.85755259  0.87192763  1
  N  N63  1  0.76244120  0.75075538  0.65470592  1
  N  N64  1  0.54389905  0.84508992  0.31821578  1
  N  N65  1  0.46382351  0.75002024  0.07214890  1
  N  N66  1  0.21911683  0.87557883  0.84084700  1
  N  N67  1  0.15225622  0.73814219  0.59983307  1
  N  N68  1  0.90972096  0.89444975  0.39848341  1
  N  N69  1  0.77878029  0.75875919  0.10781644  1
  N  N70  1  0.54644126  0.87960318  0.85135571  1
  N  N71  1  0.43063968  0.79571254  0.60087079  1
