# generated using pymatgen
data_Gd2Al7N9
_symmetry_space_group_name_H-M   'P 1'
_cell_length_a   9.86218582
_cell_length_b   9.94786487
_cell_length_c   10.67536143
_cell_angle_alpha   90.05638353
_cell_angle_beta   90.30636528
_cell_angle_gamma   58.90417097
_symmetry_Int_Tables_number   1
_chemical_formula_structural   Gd2Al7N9
_chemical_formula_sum   'Gd8 Al28 N36'
_cell_volume   896.82317321
_cell_formula_units_Z   4
loop_
 _symmetry_equiv_pos_site_id
 _symmetry_equiv_pos_as_xyz
  1  'x, y, z'
loop_
 _atom_site_type_symbol
 _atom_site_label
 _atom_site_symmetry_multiplicity
 _atom_site_fract_x
 _atom_site_fract_y
 _atom_site_fract_z
 _atom_site_occupancy
  Al  Al0  1  0.11464071  0.08632815  0.40393059  1
  Al  Al1  1  0.21617683  0.21003683  0.15140653  1
  Al  Al2  1  0.89149769  0.21521174  0.65745927  1
  Al  Al3  1  0.54699821  0.21359812  0.14016825  1
  Al  Al4  1  0.11518255  0.10076625  0.89963869  1
  Al  Al5  1  0.22252471  0.19058833  0.66340590  1
  Al  Al6  1  0.79569452  0.08893766  0.31029498  1
  Al  Al7  1  0.90241255  0.20866829  0.13590792  1
  Al  Al8  1  0.43015092  0.09899677  0.90740952  1
  Al  Al9  1  0.52163532  0.21637542  0.65900502  1
  Al  Al10  1  0.21496823  0.54056593  0.14611365  1
  Al  Al11  1  0.78454582  0.43586690  0.83905237  1
  Al  Al12  1  0.88228732  0.54509686  0.60192033  1
  Al  Al13  1  0.44146799  0.43211617  0.39012378  1
  Al  Al14  1  0.56502743  0.53021118  0.06322725  1
  Al  Al15  1  0.10803649  0.42562590  0.83360794  1
  Al  Al16  1  0.21702719  0.53833545  0.65589064  1
  Al  Al17  1  0.89772169  0.53011724  0.06280164  1
  Al  Al18  1  0.41869276  0.43170362  0.90229257  1
  Al  Al19  1  0.13522240  0.76175293  0.41424797  1
  Al  Al20  1  0.77411356  0.75668137  0.84307477  1
  Al  Al21  1  0.44400409  0.76637938  0.41480574  1
  Al  Al22  1  0.55788092  0.85926000  0.13339366  1
  Al  Al23  1  0.11603945  0.75630741  0.89097869  1
  Al  Al24  1  0.22192193  0.88091175  0.65082729  1
  Al  Al25  1  0.88322677  0.86302123  0.05344622  1
  Al  Al26  1  0.43806249  0.77078972  0.89532519  1
  Al  Al27  1  0.54158952  0.87925178  0.66918946  1
  Gd  Gd28  1  0.75827393  0.12588894  0.87671671  1
  Gd  Gd29  1  0.47784327  0.06548874  0.39322575  1
  Gd  Gd30  1  0.16383985  0.40212009  0.42120063  1
  Gd  Gd31  1  0.77416398  0.43784675  0.35071231  1
  Gd  Gd32  1  0.53176036  0.53349878  0.62745114  1
  Gd  Gd33  1  0.21872730  0.86848499  0.15661783  1
  Gd  Gd34  1  0.87544523  0.89195741  0.60949833  1
  Gd  Gd35  1  0.83862651  0.73437970  0.30571277  1
  N  N36  1  0.22730664  0.17305267  0.32953689  1
  N  N37  1  0.10872865  0.11494168  0.07495339  1
  N  N38  1  0.91258778  0.22058435  0.83657176  1
  N  N39  1  0.74017924  0.15064801  0.65066744  1
  N  N40  1  0.56809403  0.22584461  0.31628351  1
  N  N41  1  0.44467150  0.09335094  0.09317391  1
  N  N42  1  0.22192532  0.19909271  0.84209846  1
  N  N43  1  0.10292485  0.09910906  0.59078400  1
  N  N44  1  0.92041517  0.17615793  0.31432630  1
  N  N45  1  0.78426510  0.08564764  0.11152294  1
  N  N46  1  0.49804372  0.23096232  0.83931531  1
  N  N47  1  0.43993158  0.08886636  0.60823092  1
  N  N48  1  0.22809443  0.56799668  0.32291775  1
  N  N49  1  0.10704673  0.43065589  0.12658292  1
  N  N50  1  0.89231521  0.53770534  0.88503196  1
  N  N51  1  0.79011196  0.42909169  0.63459680  1
  N  N52  1  0.52871562  0.55221046  0.40932760  1
  N  N53  1  0.43868264  0.42903355  0.07989276  1
  N  N54  1  0.21577796  0.54718527  0.83355097  1
  N  N55  1  0.10540535  0.42480368  0.64880106  1
  N  N56  1  0.91080404  0.53824710  0.42967149  1
  N  N57  1  0.77860163  0.42955463  0.11234138  1
  N  N58  1  0.55572542  0.53054509  0.87203243  1
  N  N59  1  0.39828266  0.40074005  0.56310255  1
  N  N60  1  0.23024429  0.87263983  0.36837671  1
  N  N61  1  0.10422168  0.74294192  0.07011368  1
  N  N62  1  0.88974789  0.86135471  0.86969495  1
  N  N63  1  0.76393417  0.75143848  0.66139504  1
  N  N64  1  0.57106978  0.82441844  0.31575808  1
  N  N65  1  0.46148663  0.75061793  0.07088593  1
  N  N66  1  0.21720461  0.87589906  0.83923923  1
  N  N67  1  0.14968100  0.74233146  0.59563434  1
  N  N68  1  0.90265841  0.89665494  0.39310974  1
  N  N69  1  0.77798525  0.75737604  0.09276855  1
  N  N70  1  0.54148643  0.88148628  0.85037677  1
  N  N71  1  0.43114210  0.79640977  0.59661615  1
