# generated using pymatgen
data_Gd2Al7N9
_symmetry_space_group_name_H-M   'P 1'
_cell_length_a   9.94669447
_cell_length_b   9.93238111
_cell_length_c   10.57676438
_cell_angle_alpha   89.84207602
_cell_angle_beta   90.50760438
_cell_angle_gamma   59.36177760
_symmetry_Int_Tables_number   1
_chemical_formula_structural   Gd2Al7N9
_chemical_formula_sum   'Gd8 Al28 N36'
_cell_volume   898.98815057
_cell_formula_units_Z   4
loop_
 _symmetry_equiv_pos_site_id
 _symmetry_equiv_pos_as_xyz
  1  'x, y, z'
loop_
 _atom_site_type_symbol
 _atom_site_label
 _atom_site_symmetry_multiplicity
 _atom_site_fract_x
 _atom_site_fract_y
 _atom_site_fract_z
 _atom_site_occupancy
  Al  Al0  1  0.11362515  0.08769678  0.40396959  1
  Al  Al1  1  0.21942000  0.20726423  0.14356633  1
  Al  Al2  1  0.89164730  0.21913464  0.65863302  1
  Al  Al3  1  0.55090997  0.21193794  0.14219119  1
  Al  Al4  1  0.11695803  0.09948451  0.89772541  1
  Al  Al5  1  0.21780566  0.20239275  0.66721317  1
  Al  Al6  1  0.79957529  0.08395723  0.31248491  1
  Al  Al7  1  0.90616229  0.20438955  0.13622096  1
  Al  Al8  1  0.43392607  0.09765891  0.90657921  1
  Al  Al9  1  0.52547961  0.21517799  0.66104042  1
  Al  Al10  1  0.21963814  0.54008683  0.14248215  1
  Al  Al11  1  0.78828813  0.42694707  0.89409893  1
  Al  Al12  1  0.88532921  0.53639275  0.62977493  1
  Al  Al13  1  0.43814211  0.43245140  0.39394459  1
  Al  Al14  1  0.56012654  0.53238420  0.06899300  1
  Al  Al15  1  0.11924663  0.42255812  0.89176767  1
  Al  Al16  1  0.21709718  0.53233643  0.66090787  1
  Al  Al17  1  0.89521978  0.53889933  0.07531984  1
  Al  Al18  1  0.42404698  0.43041603  0.90305152  1
  Al  Al19  1  0.13492321  0.75859883  0.41546824  1
  Al  Al20  1  0.77457692  0.75683736  0.84161307  1
  Al  Al21  1  0.43714629  0.76921242  0.41780491  1
  Al  Al22  1  0.55246753  0.86469685  0.13527311  1
  Al  Al23  1  0.11799029  0.75504315  0.89205510  1
  Al  Al24  1  0.22293227  0.88042818  0.65078605  1
  Al  Al25  1  0.88713068  0.86041373  0.05987925  1
  Al  Al26  1  0.44007581  0.76959561  0.89463616  1
  Al  Al27  1  0.53981801  0.88184256  0.66841870  1
  Gd  Gd28  1  0.76184856  0.12249488  0.87761998  1
  Gd  Gd29  1  0.46097461  0.08173679  0.39511059  1
  Gd  Gd30  1  0.14705678  0.41256157  0.41564955  1
  Gd  Gd31  1  0.77180560  0.42006113  0.37702058  1
  Gd  Gd32  1  0.53696379  0.53184953  0.63260967  1
  Gd  Gd33  1  0.22281433  0.86752478  0.15931867  1
  Gd  Gd34  1  0.88246898  0.89067824  0.61368074  1
  Gd  Gd35  1  0.80002533  0.76166580  0.32372823  1
  N  N36  1  0.21862314  0.18218749  0.32310027  1
  N  N37  1  0.10924645  0.11277610  0.07413371  1
  N  N38  1  0.91250160  0.22498089  0.83751820  1
  N  N39  1  0.74312737  0.14924002  0.65260111  1
  N  N40  1  0.57426179  0.22406200  0.31983934  1
  N  N41  1  0.44626718  0.09326057  0.09339713  1
  N  N42  1  0.22378469  0.20173571  0.84722245  1
  N  N43  1  0.10391397  0.10069799  0.59398332  1
  N  N44  1  0.92421662  0.17009498  0.31141173  1
  N  N45  1  0.78499932  0.08338817  0.11265018  1
  N  N46  1  0.50432697  0.22885568  0.84314507  1
  N  N47  1  0.43667504  0.09249148  0.61286594  1
  N  N48  1  0.23109076  0.56328594  0.32003770  1
  N  N49  1  0.12260180  0.42280770  0.08402254  1
  N  N50  1  0.89052399  0.54135756  0.88605118  1
  N  N51  1  0.79375853  0.42167427  0.59922462  1
  N  N52  1  0.51968356  0.55775065  0.40888769  1
  N  N53  1  0.44145388  0.42808410  0.08284891  1
  N  N54  1  0.21885835  0.54293606  0.84051625  1
  N  N55  1  0.10228355  0.42786078  0.63515992  1
  N  N56  1  0.91004002  0.52762161  0.37162473  1
  N  N57  1  0.78225511  0.42169621  0.08751420  1
  N  N58  1  0.55680248  0.52990338  0.87399861  1
  N  N59  1  0.40235982  0.40189626  0.57061781  1
  N  N60  1  0.22617220  0.87430014  0.37245001  1
  N  N61  1  0.10588799  0.74444496  0.07197880  1
  N  N62  1  0.89199797  0.85787030  0.87202218  1
  N  N63  1  0.76229835  0.75113591  0.65537224  1
  N  N64  1  0.54299809  0.84549323  0.31809997  1
  N  N65  1  0.46372129  0.74998099  0.07209069  1
  N  N66  1  0.21905124  0.87566529  0.84085622  1
  N  N67  1  0.15231360  0.73813658  0.59995568  1
  N  N68  1  0.91028563  0.89412497  0.39876998  1
  N  N69  1  0.77815446  0.75947234  0.10678420  1
  N  N70  1  0.54607574  0.87987944  0.85153558  1
  N  N71  1  0.43062240  0.79577034  0.60099273  1
