# generated using pymatgen
data_Gd2Al7N9
_symmetry_space_group_name_H-M   'P 1'
_cell_length_a   9.85721503
_cell_length_b   9.86026499
_cell_length_c   10.55675098
_cell_angle_alpha   91.12365023
_cell_angle_beta   90.69479363
_cell_angle_gamma   60.25152365
_symmetry_Int_Tables_number   1
_chemical_formula_structural   Gd2Al7N9
_chemical_formula_sum   'Gd8 Al28 N36'
_cell_volume   890.66360778
_cell_formula_units_Z   4
loop_
 _symmetry_equiv_pos_site_id
 _symmetry_equiv_pos_as_xyz
  1  'x, y, z'
loop_
 _atom_site_type_symbol
 _atom_site_label
 _atom_site_symmetry_multiplicity
 _atom_site_fract_x
 _atom_site_fract_y
 _atom_site_fract_z
 _atom_site_occupancy
  Al  Al0  1  0.11074800  0.09073403  0.32131231  1
  Al  Al1  1  0.22842881  0.21321128  0.04633158  1
  Al  Al2  1  0.89360842  0.19566896  0.56328173  1
  Al  Al3  1  0.55684341  0.22476805  0.11794595  1
  Al  Al4  1  0.11645837  0.09349331  0.80605218  1
  Al  Al5  1  0.21330082  0.20125033  0.57300182  1
  Al  Al6  1  0.80023494  0.08662655  0.29120297  1
  Al  Al7  1  0.90439133  0.22221389  0.05457101  1
  Al  Al8  1  0.43294637  0.09380618  0.80472522  1
  Al  Al9  1  0.54102308  0.20883030  0.63360369  1
  Al  Al10  1  0.21607612  0.54233839  0.04567872  1
  Al  Al11  1  0.79831153  0.42190847  0.80729849  1
  Al  Al12  1  0.88960770  0.52755312  0.57225454  1
  Al  Al13  1  0.43470545  0.43569421  0.37459627  1
  Al  Al14  1  0.56798123  0.54922555  0.04378027  1
  Al  Al15  1  0.11581470  0.42782571  0.80756428  1
  Al  Al16  1  0.21435283  0.52994565  0.55491288  1
  Al  Al17  1  0.89366301  0.54089001  0.03162298  1
  Al  Al18  1  0.43866748  0.43133845  0.87460919  1
  Al  Al19  1  0.10841419  0.75884960  0.30190835  1
  Al  Al20  1  0.77792065  0.75266841  0.81138296  1
  Al  Al21  1  0.43660592  0.76184264  0.31705126  1
  Al  Al22  1  0.56040506  0.88246298  0.04690843  1
  Al  Al23  1  0.12510228  0.75035227  0.80344979  1
  Al  Al24  1  0.22316851  0.87235322  0.56710206  1
  Al  Al25  1  0.90083908  0.85609867  0.04547761  1
  Al  Al26  1  0.43633633  0.77719386  0.81043484  1
  Al  Al27  1  0.54719119  0.86571713  0.57172244  1
  Gd  Gd28  1  0.77556584  0.10141977  0.84259548  1
  Gd  Gd29  1  0.45329298  0.10461787  0.34838720  1
  Gd  Gd30  1  0.10371161  0.41583411  0.29851401  1
  Gd  Gd31  1  0.75466850  0.41310663  0.30882122  1
  Gd  Gd32  1  0.54561678  0.53294073  0.59848286  1
  Gd  Gd33  1  0.22395064  0.88063476  0.07682750  1
  Gd  Gd34  1  0.88772043  0.86915288  0.56243560  1
  Gd  Gd35  1  0.76374916  0.75125820  0.29179759  1
  N  N36  1  0.20973700  0.19006766  0.39672172  1
  N  N37  1  0.10273366  0.13953266  0.13735547  1
  N  N38  1  0.91563829  0.22034269  0.87671423  1
  N  N39  1  0.76108416  0.11968327  0.62216216  1
  N  N40  1  0.58316549  0.24363686  0.29398841  1
  N  N41  1  0.44761574  0.10213521  0.10851051  1
  N  N42  1  0.22394983  0.20242848  0.86137004  1
  N  N43  1  0.10735150  0.08692753  0.62396514  1
  N  N44  1  0.90763497  0.16984289  0.38206154  1
  N  N45  1  0.79902666  0.09147712  0.09335575  1
  N  N46  1  0.51560520  0.22998383  0.81413813  1
  N  N47  1  0.44030394  0.08527374  0.61653292  1
  N  N48  1  0.21118469  0.55575914  0.37057044  1
  N  N49  1  0.11184864  0.43169381  0.08035277  1
  N  N50  1  0.89550792  0.53729732  0.85404378  1
  N  N51  1  0.80791616  0.40233058  0.62683020  1
  N  N52  1  0.51748496  0.56580802  0.38252617  1
  N  N53  1  0.44964405  0.43653107  0.05679290  1
  N  N54  1  0.21973471  0.54325108  0.86232349  1
  N  N55  1  0.11035959  0.42486872  0.62298102  1
  N  N56  1  0.87893574  0.53106690  0.39381394  1
  N  N57  1  0.78132837  0.43973845  0.09293766  1
  N  N58  1  0.55971366  0.54538685  0.85146369  1
  N  N59  1  0.42808758  0.38966397  0.54866054  1
  N  N60  1  0.21692371  0.87111150  0.34868820  1
  N  N61  1  0.10265224  0.74343967  0.11940294  1
  N  N62  1  0.91059306  0.84028167  0.85773428  1
  N  N63  1  0.75953903  0.74398544  0.62971879  1
  N  N64  1  0.53847001  0.86068925  0.39257822  1
  N  N65  1  0.48360675  0.75267765  0.12726973  1
  N  N66  1  0.21962381  0.87575698  0.86055905  1
  N  N67  1  0.14665696  0.73744420  0.62176126  1
  N  N68  1  0.88949170  0.88029028  0.34523710  1
  N  N69  1  0.78035585  0.76123537  0.07586362  1
  N  N70  1  0.55135670  0.88043868  0.86545682  1
  N  N71  1  0.42274516  0.79149124  0.63393739  1
