# generated using pymatgen
data_Gd2Al7N9
_symmetry_space_group_name_H-M   'P 1'
_cell_length_a   9.92991361
_cell_length_b   9.89256035
_cell_length_c   10.50833065
_cell_angle_alpha   89.67462713
_cell_angle_beta   90.42255875
_cell_angle_gamma   59.87040316
_symmetry_Int_Tables_number   1
_chemical_formula_structural   Gd2Al7N9
_chemical_formula_sum   'Gd8 Al28 N36'
_cell_volume   892.71442346
_cell_formula_units_Z   4
loop_
 _symmetry_equiv_pos_site_id
 _symmetry_equiv_pos_as_xyz
  1  'x, y, z'
loop_
 _atom_site_type_symbol
 _atom_site_label
 _atom_site_symmetry_multiplicity
 _atom_site_fract_x
 _atom_site_fract_y
 _atom_site_fract_z
 _atom_site_occupancy
  Al  Al0  1  0.11442370  0.08406498  0.40388006  1
  Al  Al1  1  0.21977603  0.20782109  0.14116817  1
  Al  Al2  1  0.89439134  0.22197908  0.65795316  1
  Al  Al3  1  0.55113153  0.21386634  0.14131570  1
  Al  Al4  1  0.11815188  0.10084882  0.89555152  1
  Al  Al5  1  0.21930400  0.20624182  0.66383753  1
  Al  Al6  1  0.80123510  0.07266334  0.30853350  1
  Al  Al7  1  0.90781481  0.20078027  0.13509551  1
  Al  Al8  1  0.43398573  0.10015104  0.90543640  1
  Al  Al9  1  0.52911189  0.21630537  0.66098841  1
  Al  Al10  1  0.22049780  0.54005497  0.14183757  1
  Al  Al11  1  0.79354367  0.42870623  0.90007477  1
  Al  Al12  1  0.89040270  0.53330660  0.66558842  1
  Al  Al13  1  0.43714378  0.43384720  0.39508104  1
  Al  Al14  1  0.56159878  0.53322071  0.06924381  1
  Al  Al15  1  0.11394637  0.42732597  0.89733572  1
  Al  Al16  1  0.21921842  0.53154005  0.65736629  1
  Al  Al17  1  0.89522907  0.53620895  0.13322217  1
  Al  Al18  1  0.42422726  0.43204452  0.90137867  1
  Al  Al19  1  0.13033960  0.75608833  0.41201404  1
  Al  Al20  1  0.77245691  0.76069424  0.85767114  1
  Al  Al21  1  0.43167737  0.77061271  0.41749503  1
  Al  Al22  1  0.55954301  0.86337087  0.13920581  1
  Al  Al23  1  0.11841027  0.75470654  0.89278986  1
  Al  Al24  1  0.22477335  0.87917686  0.65071608  1
  Al  Al25  1  0.88829587  0.85650772  0.06830109  1
  Al  Al26  1  0.44251014  0.76940866  0.89406685  1
  Al  Al27  1  0.54230503  0.88352533  0.66477715  1
  Gd  Gd28  1  0.76394152  0.12330218  0.88037234  1
  Gd  Gd29  1  0.45409840  0.09380329  0.39359415  1
  Gd  Gd30  1  0.12217663  0.42269438  0.40383615  1
  Gd  Gd31  1  0.77286434  0.40423805  0.37754558  1
  Gd  Gd32  1  0.54524150  0.53098837  0.63352248  1
  Gd  Gd33  1  0.22657394  0.86802930  0.15651548  1
  Gd  Gd34  1  0.88749906  0.89416294  0.62020038  1
  Gd  Gd35  1  0.77451251  0.74921982  0.38732061  1
  N  N36  1  0.21378174  0.18625197  0.32307204  1
  N  N37  1  0.10985063  0.11308208  0.07278581  1
  N  N38  1  0.91364586  0.22772994  0.83759012  1
  N  N39  1  0.74514120  0.15336396  0.65086085  1
  N  N40  1  0.57842539  0.22607879  0.31951435  1
  N  N41  1  0.44577143  0.09525919  0.09350957  1
  N  N42  1  0.22369774  0.20620846  0.84580107  1
  N  N43  1  0.10581618  0.09953210  0.59354380  1
  N  N44  1  0.92783037  0.15843329  0.31036043  1
  N  N45  1  0.78525510  0.08190419  0.11184889  1
  N  N46  1  0.50800065  0.22938149  0.84344381  1
  N  N47  1  0.43789328  0.09485411  0.61191423  1
  N  N48  1  0.23242490  0.55714916  0.32135645  1
  N  N49  1  0.11778268  0.42573106  0.08439656  1
  N  N50  1  0.89089432  0.54089676  0.85115567  1
  N  N51  1  0.80333997  0.42419082  0.59259500  1
  N  N52  1  0.52313946  0.55837810  0.40465359  1
  N  N53  1  0.44086075  0.42974041  0.08240077  1
  N  N54  1  0.21828402  0.54293531  0.83980371  1
  N  N55  1  0.10316563  0.42986407  0.62332464  1
  N  N56  1  0.89917248  0.51948172  0.30926167  1
  N  N57  1  0.78400803  0.41910796  0.08581291  1
  N  N58  1  0.55885599  0.53137091  0.87302886  1
  N  N59  1  0.40850322  0.40387615  0.57313858  1
  N  N60  1  0.22346423  0.87200056  0.37080274  1
  N  N61  1  0.10690966  0.74485715  0.07336605  1
  N  N62  1  0.89373743  0.85836394  0.87085530  1
  N  N63  1  0.76188331  0.75493099  0.63207171  1
  N  N64  1  0.53141061  0.85738351  0.31916013  1
  N  N65  1  0.46761914  0.75017825  0.07232478  1
  N  N66  1  0.22062810  0.87602427  0.84123191  1
  N  N67  1  0.15231066  0.73865740  0.59766307  1
  N  N68  1  0.90501101  0.88026082  0.39351020  1
  N  N69  1  0.77636830  0.75807765  0.10421399  1
  N  N70  1  0.54843800  0.88100454  0.84803013  1
  N  N71  1  0.43122320  0.79568016  0.60068223  1
