# generated using pymatgen
data_Gd2Al7N9
_symmetry_space_group_name_H-M   'P 1'
_cell_length_a   9.86462780
_cell_length_b   9.88258376
_cell_length_c   10.60774704
_cell_angle_alpha   91.35654708
_cell_angle_beta   90.79733934
_cell_angle_gamma   60.24627155
_symmetry_Int_Tables_number   1
_chemical_formula_structural   Gd2Al7N9
_chemical_formula_sum   'Gd8 Al28 N36'
_cell_volume   897.54102185
_cell_formula_units_Z   4
loop_
 _symmetry_equiv_pos_site_id
 _symmetry_equiv_pos_as_xyz
  1  'x, y, z'
loop_
 _atom_site_type_symbol
 _atom_site_label
 _atom_site_symmetry_multiplicity
 _atom_site_fract_x
 _atom_site_fract_y
 _atom_site_fract_z
 _atom_site_occupancy
  Al  Al0  1  0.11328030  0.08673522  0.31866114  1
  Al  Al1  1  0.22928018  0.21517557  0.04740028  1
  Al  Al2  1  0.89323071  0.19525171  0.56302653  1
  Al  Al3  1  0.56039697  0.22342925  0.12111505  1
  Al  Al4  1  0.10895928  0.10709594  0.81227208  1
  Al  Al5  1  0.21257893  0.19841169  0.57379522  1
  Al  Al6  1  0.80345134  0.08434923  0.29179798  1
  Al  Al7  1  0.90130931  0.22726535  0.05664478  1
  Al  Al8  1  0.43394542  0.09376875  0.80367097  1
  Al  Al9  1  0.53932044  0.20901286  0.62926261  1
  Al  Al10  1  0.22692226  0.53676874  0.08999210  1
  Al  Al11  1  0.79165838  0.42638716  0.80649609  1
  Al  Al12  1  0.89019832  0.52613707  0.57404614  1
  Al  Al13  1  0.42756407  0.43918108  0.36832824  1
  Al  Al14  1  0.56928196  0.54897866  0.04524793  1
  Al  Al15  1  0.11033282  0.42374467  0.82211834  1
  Al  Al16  1  0.22502987  0.51640646  0.62701714  1
  Al  Al17  1  0.88950785  0.54593800  0.03253657  1
  Al  Al18  1  0.43633226  0.43045527  0.87759455  1
  Al  Al19  1  0.11206984  0.75986531  0.28161212  1
  Al  Al20  1  0.77644375  0.75510876  0.80827539  1
  Al  Al21  1  0.43409628  0.76239870  0.31113152  1
  Al  Al22  1  0.56247122  0.88331341  0.04803780  1
  Al  Al23  1  0.11651470  0.74913915  0.81704464  1
  Al  Al24  1  0.22109259  0.87349973  0.64203323  1
  Al  Al25  1  0.89574306  0.86141323  0.04280113  1
  Al  Al26  1  0.44997570  0.76989704  0.81697701  1
  Al  Al27  1  0.54801840  0.86496535  0.56980966  1
  Gd  Gd28  1  0.77392699  0.10423243  0.83853948  1
  Gd  Gd29  1  0.45222621  0.10396582  0.34713261  1
  Gd  Gd30  1  0.10230288  0.40801580  0.29382979  1
  Gd  Gd31  1  0.75528889  0.41195719  0.31312249  1
  Gd  Gd32  1  0.54083585  0.53543495  0.59249007  1
  Gd  Gd33  1  0.22472739  0.88875411  0.07548269  1
  Gd  Gd34  1  0.89509429  0.86555767  0.55676721  1
  Gd  Gd35  1  0.76565995  0.74921527  0.29328570  1
  N  N36  1  0.20971585  0.18688775  0.39879040  1
  N  N37  1  0.09981583  0.14954840  0.13654912  1
  N  N38  1  0.90976393  0.22730340  0.87940713  1
  N  N39  1  0.76023091  0.11797830  0.61804841  1
  N  N40  1  0.58673708  0.24105476  0.29718767  1
  N  N41  1  0.44750354  0.10379552  0.11017738  1
  N  N42  1  0.22696052  0.19980848  0.86599631  1
  N  N43  1  0.10338837  0.09136891  0.63223571  1
  N  N44  1  0.91137785  0.16670701  0.38333185  1
  N  N45  1  0.79761486  0.09459795  0.09301980  1
  N  N46  1  0.51566868  0.23087413  0.81001623  1
  N  N47  1  0.43947140  0.08406228  0.61662772  1
  N  N48  1  0.23063808  0.54082520  0.29455141  1
  N  N49  1  0.10960488  0.43444658  0.07109611  1
  N  N50  1  0.88780402  0.54176098  0.85576894  1
  N  N51  1  0.80278245  0.40381037  0.62603758  1
  N  N52  1  0.51515639  0.56726479  0.38145886  1
  N  N53  1  0.45252545  0.43353993  0.05606831  1
  N  N54  1  0.22516509  0.53385648  0.83712354  1
  N  N55  1  0.10614722  0.41627166  0.63397622  1
  N  N56  1  0.88236632  0.53028284  0.39659814  1
  N  N57  1  0.78058165  0.44300948  0.09869984  1
  N  N58  1  0.56035453  0.54411098  0.85485698  1
  N  N59  1  0.41476152  0.39460607  0.54487046  1
  N  N60  1  0.21783374  0.87148364  0.30448536  1
  N  N61  1  0.10077473  0.75285653  0.09689282  1
  N  N62  1  0.90301024  0.84484766  0.85814519  1
  N  N63  1  0.76213516  0.74531065  0.62747280  1
  N  N64  1  0.53752851  0.85949922  0.39133355  1
  N  N65  1  0.48599479  0.75298400  0.12036426  1
  N  N66  1  0.21821473  0.87806941  0.84339450  1
  N  N67  1  0.14438325  0.73488139  0.63182600  1
  N  N68  1  0.89770290  0.87461739  0.33945689  1
  N  N69  1  0.78027570  0.76399658  0.07944262  1
  N  N70  1  0.55395658  0.88265351  0.86730166  1
  N  N71  1  0.43198798  0.78741340  0.64183639  1
