# generated using pymatgen
data_Gd2Al7N9
_symmetry_space_group_name_H-M   'P 1'
_cell_length_a   9.87604138
_cell_length_b   9.87375404
_cell_length_c   10.41985349
_cell_angle_alpha   90.28499949
_cell_angle_beta   90.41481348
_cell_angle_gamma   60.27634544
_symmetry_Int_Tables_number   1
_chemical_formula_structural   Gd2Al7N9
_chemical_formula_sum   'Gd8 Al28 N36'
_cell_volume   882.36474339
_cell_formula_units_Z   4
loop_
 _symmetry_equiv_pos_site_id
 _symmetry_equiv_pos_as_xyz
  1  'x, y, z'
loop_
 _atom_site_type_symbol
 _atom_site_label
 _atom_site_symmetry_multiplicity
 _atom_site_fract_x
 _atom_site_fract_y
 _atom_site_fract_z
 _atom_site_occupancy
  Al  Al0  1  0.10734416  0.09251753  0.31991821  1
  Al  Al1  1  0.22102912  0.21155030  0.04215828  1
  Al  Al2  1  0.89748795  0.19754192  0.56153419  1
  Al  Al3  1  0.54410122  0.21584277  0.05630596  1
  Al  Al4  1  0.11785995  0.09321750  0.80342828  1
  Al  Al5  1  0.21809471  0.20411789  0.57291344  1
  Al  Al6  1  0.78611426  0.09157465  0.30329771  1
  Al  Al7  1  0.89753887  0.21790354  0.05602580  1
  Al  Al8  1  0.43988417  0.09936963  0.80582122  1
  Al  Al9  1  0.55447963  0.21230817  0.56271122  1
  Al  Al10  1  0.22313061  0.53616989  0.04822499  1
  Al  Al11  1  0.79709238  0.42074898  0.81086655  1
  Al  Al12  1  0.89414841  0.52777682  0.57519172  1
  Al  Al13  1  0.43624368  0.44069593  0.31724147  1
  Al  Al14  1  0.56009762  0.54140061  0.04579257  1
  Al  Al15  1  0.11513475  0.42842919  0.80862995  1
  Al  Al16  1  0.22705086  0.53347686  0.56681902  1
  Al  Al17  1  0.89293134  0.53771173  0.03394267  1
  Al  Al18  1  0.43332309  0.42827515  0.81128288  1
  Al  Al19  1  0.11163901  0.75842400  0.30944628  1
  Al  Al20  1  0.77649042  0.75204921  0.81245404  1
  Al  Al21  1  0.43800773  0.75992296  0.31497963  1
  Al  Al22  1  0.55921288  0.87401351  0.04311994  1
  Al  Al23  1  0.12500314  0.75266667  0.80577040  1
  Al  Al24  1  0.22251604  0.87681287  0.55974029  1
  Al  Al25  1  0.89730190  0.85609460  0.04912455  1
  Al  Al26  1  0.43491903  0.77686921  0.80904564  1
  Al  Al27  1  0.54515704  0.87591435  0.57219069  1
  Gd  Gd28  1  0.77693523  0.10144747  0.82966647  1
  Gd  Gd29  1  0.44120059  0.09576870  0.31875267  1
  Gd  Gd30  1  0.10942574  0.42428555  0.30459531  1
  Gd  Gd31  1  0.76536951  0.41634206  0.30675649  1
  Gd  Gd32  1  0.55424043  0.54474079  0.58624220  1
  Gd  Gd33  1  0.22134079  0.87726455  0.07625821  1
  Gd  Gd34  1  0.88990880  0.86622822  0.56659791  1
  Gd  Gd35  1  0.76536311  0.75672999  0.29635352  1
  N  N36  1  0.20573154  0.19335588  0.39439882  1
  N  N37  1  0.09921950  0.13403858  0.13460333  1
  N  N38  1  0.91738652  0.21544290  0.87706676  1
  N  N39  1  0.76480837  0.11964874  0.61585496  1
  N  N40  1  0.57183977  0.22633141  0.37249934  1
  N  N41  1  0.44219893  0.09433908  0.09778562  1
  N  N42  1  0.22470103  0.20281434  0.85555519  1
  N  N43  1  0.11004720  0.08917443  0.62037066  1
  N  N44  1  0.90458560  0.17268079  0.37866663  1
  N  N45  1  0.78081642  0.09792551  0.10283405  1
  N  N46  1  0.52263519  0.22325480  0.87540480  1
  N  N47  1  0.44796063  0.09702304  0.61533240  1
  N  N48  1  0.22773957  0.55112963  0.38182628  1
  N  N49  1  0.11227333  0.42788797  0.08207278  1
  N  N50  1  0.89568569  0.53617525  0.85429467  1
  N  N51  1  0.81326870  0.40116952  0.62814510  1
  N  N52  1  0.52247038  0.55836149  0.37171371  1
  N  N53  1  0.44264136  0.43513724  0.11299853  1
  N  N54  1  0.22318950  0.54200070  0.86484120  1
  N  N55  1  0.11377020  0.42855540  0.62143373  1
  N  N56  1  0.88244337  0.53380523  0.39404218  1
  N  N57  1  0.77759869  0.43610066  0.08838339  1
  N  N58  1  0.55505033  0.54219079  0.85316266  1
  N  N59  1  0.43009613  0.41220259  0.63032608  1
  N  N60  1  0.21868219  0.87202719  0.35614183  1
  N  N61  1  0.10105236  0.73897771  0.12433029  1
  N  N62  1  0.90978579  0.84074415  0.85938350  1
  N  N63  1  0.75794080  0.74299990  0.62867873  1
  N  N64  1  0.53713306  0.85943051  0.39180344  1
  N  N65  1  0.47994800  0.74905902  0.12513127  1
  N  N66  1  0.21953324  0.87641139  0.86063747  1
  N  N67  1  0.14423673  0.74558207  0.62287932  1
  N  N68  1  0.89475824  0.87945521  0.35003549  1
  N  N69  1  0.77855223  0.75791399  0.07790909  1
  N  N70  1  0.55200385  0.87826530  0.86117630  1
  N  N71  1  0.42012713  0.79958305  0.63131164  1
