# generated using pymatgen
data_Gd2Al7N9
_symmetry_space_group_name_H-M   'P 1'
_cell_length_a   9.88422354
_cell_length_b   9.88246042
_cell_length_c   10.43687785
_cell_angle_alpha   90.22767060
_cell_angle_beta   90.39240116
_cell_angle_gamma   60.30049057
_symmetry_Int_Tables_number   1
_chemical_formula_structural   Gd2Al7N9
_chemical_formula_sum   'Gd8 Al28 N36'
_cell_volume   885.53486274
_cell_formula_units_Z   4
loop_
 _symmetry_equiv_pos_site_id
 _symmetry_equiv_pos_as_xyz
  1  'x, y, z'
loop_
 _atom_site_type_symbol
 _atom_site_label
 _atom_site_symmetry_multiplicity
 _atom_site_fract_x
 _atom_site_fract_y
 _atom_site_fract_z
 _atom_site_occupancy
  Al  Al0  1  0.10715540  0.09282797  0.31939113  1
  Al  Al1  1  0.22121004  0.21181763  0.04158631  1
  Al  Al2  1  0.89787803  0.19721087  0.56102777  1
  Al  Al3  1  0.54369185  0.21757616  0.05181883  1
  Al  Al4  1  0.11794255  0.09334959  0.80324847  1
  Al  Al5  1  0.21798310  0.20382245  0.57234131  1
  Al  Al6  1  0.78690888  0.09088075  0.30214146  1
  Al  Al7  1  0.89777587  0.21822702  0.05599633  1
  Al  Al8  1  0.43995464  0.09802797  0.80473208  1
  Al  Al9  1  0.55633433  0.20767793  0.56627103  1
  Al  Al10  1  0.22413876  0.53640329  0.04501922  1
  Al  Al11  1  0.79935327  0.42009885  0.81086024  1
  Al  Al12  1  0.89418752  0.52703703  0.57414009  1
  Al  Al13  1  0.43507424  0.43856516  0.36054207  1
  Al  Al14  1  0.56053473  0.54138696  0.04288641  1
  Al  Al15  1  0.11448897  0.42804986  0.80818984  1
  Al  Al16  1  0.22193965  0.53586870  0.57153887  1
  Al  Al17  1  0.89326729  0.53784610  0.03390911  1
  Al  Al18  1  0.43476688  0.42947274  0.81912075  1
  Al  Al19  1  0.11125384  0.75876235  0.30851124  1
  Al  Al20  1  0.77646985  0.75181784  0.81226278  1
  Al  Al21  1  0.43770896  0.75939555  0.31547584  1
  Al  Al22  1  0.55955954  0.87425560  0.04314104  1
  Al  Al23  1  0.12380483  0.75375468  0.80543187  1
  Al  Al24  1  0.22207361  0.87717382  0.55952795  1
  Al  Al25  1  0.89730439  0.85602812  0.04910318  1
  Al  Al26  1  0.43416658  0.77917888  0.80886465  1
  Al  Al27  1  0.54471410  0.87603546  0.57128366  1
  Gd  Gd28  1  0.77919125  0.10008717  0.82925565  1
  Gd  Gd29  1  0.44107707  0.09555636  0.31707216  1
  Gd  Gd30  1  0.10904765  0.42435171  0.30340628  1
  Gd  Gd31  1  0.76201459  0.41697162  0.30605803  1
  Gd  Gd32  1  0.55697228  0.54664725  0.59386655  1
  Gd  Gd33  1  0.22228604  0.87647088  0.07642960  1
  Gd  Gd34  1  0.88954681  0.86581489  0.56554083  1
  Gd  Gd35  1  0.76519845  0.75617377  0.29598134  1
  N  N36  1  0.20600847  0.19352800  0.39378351  1
  N  N37  1  0.09978610  0.13374201  0.13440598  1
  N  N38  1  0.91805012  0.21560926  0.87732184  1
  N  N39  1  0.76655296  0.11799128  0.61594782  1
  N  N40  1  0.57333803  0.22244591  0.37574451  1
  N  N41  1  0.44254699  0.09537416  0.09639289  1
  N  N42  1  0.22492341  0.20248423  0.85520386  1
  N  N43  1  0.10995319  0.08919117  0.62005001  1
  N  N44  1  0.90402185  0.17329963  0.37793725  1
  N  N45  1  0.78087455  0.09804455  0.10242051  1
  N  N46  1  0.52520516  0.21924068  0.86951961  1
  N  N47  1  0.44751786  0.09593457  0.61519723  1
  N  N48  1  0.22142247  0.55424142  0.38628743  1
  N  N49  1  0.11289120  0.42814326  0.08121142  1
  N  N50  1  0.89591930  0.53646527  0.85452229  1
  N  N51  1  0.81559782  0.39949684  0.62849018  1
  N  N52  1  0.52221851  0.55989292  0.37782775  1
  N  N53  1  0.44420281  0.43728052  0.08456730  1
  N  N54  1  0.22055699  0.54270538  0.86035102  1
  N  N55  1  0.11263961  0.42776202  0.62176661  1
  N  N56  1  0.88192583  0.53254751  0.39297857  1
  N  N57  1  0.77802465  0.43643148  0.08810581  1
  N  N58  1  0.55738011  0.54441208  0.84900410  1
  N  N59  1  0.43032664  0.41310665  0.62199755  1
  N  N60  1  0.21837995  0.87197059  0.35584138  1
  N  N61  1  0.10124377  0.73865446  0.12386757  1
  N  N62  1  0.90947554  0.84044544  0.85965576  1
  N  N63  1  0.75751181  0.74226425  0.62828504  1
  N  N64  1  0.53687648  0.85958783  0.39115638  1
  N  N65  1  0.48093746  0.74870095  0.12593810  1
  N  N66  1  0.21934988  0.87647482  0.86088483  1
  N  N67  1  0.14244412  0.74768535  0.62342590  1
  N  N68  1  0.89455094  0.87939873  0.34923380  1
  N  N69  1  0.77866149  0.75798590  0.07804717  1
  N  N70  1  0.55217735  0.87808433  0.86140699  1
  N  N71  1  0.41856054  0.80215274  0.63147967  1
