# generated using pymatgen
data_Gd2Al7N9
_symmetry_space_group_name_H-M   'P 1'
_cell_length_a   9.88526715
_cell_length_b   9.89790810
_cell_length_c   10.39749393
_cell_angle_alpha   90.04497322
_cell_angle_beta   90.20594519
_cell_angle_gamma   59.99465389
_symmetry_Int_Tables_number   1
_chemical_formula_structural   Gd2Al7N9
_chemical_formula_sum   'Gd8 Al28 N36'
_cell_volume   880.97712915
_cell_formula_units_Z   4
loop_
 _symmetry_equiv_pos_site_id
 _symmetry_equiv_pos_as_xyz
  1  'x, y, z'
loop_
 _atom_site_type_symbol
 _atom_site_label
 _atom_site_symmetry_multiplicity
 _atom_site_fract_x
 _atom_site_fract_y
 _atom_site_fract_z
 _atom_site_occupancy
  Al  Al0  1  0.11130249  0.08712886  0.40675472  1
  Al  Al1  1  0.21406671  0.21273598  0.13917175  1
  Al  Al2  1  0.89598006  0.21569951  0.64981708  1
  Al  Al3  1  0.55957600  0.21039930  0.14981160  1
  Al  Al4  1  0.11271138  0.10176487  0.89579266  1
  Al  Al5  1  0.22234072  0.20408088  0.66689141  1
  Al  Al6  1  0.78365242  0.09976222  0.39230780  1
  Al  Al7  1  0.89684347  0.19820888  0.14843019  1
  Al  Al8  1  0.43880925  0.09943378  0.90283552  1
  Al  Al9  1  0.53805188  0.21212349  0.65043640  1
  Al  Al10  1  0.22099880  0.53925030  0.14263067  1
  Al  Al11  1  0.78409453  0.42642424  0.90490086  1
  Al  Al12  1  0.88727645  0.53578640  0.67312021  1
  Al  Al13  1  0.43585125  0.43576327  0.39290738  1
  Al  Al14  1  0.55829755  0.53562276  0.11410342  1
  Al  Al15  1  0.11494110  0.42700087  0.89604929  1
  Al  Al16  1  0.22368642  0.53120241  0.66185755  1
  Al  Al17  1  0.89636062  0.53735826  0.13046325  1
  Al  Al18  1  0.43688171  0.42965217  0.90346937  1
  Al  Al19  1  0.12783973  0.75655808  0.40351002  1
  Al  Al20  1  0.77914660  0.75902883  0.90719660  1
  Al  Al21  1  0.42905118  0.77090356  0.41036170  1
  Al  Al22  1  0.55728203  0.86832591  0.13632729  1
  Al  Al23  1  0.11355835  0.75345902  0.90247195  1
  Al  Al24  1  0.22437203  0.87750845  0.65109113  1
  Al  Al25  1  0.89311156  0.86930604  0.15391759  1
  Al  Al26  1  0.44851402  0.76038401  0.89606137  1
  Al  Al27  1  0.54958682  0.87665222  0.66618592  1
  Gd  Gd28  1  0.77661499  0.09939234  0.89463889  1
  Gd  Gd29  1  0.44309745  0.09556560  0.39202370  1
  Gd  Gd30  1  0.11790618  0.42808544  0.40994049  1
  Gd  Gd31  1  0.77736694  0.41790495  0.37871513  1
  Gd  Gd32  1  0.54791138  0.53460032  0.63772046  1
  Gd  Gd33  1  0.22754990  0.87457132  0.15268107  1
  Gd  Gd34  1  0.89354884  0.87056099  0.63690806  1
  Gd  Gd35  1  0.76563019  0.75926699  0.39025901  1
  N  N36  1  0.20253539  0.19431841  0.32280149  1
  N  N37  1  0.09768937  0.12038094  0.07560698  1
  N  N38  1  0.90446005  0.22226369  0.83289479  1
  N  N39  1  0.75779701  0.13489877  0.58969803  1
  N  N40  1  0.57155926  0.22560781  0.33041498  1
  N  N41  1  0.44554826  0.09783594  0.09416732  1
  N  N42  1  0.22508293  0.20375010  0.84956847  1
  N  N43  1  0.11164173  0.09743524  0.59619378  1
  N  N44  1  0.91526240  0.16758608  0.32875794  1
  N  N45  1  0.78143927  0.09067003  0.10858375  1
  N  N46  1  0.52356019  0.22386973  0.83619535  1
  N  N47  1  0.44206217  0.09086543  0.61305879  1
  N  N48  1  0.23069960  0.55448007  0.32337575  1
  N  N49  1  0.11763578  0.42720520  0.08378834  1
  N  N50  1  0.88622610  0.54064523  0.86147994  1
  N  N51  1  0.80541487  0.42184514  0.59597154  1
  N  N52  1  0.52156647  0.56175994  0.36771142  1
  N  N53  1  0.44448692  0.42697505  0.08796670  1
  N  N54  1  0.22569717  0.54034967  0.84640834  1
  N  N55  1  0.10513518  0.42967598  0.63352520  1
  N  N56  1  0.89965876  0.53467051  0.30776381  1
  N  N57  1  0.78069372  0.41945771  0.09605685  1
  N  N58  1  0.55909344  0.53208879  0.86278967  1
  N  N59  1  0.41403164  0.40810368  0.57462596  1
  N  N60  1  0.21893215  0.87618513  0.36863443  1
  N  N61  1  0.10042844  0.75041285  0.08524288  1
  N  N62  1  0.90217406  0.84514382  0.84982484  1
  N  N63  1  0.76073219  0.74451747  0.61088158  1
  N  N64  1  0.52649985  0.86091089  0.31470067  1
  N  N65  1  0.47191435  0.74654566  0.07466249  1
  N  N66  1  0.22104093  0.87348878  0.84521729  1
  N  N67  1  0.15034774  0.73685247  0.59041068  1
  N  N68  1  0.90559662  0.87832304  0.34968365  1
  N  N69  1  0.77802470  0.76564380  0.09619134  1
  N  N70  1  0.55632149  0.87581819  0.85210249  1
  N  N71  1  0.43194649  0.79317528  0.59642825  1
