# generated using pymatgen
data_Gd2Al7N9
_symmetry_space_group_name_H-M   'P 1'
_cell_length_a   9.80970947
_cell_length_b   9.90292910
_cell_length_c   10.81298908
_cell_angle_alpha   90.93455414
_cell_angle_beta   90.71725247
_cell_angle_gamma   59.27411567
_symmetry_Int_Tables_number   1
_chemical_formula_structural   Gd2Al7N9
_chemical_formula_sum   'Gd8 Al28 N36'
_cell_volume   902.83824101
_cell_formula_units_Z   4
loop_
 _symmetry_equiv_pos_site_id
 _symmetry_equiv_pos_as_xyz
  1  'x, y, z'
loop_
 _atom_site_type_symbol
 _atom_site_label
 _atom_site_symmetry_multiplicity
 _atom_site_fract_x
 _atom_site_fract_y
 _atom_site_fract_z
 _atom_site_occupancy
  Al  Al0  1  0.12060514  0.08360025  0.41717502  1
  Al  Al1  1  0.21596816  0.21331558  0.15466117  1
  Al  Al2  1  0.87951254  0.20868876  0.58295862  1
  Al  Al3  1  0.55516361  0.21848059  0.13972339  1
  Al  Al4  1  0.11958507  0.09671146  0.90561828  1
  Al  Al5  1  0.21809177  0.19048816  0.66505926  1
  Al  Al6  1  0.79940666  0.09387845  0.31680515  1
  Al  Al7  1  0.89333300  0.21857014  0.07283567  1
  Al  Al8  1  0.42197064  0.11638972  0.90244832  1
  Al  Al9  1  0.51741745  0.21535688  0.65573765  1
  Al  Al10  1  0.21949943  0.54305537  0.14778480  1
  Al  Al11  1  0.79397326  0.42322484  0.83028585  1
  Al  Al12  1  0.87854372  0.53639078  0.60387098  1
  Al  Al13  1  0.44344573  0.43240561  0.39205200  1
  Al  Al14  1  0.57096218  0.53308938  0.05655115  1
  Al  Al15  1  0.10618093  0.42928021  0.83064417  1
  Al  Al16  1  0.21436808  0.53831393  0.65447606  1
  Al  Al17  1  0.90165799  0.53102365  0.06192605  1
  Al  Al18  1  0.42240928  0.43418407  0.90099943  1
  Al  Al19  1  0.13322502  0.76073837  0.40999394  1
  Al  Al20  1  0.78359599  0.75037153  0.84488592  1
  Al  Al21  1  0.44392563  0.76658559  0.43395539  1
  Al  Al22  1  0.56315758  0.87500201  0.06555980  1
  Al  Al23  1  0.11909950  0.75439562  0.89621324  1
  Al  Al24  1  0.21440529  0.87913894  0.65786794  1
  Al  Al25  1  0.89193045  0.86874866  0.06006637  1
  Al  Al26  1  0.43613034  0.76571240  0.88819925  1
  Al  Al27  1  0.54110921  0.87662835  0.67523715  1
  Gd  Gd28  1  0.76392033  0.11264209  0.85263514  1
  Gd  Gd29  1  0.47100604  0.07749644  0.39813445  1
  Gd  Gd30  1  0.15144322  0.41268175  0.41590062  1
  Gd  Gd31  1  0.77011622  0.43498259  0.33586705  1
  Gd  Gd32  1  0.53631536  0.52481389  0.63169055  1
  Gd  Gd33  1  0.23665699  0.86642254  0.16401505  1
  Gd  Gd34  1  0.86790871  0.87918761  0.59093860  1
  Gd  Gd35  1  0.81182103  0.73837420  0.30385995  1
  N  N36  1  0.21913541  0.17749386  0.33118652  1
  N  N37  1  0.11765503  0.10951171  0.08296541  1
  N  N38  1  0.89950319  0.22540584  0.89747922  1
  N  N39  1  0.74162091  0.13871807  0.64049080  1
  N  N40  1  0.57162463  0.23018369  0.31358827  1
  N  N41  1  0.44555925  0.10442290  0.08406357  1
  N  N42  1  0.21489916  0.20372910  0.84173153  1
  N  N43  1  0.10869316  0.09207837  0.60049107  1
  N  N44  1  0.89736892  0.18744251  0.40298550  1
  N  N45  1  0.79406776  0.09205426  0.11776114  1
  N  N46  1  0.49862252  0.23587823  0.83320760  1
  N  N47  1  0.43825183  0.08343127  0.61428583  1
  N  N48  1  0.23617117  0.56543134  0.32233617  1
  N  N49  1  0.10785249  0.43381697  0.13111467  1
  N  N50  1  0.89439059  0.53396036  0.88669668  1
  N  N51  1  0.80161679  0.40912152  0.65495094  1
  N  N52  1  0.53502926  0.55000594  0.42105584  1
  N  N53  1  0.44383526  0.43196777  0.07685783  1
  N  N54  1  0.21837692  0.54752655  0.83141421  1
  N  N55  1  0.10333292  0.42394719  0.64749537  1
  N  N56  1  0.89744849  0.53901594  0.43309837  1
  N  N57  1  0.77989127  0.43543006  0.11849837  1
  N  N58  1  0.55806965  0.53079917  0.86926000  1
  N  N59  1  0.39637819  0.39771500  0.56142467  1
  N  N60  1  0.23193905  0.87195854  0.37559513  1
  N  N61  1  0.11420912  0.74515347  0.07338101  1
  N  N62  1  0.89644843  0.85418588  0.87711974  1
  N  N63  1  0.76176415  0.74286306  0.66986034  1
  N  N64  1  0.56658798  0.83362195  0.35640549  1
  N  N65  1  0.46841817  0.75267629  0.06289177  1
  N  N66  1  0.21335667  0.87728968  0.84164852  1
  N  N67  1  0.13990708  0.74244669  0.59227610  1
  N  N68  1  0.90230257  0.88848287  0.38007207  1
  N  N69  1  0.78219808  0.76164541  0.09021957  1
  N  N70  1  0.54470829  0.88574054  0.86552378  1
  N  N71  1  0.42789162  0.78763503  0.61725851  1
