# generated using pymatgen
data_Gd2Al7N9
_symmetry_space_group_name_H-M   'P 1'
_cell_length_a   9.82726029
_cell_length_b   9.92752633
_cell_length_c   10.75987664
_cell_angle_alpha   90.02094571
_cell_angle_beta   90.04729659
_cell_angle_gamma   58.81553134
_symmetry_Int_Tables_number   1
_chemical_formula_structural   Gd2Al7N9
_chemical_formula_sum   'Gd8 Al28 N36'
_cell_volume   898.05518662
_cell_formula_units_Z   4
loop_
 _symmetry_equiv_pos_site_id
 _symmetry_equiv_pos_as_xyz
  1  'x, y, z'
loop_
 _atom_site_type_symbol
 _atom_site_label
 _atom_site_symmetry_multiplicity
 _atom_site_fract_x
 _atom_site_fract_y
 _atom_site_fract_z
 _atom_site_occupancy
  Al  Al0  1  0.11409969  0.08713517  0.40493550  1
  Al  Al1  1  0.21619361  0.21045310  0.15446095  1
  Al  Al2  1  0.89217610  0.21517378  0.66372642  1
  Al  Al3  1  0.54651746  0.21412679  0.14117004  1
  Al  Al4  1  0.11546671  0.10043152  0.90176165  1
  Al  Al5  1  0.22275065  0.19102525  0.66459652  1
  Al  Al6  1  0.79681397  0.08793479  0.30921067  1
  Al  Al7  1  0.90268103  0.20656402  0.13283709  1
  Al  Al8  1  0.42868645  0.10017510  0.90826058  1
  Al  Al9  1  0.52098935  0.21729428  0.66049195  1
  Al  Al10  1  0.21507126  0.54034196  0.14835479  1
  Al  Al11  1  0.78483378  0.43756308  0.83380444  1
  Al  Al12  1  0.88027428  0.54479285  0.60329412  1
  Al  Al13  1  0.44274436  0.43108842  0.39256229  1
  Al  Al14  1  0.56479510  0.53043605  0.05970650  1
  Al  Al15  1  0.10675117  0.42709819  0.83222932  1
  Al  Al16  1  0.21610030  0.53930804  0.65620959  1
  Al  Al17  1  0.89639176  0.53047970  0.06275724  1
  Al  Al18  1  0.41740468  0.43322031  0.90241333  1
  Al  Al19  1  0.13637701  0.76122711  0.41546145  1
  Al  Al20  1  0.77496744  0.75681944  0.84260956  1
  Al  Al21  1  0.44616215  0.76504479  0.41679627  1
  Al  Al22  1  0.55814402  0.85960300  0.13522881  1
  Al  Al23  1  0.11623543  0.75690128  0.89250310  1
  Al  Al24  1  0.22170731  0.88182916  0.65207201  1
  Al  Al25  1  0.88344638  0.86210547  0.05473446  1
  Al  Al26  1  0.43780404  0.77139744  0.89649671  1
  Al  Al27  1  0.54197090  0.87953855  0.67064474  1
  Gd  Gd28  1  0.75599602  0.12530711  0.87873382  1
  Gd  Gd29  1  0.48144737  0.06309153  0.39536338  1
  Gd  Gd30  1  0.16262106  0.40077394  0.42321928  1
  Gd  Gd31  1  0.77126529  0.44083549  0.33590862  1
  Gd  Gd32  1  0.53202255  0.53336025  0.62812273  1
  Gd  Gd33  1  0.21903213  0.86853793  0.15944510  1
  Gd  Gd34  1  0.87463572  0.89411005  0.60812037  1
  Gd  Gd35  1  0.84422308  0.72754233  0.30614988  1
  N  N36  1  0.23037636  0.17110175  0.33125015  1
  N  N37  1  0.11144592  0.11404677  0.07594083  1
  N  N38  1  0.91110163  0.21915644  0.84306436  1
  N  N39  1  0.74006624  0.15249843  0.65268896  1
  N  N40  1  0.56830808  0.22588622  0.31604535  1
  N  N41  1  0.44428766  0.09444176  0.09325327  1
  N  N42  1  0.22045571  0.20020876  0.84207240  1
  N  N43  1  0.10155605  0.10100527  0.59199408  1
  N  N44  1  0.92180612  0.17546014  0.31212068  1
  N  N45  1  0.78482895  0.08537616  0.11184065  1
  N  N46  1  0.49535905  0.23265397  0.83887649  1
  N  N47  1  0.44086514  0.08873606  0.60888995  1
  N  N48  1  0.22877068  0.56717757  0.32474151  1
  N  N49  1  0.10256231  0.43318411  0.13405060  1
  N  N50  1  0.89219183  0.53848953  0.88741793  1
  N  N51  1  0.79021204  0.43255241  0.65471388  1
  N  N52  1  0.53309280  0.54916232  0.41356963  1
  N  N53  1  0.43810001  0.42864947  0.07930700  1
  N  N54  1  0.21467824  0.54857108  0.83284490  1
  N  N55  1  0.10485253  0.42557470  0.64916576  1
  N  N56  1  0.90660538  0.53203712  0.43228673  1
  N  N57  1  0.77690145  0.42998565  0.11368015  1
  N  N58  1  0.55386557  0.53215113  0.87335574  1
  N  N59  1  0.39826752  0.40054917  0.56375291  1
  N  N60  1  0.23174724  0.87209521  0.37025714  1
  N  N61  1  0.10566136  0.74237079  0.07109157  1
  N  N62  1  0.88983529  0.86075101  0.87255448  1
  N  N63  1  0.76541556  0.75236885  0.66237584  1
  N  N64  1  0.57339211  0.82190980  0.31613757  1
  N  N65  1  0.46137201  0.75165096  0.07114512  1
  N  N66  1  0.21725785  0.87627993  0.83933294  1
  N  N67  1  0.14950343  0.74328393  0.59565728  1
  N  N68  1  0.90177724  0.89531950  0.39265643  1
  N  N69  1  0.77837864  0.75710316  0.09616507  1
  N  N70  1  0.54136023  0.88216829  0.85053508  1
  N  N71  1  0.43188581  0.79673679  0.59716725  1
