# generated using pymatgen
data_Gd2Al7N9
_symmetry_space_group_name_H-M   'P 1'
_cell_length_a   9.77573572
_cell_length_b   9.92258704
_cell_length_c   10.79092085
_cell_angle_alpha   89.97627518
_cell_angle_beta   89.71747166
_cell_angle_gamma   59.01073238
_symmetry_Int_Tables_number   1
_chemical_formula_structural   Gd2Al7N9
_chemical_formula_sum   'Gd8 Al28 N36'
_cell_volume   897.30632167
_cell_formula_units_Z   4
loop_
 _symmetry_equiv_pos_site_id
 _symmetry_equiv_pos_as_xyz
  1  'x, y, z'
loop_
 _atom_site_type_symbol
 _atom_site_label
 _atom_site_symmetry_multiplicity
 _atom_site_fract_x
 _atom_site_fract_y
 _atom_site_fract_z
 _atom_site_occupancy
  Al  Al0  1  0.12285605  0.08374657  0.41505586  1
  Al  Al1  1  0.21381921  0.21288689  0.15632163  1
  Al  Al2  1  0.87905784  0.21328506  0.58198525  1
  Al  Al3  1  0.55258891  0.21464257  0.14000494  1
  Al  Al4  1  0.11909786  0.09763989  0.90459202  1
  Al  Al5  1  0.22182332  0.19002383  0.66584017  1
  Al  Al6  1  0.79926937  0.09612146  0.31799152  1
  Al  Al7  1  0.88868916  0.21985336  0.07047716  1
  Al  Al8  1  0.42856154  0.10209492  0.90817108  1
  Al  Al9  1  0.51864220  0.21740580  0.65462484  1
  Al  Al10  1  0.21611276  0.54004099  0.14645460  1
  Al  Al11  1  0.78974365  0.42638127  0.82932359  1
  Al  Al12  1  0.88068391  0.53847327  0.60400421  1
  Al  Al13  1  0.44536470  0.43300389  0.39024344  1
  Al  Al14  1  0.56385731  0.53303232  0.05773023  1
  Al  Al15  1  0.10652362  0.42770366  0.83115125  1
  Al  Al16  1  0.21663812  0.53950308  0.65561230  1
  Al  Al17  1  0.89450170  0.53281120  0.05901270  1
  Al  Al18  1  0.42130112  0.43178109  0.90013856  1
  Al  Al19  1  0.13785247  0.76087077  0.41233485  1
  Al  Al20  1  0.77359858  0.75460409  0.84407205  1
  Al  Al21  1  0.44877588  0.76546129  0.41407852  1
  Al  Al22  1  0.55701065  0.86267264  0.13260850  1
  Al  Al23  1  0.11689373  0.75401719  0.89240832  1
  Al  Al24  1  0.22046656  0.88176174  0.65396020  1
  Al  Al25  1  0.88182666  0.86875056  0.05264512  1
  Al  Al26  1  0.43807038  0.77131794  0.89499353  1
  Al  Al27  1  0.54056343  0.87954144  0.66993113  1
  Gd  Gd28  1  0.76216255  0.11600301  0.85157818  1
  Gd  Gd29  1  0.48112954  0.06564131  0.39184351  1
  Gd  Gd30  1  0.16218568  0.40392097  0.42412856  1
  Gd  Gd31  1  0.77855375  0.43703624  0.33133109  1
  Gd  Gd32  1  0.53319484  0.53574180  0.62665613  1
  Gd  Gd33  1  0.21835118  0.86789552  0.15765498  1
  Gd  Gd34  1  0.87363356  0.88172339  0.59741019  1
  Gd  Gd35  1  0.84799441  0.72405104  0.29783965  1
  N  N36  1  0.22607192  0.17543976  0.33258652  1
  N  N37  1  0.11324018  0.11274319  0.08326233  1
  N  N38  1  0.89852254  0.22703232  0.89538785  1
  N  N39  1  0.74278747  0.14203809  0.64042975  1
  N  N40  1  0.56899378  0.22864659  0.31481877  1
  N  N41  1  0.44500798  0.09745369  0.09261142  1
  N  N42  1  0.21834335  0.20169634  0.84272968  1
  N  N43  1  0.10987791  0.09557157  0.59828648  1
  N  N44  1  0.89793160  0.18959007  0.40066104  1
  N  N45  1  0.79173389  0.08990006  0.11598366  1
  N  N46  1  0.49712297  0.23229552  0.83478366  1
  N  N47  1  0.44042289  0.08781897  0.60621117  1
  N  N48  1  0.23177565  0.56710529  0.32247869  1
  N  N49  1  0.09895796  0.43617862  0.13454022  1
  N  N50  1  0.89110350  0.53561107  0.88407756  1
  N  N51  1  0.79940930  0.41345313  0.65318473  1
  N  N52  1  0.53831634  0.54975012  0.41179519  1
  N  N53  1  0.43927950  0.42873650  0.07674731  1
  N  N54  1  0.21710077  0.54688608  0.83145790  1
  N  N55  1  0.10604833  0.42415662  0.64868297  1
  N  N56  1  0.90447349  0.53777211  0.43321184  1
  N  N57  1  0.77429666  0.43464888  0.11565405  1
  N  N58  1  0.55406784  0.53400512  0.86976364  1
  N  N59  1  0.39949458  0.40290885  0.56206491  1
  N  N60  1  0.23207880  0.87382546  0.36757872  1
  N  N61  1  0.10470113  0.74165118  0.06981742  1
  N  N62  1  0.89198542  0.85588370  0.87077376  1
  N  N63  1  0.76372581  0.74502466  0.66446163  1
  N  N64  1  0.57345251  0.82596238  0.31276304  1
  N  N65  1  0.46098150  0.75316555  0.06880969  1
  N  N66  1  0.21552190  0.87681840  0.84010154  1
  N  N67  1  0.14806193  0.74318478  0.59335481  1
  N  N68  1  0.90412777  0.89132118  0.38436118  1
  N  N69  1  0.77640259  0.76044253  0.08918007  1
  N  N70  1  0.53865204  0.88538182  0.84927199  1
  N  N71  1  0.43114779  0.79630390  0.59542113  1
