# generated using pymatgen
data_Gd2Al7N9
_symmetry_space_group_name_H-M   'P 1'
_cell_length_a   9.84849850
_cell_length_b   9.88777777
_cell_length_c   10.60624464
_cell_angle_alpha   91.32180272
_cell_angle_beta   91.00951312
_cell_angle_gamma   60.15301335
_symmetry_Int_Tables_number   1
_chemical_formula_structural   Gd2Al7N9
_chemical_formula_sum   'Gd8 Al28 N36'
_cell_volume   895.57526909
_cell_formula_units_Z   4
loop_
 _symmetry_equiv_pos_site_id
 _symmetry_equiv_pos_as_xyz
  1  'x, y, z'
loop_
 _atom_site_type_symbol
 _atom_site_label
 _atom_site_symmetry_multiplicity
 _atom_site_fract_x
 _atom_site_fract_y
 _atom_site_fract_z
 _atom_site_occupancy
  Al  Al0  1  0.11268093  0.08937711  0.31794620  1
  Al  Al1  1  0.23170325  0.21765277  0.04796688  1
  Al  Al2  1  0.89115699  0.19574423  0.56311524  1
  Al  Al3  1  0.56145574  0.22166163  0.12039829  1
  Al  Al4  1  0.10872955  0.10660288  0.81177202  1
  Al  Al5  1  0.21050221  0.19791820  0.57469331  1
  Al  Al6  1  0.80512439  0.08408324  0.29110468  1
  Al  Al7  1  0.90230262  0.22890683  0.05700098  1
  Al  Al8  1  0.43447135  0.09206843  0.80388768  1
  Al  Al9  1  0.53601466  0.20995131  0.62902018  1
  Al  Al10  1  0.23166897  0.53954811  0.10636233  1
  Al  Al11  1  0.79051479  0.42716685  0.80608884  1
  Al  Al12  1  0.88780556  0.52461732  0.57371529  1
  Al  Al13  1  0.42750947  0.43827099  0.36818706  1
  Al  Al14  1  0.57031450  0.54838292  0.04430500  1
  Al  Al15  1  0.11058499  0.42286423  0.81735936  1
  Al  Al16  1  0.22028553  0.52237657  0.62905078  1
  Al  Al17  1  0.89383125  0.54505760  0.03325758  1
  Al  Al18  1  0.43330855  0.43059207  0.87687866  1
  Al  Al19  1  0.11952318  0.76121725  0.32045913  1
  Al  Al20  1  0.77523050  0.75386922  0.80756791  1
  Al  Al21  1  0.43644458  0.76229952  0.31022345  1
  Al  Al22  1  0.56465974  0.88257549  0.04882915  1
  Al  Al23  1  0.11780521  0.74568824  0.86619178  1
  Al  Al24  1  0.21589226  0.86969113  0.64351619  1
  Al  Al25  1  0.89395852  0.86399222  0.04296072  1
  Al  Al26  1  0.44863885  0.76949600  0.81680492  1
  Al  Al27  1  0.54625700  0.86263359  0.57103824  1
  Gd  Gd28  1  0.77405097  0.10568297  0.83595361  1
  Gd  Gd29  1  0.45483091  0.10499816  0.35460997  1
  Gd  Gd30  1  0.10272051  0.40661382  0.29546091  1
  Gd  Gd31  1  0.75238673  0.41267354  0.31374333  1
  Gd  Gd32  1  0.53243522  0.53659616  0.59352122  1
  Gd  Gd33  1  0.22751843  0.89276908  0.07738466  1
  Gd  Gd34  1  0.89179585  0.86501450  0.56233160  1
  Gd  Gd35  1  0.76643093  0.74922176  0.29429285  1
  N  N36  1  0.21091949  0.18573863  0.39933494  1
  N  N37  1  0.10020653  0.15442697  0.13847951  1
  N  N38  1  0.91008801  0.22816641  0.88017249  1
  N  N39  1  0.75670337  0.12075771  0.61684602  1
  N  N40  1  0.58749857  0.24214251  0.29586268  1
  N  N41  1  0.45013332  0.10195311  0.11129345  1
  N  N42  1  0.22726493  0.19948957  0.86657111  1
  N  N43  1  0.10162708  0.09066259  0.63269357  1
  N  N44  1  0.91185238  0.16689372  0.38299373  1
  N  N45  1  0.80059597  0.09287694  0.09424382  1
  N  N46  1  0.51477095  0.23039917  0.81033961  1
  N  N47  1  0.43922918  0.08219647  0.61695843  1
  N  N48  1  0.23090698  0.54684753  0.28769928  1
  N  N49  1  0.11507426  0.43642737  0.07310348  1
  N  N50  1  0.88904664  0.54080210  0.85661363  1
  N  N51  1  0.79747510  0.40507075  0.62524385  1
  N  N52  1  0.51157138  0.56894814  0.38215379  1
  N  N53  1  0.45218106  0.43281096  0.05538353  1
  N  N54  1  0.22771817  0.53513723  0.81484150  1
  N  N55  1  0.10339123  0.41509275  0.63188674  1
  N  N56  1  0.88245731  0.52893280  0.39548427  1
  N  N57  1  0.78191613  0.44380189  0.09985134  1
  N  N58  1  0.55981211  0.54381846  0.85569443  1
  N  N59  1  0.40883449  0.39146523  0.54031084  1
  N  N60  1  0.21848250  0.87355073  0.29962633  1
  N  N61  1  0.11275115  0.74632279  0.05422257  1
  N  N62  1  0.89713362  0.84770948  0.85425985  1
  N  N63  1  0.76016190  0.74164106  0.62775898  1
  N  N64  1  0.53779382  0.85936163  0.39203433  1
  N  N65  1  0.48892205  0.75175753  0.12184822  1
  N  N66  1  0.21643585  0.87631583  0.84193066  1
  N  N67  1  0.14933321  0.73250204  0.59143476  1
  N  N68  1  0.90032195  0.87373934  0.33954412  1
  N  N69  1  0.78365994  0.76303589  0.08131101  1
  N  N70  1  0.55352936  0.88109439  0.86846208  1
  N  N71  1  0.42865617  0.78786505  0.64278051  1
