# generated using pymatgen
data_Gd2Al7N9
_symmetry_space_group_name_H-M   'P 1'
_cell_length_a   9.91039569
_cell_length_b   9.91280985
_cell_length_c   10.75348617
_cell_angle_alpha   90.88294636
_cell_angle_beta   90.97775543
_cell_angle_gamma   59.43815082
_symmetry_Int_Tables_number   1
_chemical_formula_structural   Gd2Al7N9
_chemical_formula_sum   'Gd8 Al28 N36'
_cell_volume   909.50361174
_cell_formula_units_Z   4
loop_
 _symmetry_equiv_pos_site_id
 _symmetry_equiv_pos_as_xyz
  1  'x, y, z'
loop_
 _atom_site_type_symbol
 _atom_site_label
 _atom_site_symmetry_multiplicity
 _atom_site_fract_x
 _atom_site_fract_y
 _atom_site_fract_z
 _atom_site_occupancy
  Al  Al0  1  0.11478813  0.07701495  0.43406898  1
  Al  Al1  1  0.23573458  0.21315808  0.09907299  1
  Al  Al2  1  0.87816861  0.20601536  0.59123180  1
  Al  Al3  1  0.56062374  0.21661472  0.14630472  1
  Al  Al4  1  0.11996099  0.09592775  0.89618363  1
  Al  Al5  1  0.20787813  0.20125866  0.61888125  1
  Al  Al6  1  0.80599078  0.08691373  0.31961557  1
  Al  Al7  1  0.90013034  0.21706571  0.07191958  1
  Al  Al8  1  0.42973465  0.09431398  0.82166020  1
  Al  Al9  1  0.52930594  0.21580478  0.65595536  1
  Al  Al10  1  0.22837058  0.54091289  0.14476071  1
  Al  Al11  1  0.79650264  0.42248407  0.83100355  1
  Al  Al12  1  0.87672548  0.53586799  0.59516783  1
  Al  Al13  1  0.44152101  0.43881977  0.39270576  1
  Al  Al14  1  0.57382610  0.53231266  0.05579093  1
  Al  Al15  1  0.10467694  0.42732359  0.82169572  1
  Al  Al16  1  0.21808515  0.53059909  0.64581875  1
  Al  Al17  1  0.90001588  0.53467814  0.06586711  1
  Al  Al18  1  0.42268842  0.43019545  0.89978825  1
  Al  Al19  1  0.13321155  0.76043935  0.40672362  1
  Al  Al20  1  0.77712401  0.75140433  0.83657703  1
  Al  Al21  1  0.42694265  0.77280957  0.44015210  1
  Al  Al22  1  0.56310385  0.88285834  0.05956792  1
  Al  Al23  1  0.11948923  0.74797534  0.89415046  1
  Al  Al24  1  0.21605014  0.87371743  0.66770132  1
  Al  Al25  1  0.89534916  0.85930407  0.06349240  1
  Al  Al26  1  0.44287545  0.76574816  0.88768324  1
  Al  Al27  1  0.55403923  0.86558559  0.60713348  1
  Gd  Gd28  1  0.76292565  0.10951253  0.86366858  1
  Gd  Gd29  1  0.45465232  0.11267925  0.40033824  1
  Gd  Gd30  1  0.11705622  0.43416650  0.37183058  1
  Gd  Gd31  1  0.76000284  0.42230316  0.33494884  1
  Gd  Gd32  1  0.53662149  0.52530620  0.63495557  1
  Gd  Gd33  1  0.23535285  0.86531046  0.15513958  1
  Gd  Gd34  1  0.88098618  0.87529659  0.59881361  1
  Gd  Gd35  1  0.76729897  0.76686471  0.31812747  1
  N  N36  1  0.21028345  0.19316716  0.42828663  1
  N  N37  1  0.12265770  0.11164613  0.08090425  1
  N  N38  1  0.90160630  0.22247739  0.89567829  1
  N  N39  1  0.74654231  0.13351125  0.64592180  1
  N  N40  1  0.58565214  0.24068171  0.31725942  1
  N  N41  1  0.45539691  0.09513741  0.13005801  1
  N  N42  1  0.21512774  0.20680281  0.84557665  1
  N  N43  1  0.10000252  0.08303482  0.61589253  1
  N  N44  1  0.89947869  0.17986156  0.40945095  1
  N  N45  1  0.80115617  0.08652308  0.11847175  1
  N  N46  1  0.50424776  0.23398244  0.83179692  1
  N  N47  1  0.44209744  0.08453682  0.63846664  1
  N  N48  1  0.24290124  0.56774701  0.31848171  1
  N  N49  1  0.11475136  0.42804953  0.13655538  1
  N  N50  1  0.89575748  0.53494663  0.88755981  1
  N  N51  1  0.80065801  0.41059306  0.65365094  1
  N  N52  1  0.52962322  0.55964165  0.42057821  1
  N  N53  1  0.44697418  0.42858844  0.07641012  1
  N  N54  1  0.22135868  0.54224657  0.82679947  1
  N  N55  1  0.09566682  0.43173105  0.63956501  1
  N  N56  1  0.87306407  0.54740314  0.42006454  1
  N  N57  1  0.78310945  0.43255151  0.11834148  1
  N  N58  1  0.56120923  0.52982770  0.87039516  1
  N  N59  1  0.40443302  0.39069029  0.55848854  1
  N  N60  1  0.22682634  0.87733685  0.36831263  1
  N  N61  1  0.11510873  0.73923084  0.07083336  1
  N  N62  1  0.89727669  0.84827056  0.87519013  1
  N  N63  1  0.76250006  0.74255211  0.66099567  1
  N  N64  1  0.55020865  0.86434878  0.42664303  1
  N  N65  1  0.47359149  0.75156444  0.06925144  1
  N  N66  1  0.21744828  0.87129759  0.84914327  1
  N  N67  1  0.14914143  0.73615323  0.58969906  1
  N  N68  1  0.90499807  0.87884447  0.38166447  1
  N  N69  1  0.78188990  0.76018170  0.10321300  1
  N  N70  1  0.55286563  0.88376251  0.87965946  1
  N  N71  1  0.42355187  0.78569388  0.62477594  1
