# generated using pymatgen
data_Gd2Al7N9
_symmetry_space_group_name_H-M   'P 1'
_cell_length_a   9.86584529
_cell_length_b   9.87479393
_cell_length_c   10.61931106
_cell_angle_alpha   91.33776313
_cell_angle_beta   90.77585352
_cell_angle_gamma   60.25086712
_symmetry_Int_Tables_number   1
_chemical_formula_structural   Gd2Al7N9
_chemical_formula_sum   'Gd8 Al28 N36'
_cell_volume   897.97064230
_cell_formula_units_Z   4
loop_
 _symmetry_equiv_pos_site_id
 _symmetry_equiv_pos_as_xyz
  1  'x, y, z'
loop_
 _atom_site_type_symbol
 _atom_site_label
 _atom_site_symmetry_multiplicity
 _atom_site_fract_x
 _atom_site_fract_y
 _atom_site_fract_z
 _atom_site_occupancy
  Al  Al0  1  0.11324983  0.08695282  0.31843645  1
  Al  Al1  1  0.22863781  0.21518503  0.04776104  1
  Al  Al2  1  0.89346498  0.19505783  0.56292375  1
  Al  Al3  1  0.55947100  0.22444718  0.12123491  1
  Al  Al4  1  0.10898077  0.10713160  0.81252256  1
  Al  Al5  1  0.21338663  0.19728204  0.57346818  1
  Al  Al6  1  0.80323049  0.08442733  0.29173302  1
  Al  Al7  1  0.90141634  0.22688608  0.05655024  1
  Al  Al8  1  0.43365311  0.09396938  0.80386635  1
  Al  Al9  1  0.54041919  0.20792177  0.63007967  1
  Al  Al10  1  0.22047898  0.53985067  0.05774896  1
  Al  Al11  1  0.79231829  0.42612442  0.80669806  1
  Al  Al12  1  0.88946816  0.52687252  0.57359250  1
  Al  Al13  1  0.42914356  0.43889680  0.36879680  1
  Al  Al14  1  0.56911296  0.54880759  0.04588411  1
  Al  Al15  1  0.11149540  0.42506358  0.82031197  1
  Al  Al16  1  0.22060870  0.51851259  0.59993479  1
  Al  Al17  1  0.88936713  0.54546909  0.03262420  1
  Al  Al18  1  0.43941597  0.42983600  0.87709486  1
  Al  Al19  1  0.11310848  0.75703699  0.28291731  1
  Al  Al20  1  0.77665495  0.75520083  0.80853092  1
  Al  Al21  1  0.43397767  0.76255322  0.31132091  1
  Al  Al22  1  0.56237283  0.88339673  0.04806841  1
  Al  Al23  1  0.11723167  0.74714787  0.81671301  1
  Al  Al24  1  0.22156960  0.87291808  0.64287951  1
  Al  Al25  1  0.89590855  0.86141579  0.04380547  1
  Al  Al26  1  0.45004745  0.76993998  0.81703794  1
  Al  Al27  1  0.54792085  0.86515491  0.56967701  1
  Gd  Gd28  1  0.77417584  0.10377751  0.83916424  1
  Gd  Gd29  1  0.45191028  0.10416803  0.34650495  1
  Gd  Gd30  1  0.10293868  0.41052303  0.29384178  1
  Gd  Gd31  1  0.75617242  0.41169736  0.31249480  1
  Gd  Gd32  1  0.54225453  0.53518989  0.59238716  1
  Gd  Gd33  1  0.22456641  0.88769053  0.07635255  1
  Gd  Gd34  1  0.89525257  0.86560282  0.55625560  1
  Gd  Gd35  1  0.76548931  0.74927628  0.29318081  1
  N  N36  1  0.20945572  0.18740585  0.39887454  1
  N  N37  1  0.09989932  0.14834602  0.13589382  1
  N  N38  1  0.90979751  0.22698517  0.87937769  1
  N  N39  1  0.76118477  0.11705761  0.61865695  1
  N  N40  1  0.58646515  0.24116533  0.29692490  1
  N  N41  1  0.44722392  0.10390910  0.10998819  1
  N  N42  1  0.22649550  0.20093539  0.86566910  1
  N  N43  1  0.10358390  0.09105637  0.63240013  1
  N  N44  1  0.91135935  0.16659111  0.38353773  1
  N  N45  1  0.79766625  0.09450744  0.09300786  1
  N  N46  1  0.51538403  0.23126193  0.80991378  1
  N  N47  1  0.43942210  0.08409630  0.61702587  1
  N  N48  1  0.22312085  0.54544868  0.32032662  1
  N  N49  1  0.10843516  0.43395680  0.07355229  1
  N  N50  1  0.88883389  0.54139797  0.85551266  1
  N  N51  1  0.80392601  0.40346676  0.62652892  1
  N  N52  1  0.51645649  0.56713267  0.38136204  1
  N  N53  1  0.45296942  0.43375255  0.05664624  1
  N  N54  1  0.22201871  0.53729927  0.86021199  1
  N  N55  1  0.10784695  0.41796182  0.63366262  1
  N  N56  1  0.88175335  0.53037429  0.39686194  1
  N  N57  1  0.78048067  0.44283847  0.09818915  1
  N  N58  1  0.56071280  0.54400397  0.85451471  1
  N  N59  1  0.42062894  0.39164471  0.54534622  1
  N  N60  1  0.21773257  0.87137972  0.30430933  1
  N  N61  1  0.10082482  0.75087679  0.09987394  1
  N  N62  1  0.90368948  0.84448575  0.85850619  1
  N  N63  1  0.76211547  0.74577480  0.62764238  1
  N  N64  1  0.53747502  0.85970960  0.39153355  1
  N  N65  1  0.48598888  0.75313963  0.12030766  1
  N  N66  1  0.21809828  0.87766292  0.84308529  1
  N  N67  1  0.14642644  0.73118261  0.63396173  1
  N  N68  1  0.89642883  0.87541535  0.33971042  1
  N  N69  1  0.78015892  0.76387739  0.07922108  1
  N  N70  1  0.55397374  0.88273489  0.86731963  1
  N  N71  1  0.43209882  0.78739304  0.64199051  1
