# generated using pymatgen
data_Gd2Al7N9
_symmetry_space_group_name_H-M   'P 1'
_cell_length_a   9.90519188
_cell_length_b   9.90487057
_cell_length_c   10.44444363
_cell_angle_alpha   89.86208630
_cell_angle_beta   90.65827476
_cell_angle_gamma   59.89153809
_symmetry_Int_Tables_number   1
_chemical_formula_structural   Gd2Al7N9
_chemical_formula_sum   'Gd8 Al28 N36'
_cell_volume   886.34726579
_cell_formula_units_Z   4
loop_
 _symmetry_equiv_pos_site_id
 _symmetry_equiv_pos_as_xyz
  1  'x, y, z'
loop_
 _atom_site_type_symbol
 _atom_site_label
 _atom_site_symmetry_multiplicity
 _atom_site_fract_x
 _atom_site_fract_y
 _atom_site_fract_z
 _atom_site_occupancy
  Al  Al0  1  0.11249791  0.08793371  0.40723047  1
  Al  Al1  1  0.21730470  0.21044636  0.14037145  1
  Al  Al2  1  0.89323770  0.21680686  0.65152591  1
  Al  Al3  1  0.55639538  0.21338079  0.14657298  1
  Al  Al4  1  0.11494428  0.10072298  0.89658776  1
  Al  Al5  1  0.22014738  0.20505929  0.66601437  1
  Al  Al6  1  0.78924640  0.09275485  0.35291346  1
  Al  Al7  1  0.90178042  0.19996202  0.14452904  1
  Al  Al8  1  0.43798534  0.09900712  0.90437937  1
  Al  Al9  1  0.53609969  0.21114447  0.65537779  1
  Al  Al10  1  0.22321661  0.53842589  0.14217788  1
  Al  Al11  1  0.79368052  0.42355663  0.89995570  1
  Al  Al12  1  0.88517801  0.53764875  0.66905061  1
  Al  Al13  1  0.43467773  0.43548700  0.39953324  1
  Al  Al14  1  0.56294516  0.53259016  0.06937709  1
  Al  Al15  1  0.11399933  0.42731625  0.89594226  1
  Al  Al16  1  0.21929361  0.53204781  0.66029091  1
  Al  Al17  1  0.89747463  0.53558483  0.13099276  1
  Al  Al18  1  0.43049938  0.42701229  0.90081655  1
  Al  Al19  1  0.13136527  0.75509441  0.40431479  1
  Al  Al20  1  0.77910063  0.76007752  0.90576062  1
  Al  Al21  1  0.42843284  0.77318003  0.42039588  1
  Al  Al22  1  0.55885661  0.86590284  0.13748670  1
  Al  Al23  1  0.11243442  0.75467366  0.90114410  1
  Al  Al24  1  0.22108511  0.87988808  0.65212932  1
  Al  Al25  1  0.89677769  0.86378854  0.14816653  1
  Al  Al26  1  0.44450665  0.76861061  0.89182657  1
  Al  Al27  1  0.54854491  0.87906210  0.66687441  1
  Gd  Gd28  1  0.77541091  0.10317619  0.89215689  1
  Gd  Gd29  1  0.44838643  0.09357772  0.39349921  1
  Gd  Gd30  1  0.11943129  0.42632179  0.40814337  1
  Gd  Gd31  1  0.76845453  0.42047377  0.37705122  1
  Gd  Gd32  1  0.54502901  0.53288501  0.63566794  1
  Gd  Gd33  1  0.23313935  0.86919680  0.15494719  1
  Gd  Gd34  1  0.88999973  0.87560358  0.63577948  1
  Gd  Gd35  1  0.76915745  0.75627946  0.38948709  1
  N  N36  1  0.20801320  0.19162921  0.32359853  1
  N  N37  1  0.10336973  0.11610609  0.07613850  1
  N  N38  1  0.90840277  0.22190551  0.83412320  1
  N  N39  1  0.75276967  0.13861111  0.61575008  1
  N  N40  1  0.57163167  0.22902463  0.32730935  1
  N  N41  1  0.44676926  0.09653159  0.09513374  1
  N  N42  1  0.22454388  0.20432736  0.84898130  1
  N  N43  1  0.10830339  0.09924987  0.59551398  1
  N  N44  1  0.91853577  0.17056094  0.32457031  1
  N  N45  1  0.78238253  0.09068438  0.11356164  1
  N  N46  1  0.52011504  0.22301116  0.84006728  1
  N  N47  1  0.43905314  0.09230433  0.61284909  1
  N  N48  1  0.23324659  0.55410496  0.32233325  1
  N  N49  1  0.11860357  0.42629748  0.08397373  1
  N  N50  1  0.88718284  0.54287723  0.85720482  1
  N  N51  1  0.80330870  0.42264062  0.59491110  1
  N  N52  1  0.51812319  0.56218261  0.40637583  1
  N  N53  1  0.44356519  0.42790985  0.08384211  1
  N  N54  1  0.22147811  0.54200083  0.84409928  1
  N  N55  1  0.10159453  0.43086118  0.62989828  1
  N  N56  1  0.89835812  0.53124662  0.30764996  1
  N  N57  1  0.78494803  0.41859959  0.08939288  1
  N  N58  1  0.55974272  0.53037086  0.87322317  1
  N  N59  1  0.40848623  0.40457869  0.57753823  1
  N  N60  1  0.22026898  0.87667514  0.37013240  1
  N  N61  1  0.10304757  0.74902977  0.08283446  1
  N  N62  1  0.90009704  0.84843056  0.85004915  1
  N  N63  1  0.75748779  0.74844525  0.60884418  1
  N  N64  1  0.52815495  0.85676109  0.31657181  1
  N  N65  1  0.47254413  0.74851888  0.07058809  1
  N  N66  1  0.21887847  0.87490083  0.84465664  1
  N  N67  1  0.14845701  0.73842266  0.59001975  1
  N  N68  1  0.91011697  0.87327247  0.34208061  1
  N  N69  1  0.77918515  0.76349032  0.09465040  1
  N  N70  1  0.55667843  0.87788403  0.85164380  1
  N  N71  1  0.42861024  0.79678973  0.60550698  1
