# generated using pymatgen
data_Gd2Al7N9
_symmetry_space_group_name_H-M   'P 1'
_cell_length_a   9.85417808
_cell_length_b   9.86641104
_cell_length_c   10.50123319
_cell_angle_alpha   90.75244374
_cell_angle_beta   90.86738944
_cell_angle_gamma   60.56641696
_symmetry_Int_Tables_number   1
_chemical_formula_structural   Gd2Al7N9
_chemical_formula_sum   'Gd8 Al28 N36'
_cell_volume   889.08254235
_cell_formula_units_Z   4
loop_
 _symmetry_equiv_pos_site_id
 _symmetry_equiv_pos_as_xyz
  1  'x, y, z'
loop_
 _atom_site_type_symbol
 _atom_site_label
 _atom_site_symmetry_multiplicity
 _atom_site_fract_x
 _atom_site_fract_y
 _atom_site_fract_z
 _atom_site_occupancy
  Al  Al0  1  0.10840645  0.09199805  0.32269855  1
  Al  Al1  1  0.22317557  0.21385659  0.04241769  1
  Al  Al2  1  0.89480551  0.19759170  0.56120882  1
  Al  Al3  1  0.55403137  0.21635250  0.07662502  1
  Al  Al4  1  0.11831749  0.09349954  0.80365745  1
  Al  Al5  1  0.21615197  0.20316530  0.57374046  1
  Al  Al6  1  0.79149292  0.08761752  0.29142219  1
  Al  Al7  1  0.90299272  0.22009426  0.05569358  1
  Al  Al8  1  0.43902308  0.09589740  0.81356672  1
  Al  Al9  1  0.54737575  0.20366151  0.60595539  1
  Al  Al10  1  0.21777324  0.54303816  0.04757829  1
  Al  Al11  1  0.80004883  0.42086035  0.80964587  1
  Al  Al12  1  0.88960337  0.52732448  0.57306536  1
  Al  Al13  1  0.43394975  0.43250866  0.37959859  1
  Al  Al14  1  0.56738019  0.54996090  0.04608455  1
  Al  Al15  1  0.11600167  0.42854218  0.80729450  1
  Al  Al16  1  0.21259917  0.53549671  0.55960458  1
  Al  Al17  1  0.89521984  0.53959586  0.03277847  1
  Al  Al18  1  0.44021953  0.43400551  0.87648373  1
  Al  Al19  1  0.10904399  0.75858800  0.30467949  1
  Al  Al20  1  0.77916743  0.75155469  0.81144938  1
  Al  Al21  1  0.43696443  0.76089077  0.32091621  1
  Al  Al22  1  0.56285505  0.87557197  0.04353564  1
  Al  Al23  1  0.12603323  0.75110280  0.80300415  1
  Al  Al24  1  0.22182631  0.87529136  0.55891094  1
  Al  Al25  1  0.90078527  0.85629440  0.04694303  1
  Al  Al26  1  0.43493690  0.77962180  0.80836325  1
  Al  Al27  1  0.54530437  0.87274063  0.57271993  1
  Gd  Gd28  1  0.78318430  0.09779247  0.83533768  1
  Gd  Gd29  1  0.44427145  0.09894035  0.31725754  1
  Gd  Gd30  1  0.10099696  0.41940365  0.30180893  1
  Gd  Gd31  1  0.75130441  0.41170559  0.30767534  1
  Gd  Gd32  1  0.54855245  0.54027017  0.59913884  1
  Gd  Gd33  1  0.22582247  0.87950790  0.07640083  1
  Gd  Gd34  1  0.88738129  0.86869433  0.56069803  1
  Gd  Gd35  1  0.76205436  0.75080880  0.29389636  1
  N  N36  1  0.20954194  0.19170377  0.39702639  1
  N  N37  1  0.10294088  0.13653420  0.13749461  1
  N  N38  1  0.91947816  0.21874408  0.87780719  1
  N  N39  1  0.75978715  0.12075760  0.61824585  1
  N  N40  1  0.57629472  0.23474619  0.30862606  1
  N  N41  1  0.44442312  0.09552224  0.09541831  1
  N  N42  1  0.22440813  0.20365301  0.85789113  1
  N  N43  1  0.10758149  0.08799710  0.62144366  1
  N  N44  1  0.90545938  0.16873432  0.38017531  1
  N  N45  1  0.79457963  0.09243477  0.09385756  1
  N  N46  1  0.52812517  0.21885960  0.86562960  1
  N  N47  1  0.44282857  0.09107655  0.62479434  1
  N  N48  1  0.21147317  0.55573201  0.37498528  1
  N  N49  1  0.11393467  0.43012490  0.08153231  1
  N  N50  1  0.89726037  0.53682013  0.85445079  1
  N  N51  1  0.80982764  0.40066641  0.62865228  1
  N  N52  1  0.51638833  0.56377394  0.38213274  1
  N  N53  1  0.44661206  0.44383652  0.06237575  1
  N  N54  1  0.22181512  0.54270439  0.86126322  1
  N  N55  1  0.10978311  0.42699683  0.62238146  1
  N  N56  1  0.87531436  0.52937712  0.39402996  1
  N  N57  1  0.78213135  0.43797874  0.09206275  1
  N  N58  1  0.56027046  0.54698518  0.85155668  1
  N  N59  1  0.42559325  0.40264691  0.56392870  1
  N  N60  1  0.21713787  0.87212930  0.35681180  1
  N  N61  1  0.10343120  0.74382922  0.12108169  1
  N  N62  1  0.91288097  0.83845060  0.85859173  1
  N  N63  1  0.75902854  0.74366827  0.62882645  1
  N  N64  1  0.53723999  0.86358029  0.39379951  1
  N  N65  1  0.48499690  0.75183066  0.13024999  1
  N  N66  1  0.22053897  0.87645669  0.86069365  1
  N  N67  1  0.14310124  0.74317595  0.62100878  1
  N  N68  1  0.89101497  0.87819001  0.34418900  1
  N  N69  1  0.78161880  0.75899067  0.07664636  1
  N  N70  1  0.55392929  0.87685745  0.86318430  1
  N  N71  1  0.41920569  0.79798678  0.63153676  1
