# generated using pymatgen
data_Gd2Al7N9
_symmetry_space_group_name_H-M   'P 1'
_cell_length_a   9.84981331
_cell_length_b   9.89530877
_cell_length_c   10.60004616
_cell_angle_alpha   91.36390513
_cell_angle_beta   90.98211925
_cell_angle_gamma   60.16678562
_symmetry_Int_Tables_number   1
_chemical_formula_structural   Gd2Al7N9
_chemical_formula_sum   'Gd8 Al28 N36'
_cell_volume   895.96699712
_cell_formula_units_Z   4
loop_
 _symmetry_equiv_pos_site_id
 _symmetry_equiv_pos_as_xyz
  1  'x, y, z'
loop_
 _atom_site_type_symbol
 _atom_site_label
 _atom_site_symmetry_multiplicity
 _atom_site_fract_x
 _atom_site_fract_y
 _atom_site_fract_z
 _atom_site_occupancy
  Al  Al0  1  0.11296152  0.08853628  0.31825996  1
  Al  Al1  1  0.23168033  0.21708976  0.04802355  1
  Al  Al2  1  0.89113321  0.19571535  0.56298228  1
  Al  Al3  1  0.56200487  0.22152055  0.12070940  1
  Al  Al4  1  0.10847199  0.10750534  0.81223971  1
  Al  Al5  1  0.21067306  0.19834162  0.57473664  1
  Al  Al6  1  0.80441700  0.08457499  0.29105637  1
  Al  Al7  1  0.90196139  0.22887756  0.05719989  1
  Al  Al8  1  0.43476936  0.09212803  0.80381390  1
  Al  Al9  1  0.53652366  0.20982844  0.62885777  1
  Al  Al10  1  0.23333152  0.53563915  0.10460273  1
  Al  Al11  1  0.79026129  0.42716460  0.80618307  1
  Al  Al12  1  0.88815588  0.52487378  0.57402968  1
  Al  Al13  1  0.42622157  0.43935345  0.36834069  1
  Al  Al14  1  0.57038838  0.54856654  0.04469156  1
  Al  Al15  1  0.11027745  0.42201978  0.81979194  1
  Al  Al16  1  0.22141310  0.51986118  0.63256314  1
  Al  Al17  1  0.89304223  0.54538209  0.03318333  1
  Al  Al18  1  0.43464401  0.42950136  0.87764026  1
  Al  Al19  1  0.11331551  0.76331454  0.28602891  1
  Al  Al20  1  0.77600948  0.75390492  0.80780780  1
  Al  Al21  1  0.43501055  0.76264874  0.31084763  1
  Al  Al22  1  0.56481120  0.88248795  0.04873160  1
  Al  Al23  1  0.11752616  0.74793996  0.84219002  1
  Al  Al24  1  0.21707745  0.87199926  0.64394011  1
  Al  Al25  1  0.89522454  0.86297048  0.04314793  1
  Al  Al26  1  0.44959797  0.76944037  0.81710758  1
  Al  Al27  1  0.54696801  0.86314385  0.57087903  1
  Gd  Gd28  1  0.77481297  0.10454101  0.83603409  1
  Gd  Gd29  1  0.45446869  0.10475584  0.35347137  1
  Gd  Gd30  1  0.10234615  0.40635107  0.29494049  1
  Gd  Gd31  1  0.75237165  0.41269592  0.31408855  1
  Gd  Gd32  1  0.53328672  0.53669667  0.59367592  1
  Gd  Gd33  1  0.22806472  0.89344028  0.07564848  1
  Gd  Gd34  1  0.89440401  0.86416373  0.55803189  1
  Gd  Gd35  1  0.76567661  0.74876846  0.29368319  1
  N  N36  1  0.21066179  0.18600187  0.39945804  1
  N  N37  1  0.10012065  0.15443096  0.13832589  1
  N  N38  1  0.90959390  0.22829949  0.88001058  1
  N  N39  1  0.75767809  0.11896889  0.61640538  1
  N  N40  1  0.58706616  0.24232811  0.29655718  1
  N  N41  1  0.45004401  0.10207351  0.11118400  1
  N  N42  1  0.22771708  0.19887088  0.86669336  1
  N  N43  1  0.10161575  0.09128261  0.63295259  1
  N  N44  1  0.91156550  0.16701578  0.38312099  1
  N  N45  1  0.79981825  0.09383121  0.09378773  1
  N  N46  1  0.51589276  0.22973780  0.81032084  1
  N  N47  1  0.43917824  0.08267624  0.61687708  1
  N  N48  1  0.23159708  0.54403036  0.28716176  1
  N  N49  1  0.11440023  0.43583753  0.07152992  1
  N  N50  1  0.88832588  0.54097861  0.85644511  1
  N  N51  1  0.79768651  0.40497494  0.62529542  1
  N  N52  1  0.51163870  0.56892113  0.38252525  1
  N  N53  1  0.45340603  0.43218642  0.05560511  1
  N  N54  1  0.22840006  0.53143626  0.82037274  1
  N  N55  1  0.10348474  0.41486637  0.63320386  1
  N  N56  1  0.88240172  0.52912521  0.39596657  1
  N  N57  1  0.78190128  0.44381443  0.09995979  1
  N  N58  1  0.55956779  0.54405000  0.85559474  1
  N  N59  1  0.40844405  0.39323110  0.54188041  1
  N  N60  1  0.21809361  0.87365548  0.30027652  1
  N  N61  1  0.10947664  0.75011931  0.07654527  1
  N  N62  1  0.89937928  0.84620132  0.85759003  1
  N  N63  1  0.76126544  0.74288760  0.62766097  1
  N  N64  1  0.53752536  0.85946810  0.39205032  1
  N  N65  1  0.48899531  0.75181046  0.12161470  1
  N  N66  1  0.21750645  0.87775413  0.84395636  1
  N  N67  1  0.14457560  0.73498709  0.61787697  1
  N  N68  1  0.90007589  0.87360900  0.33672056  1
  N  N69  1  0.78320986  0.76298984  0.08077074  1
  N  N70  1  0.55408846  0.88132949  0.86812633  1
  N  N71  1  0.42929848  0.78810627  0.64268591  1
