# generated using pymatgen
data_Gd2Al7N9
_symmetry_space_group_name_H-M   'P 1'
_cell_length_a   9.90246976
_cell_length_b   9.91413156
_cell_length_c   10.76324041
_cell_angle_alpha   90.83778091
_cell_angle_beta   90.93987612
_cell_angle_gamma   59.41311028
_symmetry_Int_Tables_number   1
_chemical_formula_structural   Gd2Al7N9
_chemical_formula_sum   'Gd8 Al28 N36'
_cell_volume   909.50068695
_cell_formula_units_Z   4
loop_
 _symmetry_equiv_pos_site_id
 _symmetry_equiv_pos_as_xyz
  1  'x, y, z'
loop_
 _atom_site_type_symbol
 _atom_site_label
 _atom_site_symmetry_multiplicity
 _atom_site_fract_x
 _atom_site_fract_y
 _atom_site_fract_z
 _atom_site_occupancy
  Al  Al0  1  0.11611883  0.07875166  0.42981850  1
  Al  Al1  1  0.23356258  0.21145736  0.12508489  1
  Al  Al2  1  0.87883654  0.20567385  0.58953693  1
  Al  Al3  1  0.56025468  0.21632487  0.14638689  1
  Al  Al4  1  0.12134525  0.09664606  0.89831826  1
  Al  Al5  1  0.20592387  0.19976529  0.64169973  1
  Al  Al6  1  0.80554402  0.08674042  0.31955904  1
  Al  Al7  1  0.90020014  0.21695643  0.07200154  1
  Al  Al8  1  0.43096173  0.09363550  0.82289561  1
  Al  Al9  1  0.52895100  0.21596854  0.65560047  1
  Al  Al10  1  0.22739269  0.54062871  0.14515843  1
  Al  Al11  1  0.79654953  0.42214284  0.83144074  1
  Al  Al12  1  0.87490641  0.53668746  0.59542458  1
  Al  Al13  1  0.44265348  0.43905526  0.39146403  1
  Al  Al14  1  0.57373587  0.53199854  0.05589786  1
  Al  Al15  1  0.10348668  0.42957121  0.82233892  1
  Al  Al16  1  0.21851595  0.53125936  0.64645966  1
  Al  Al17  1  0.90112559  0.53421850  0.06655223  1
  Al  Al18  1  0.42274450  0.43009109  0.90014451  1
  Al  Al19  1  0.13308629  0.76069472  0.40629991  1
  Al  Al20  1  0.77687469  0.75175651  0.83720523  1
  Al  Al21  1  0.42752785  0.77226913  0.43966267  1
  Al  Al22  1  0.56246251  0.88326198  0.05997923  1
  Al  Al23  1  0.11917229  0.74881091  0.89409208  1
  Al  Al24  1  0.21607064  0.87420343  0.66638147  1
  Al  Al25  1  0.89526142  0.85934460  0.06361640  1
  Al  Al26  1  0.44256027  0.76560299  0.88752275  1
  Al  Al27  1  0.55374468  0.86542861  0.60669478  1
  Gd  Gd28  1  0.76327985  0.10964829  0.86367200  1
  Gd  Gd29  1  0.45438015  0.11380181  0.40264494  1
  Gd  Gd30  1  0.11941516  0.43825919  0.38371497  1
  Gd  Gd31  1  0.76276671  0.42118042  0.33438909  1
  Gd  Gd32  1  0.53742665  0.52467304  0.63430456  1
  Gd  Gd33  1  0.23557109  0.86429041  0.15593774  1
  Gd  Gd34  1  0.87983551  0.87545490  0.59797929  1
  Gd  Gd35  1  0.76687944  0.76645014  0.31758308  1
  N  N36  1  0.20976205  0.19074072  0.39371135  1
  N  N37  1  0.12398641  0.11184848  0.08057388  1
  N  N38  1  0.90258503  0.22196534  0.89597150  1
  N  N39  1  0.74680060  0.13367598  0.64606161  1
  N  N40  1  0.58547093  0.24060592  0.31686217  1
  N  N41  1  0.45629329  0.09426575  0.13044907  1
  N  N42  1  0.21223793  0.20520311  0.83087946  1
  N  N43  1  0.10287490  0.08388895  0.61072845  1
  N  N44  1  0.89911432  0.17893955  0.40954147  1
  N  N45  1  0.80147429  0.08633783  0.11830404  1
  N  N46  1  0.50356904  0.23402469  0.83146571  1
  N  N47  1  0.44046892  0.08523442  0.63730380  1
  N  N48  1  0.24422080  0.56859267  0.31747432  1
  N  N49  1  0.11353964  0.42999947  0.13735897  1
  N  N50  1  0.89578015  0.53491256  0.88767726  1
  N  N51  1  0.80175961  0.40939888  0.65436215  1
  N  N52  1  0.53157056  0.55876085  0.42066539  1
  N  N53  1  0.44716992  0.42821930  0.07610151  1
  N  N54  1  0.22089257  0.54232254  0.82674378  1
  N  N55  1  0.09602079  0.43150601  0.63717093  1
  N  N56  1  0.87179671  0.54809209  0.42115685  1
  N  N57  1  0.78325541  0.43236612  0.11783543  1
  N  N58  1  0.56107018  0.52959158  0.87021713  1
  N  N59  1  0.40360828  0.39100713  0.55765590  1
  N  N60  1  0.22714119  0.87602386  0.36861676  1
  N  N61  1  0.11532559  0.73926130  0.07031609  1
  N  N62  1  0.89696568  0.84864728  0.87512423  1
  N  N63  1  0.76197578  0.74274394  0.66195400  1
  N  N64  1  0.55030535  0.86432036  0.42723068  1
  N  N65  1  0.47323616  0.75136903  0.06883959  1
  N  N66  1  0.21670423  0.87256286  0.84813399  1
  N  N67  1  0.14828011  0.73662478  0.58977852  1
  N  N68  1  0.90474098  0.87829702  0.38137952  1
  N  N69  1  0.78162218  0.76021067  0.10255522  1
  N  N70  1  0.55224989  0.88406361  0.87995854  1
  N  N71  1  0.42397889  0.78485041  0.62491022  1
