# generated using pymatgen
data_Gd2Al7N9
_symmetry_space_group_name_H-M   'P 1'
_cell_length_a   9.85237429
_cell_length_b   9.86471618
_cell_length_c   10.50593831
_cell_angle_alpha   90.72058325
_cell_angle_beta   90.85983903
_cell_angle_gamma   60.58118737
_symmetry_Int_Tables_number   1
_chemical_formula_structural   Gd2Al7N9
_chemical_formula_sum   'Gd8 Al28 N36'
_cell_volume   889.29950943
_cell_formula_units_Z   4
loop_
 _symmetry_equiv_pos_site_id
 _symmetry_equiv_pos_as_xyz
  1  'x, y, z'
loop_
 _atom_site_type_symbol
 _atom_site_label
 _atom_site_symmetry_multiplicity
 _atom_site_fract_x
 _atom_site_fract_y
 _atom_site_fract_z
 _atom_site_occupancy
  Al  Al0  1  0.10846338  0.09198167  0.32257407  1
  Al  Al1  1  0.22302355  0.21384327  0.04220512  1
  Al  Al2  1  0.89514191  0.19758444  0.56094170  1
  Al  Al3  1  0.55326005  0.21484260  0.06904454  1
  Al  Al4  1  0.11843704  0.09352817  0.80364902  1
  Al  Al5  1  0.21626655  0.20332770  0.57365963  1
  Al  Al6  1  0.79078594  0.08769883  0.29228414  1
  Al  Al7  1  0.90255604  0.22001956  0.05582336  1
  Al  Al8  1  0.43960221  0.09642579  0.81289539  1
  Al  Al9  1  0.54882074  0.20255896  0.59717184  1
  Al  Al10  1  0.21793570  0.54294390  0.04771730  1
  Al  Al11  1  0.80016837  0.42078001  0.80974475  1
  Al  Al12  1  0.88962157  0.52724795  0.57307477  1
  Al  Al13  1  0.43345164  0.43309032  0.38090498  1
  Al  Al14  1  0.56737664  0.54975968  0.04632788  1
  Al  Al15  1  0.11596525  0.42858754  0.80725609  1
  Al  Al16  1  0.21229256  0.53594032  0.56015734  1
  Al  Al17  1  0.89524072  0.53956795  0.03284759  1
  Al  Al18  1  0.44018737  0.43435557  0.87616146  1
  Al  Al19  1  0.10906259  0.75860257  0.30469279  1
  Al  Al20  1  0.77916807  0.75160940  0.81146022  1
  Al  Al21  1  0.43693635  0.76091433  0.32093347  1
  Al  Al22  1  0.56288462  0.87538708  0.04332963  1
  Al  Al23  1  0.12596385  0.75131244  0.80312973  1
  Al  Al24  1  0.22179662  0.87545439  0.55894214  1
  Al  Al25  1  0.90046487  0.85667919  0.04707225  1
  Al  Al26  1  0.43491780  0.77986217  0.80837218  1
  Al  Al27  1  0.54538476  0.87288892  0.57260744  1
  Gd  Gd28  1  0.78295092  0.09804437  0.83378129  1
  Gd  Gd29  1  0.44383003  0.09854546  0.31612719  1
  Gd  Gd30  1  0.10099292  0.41953939  0.30189136  1
  Gd  Gd31  1  0.75123360  0.41159041  0.30784106  1
  Gd  Gd32  1  0.54880801  0.54073873  0.59925900  1
  Gd  Gd33  1  0.22587930  0.87944268  0.07636867  1
  Gd  Gd34  1  0.88760937  0.86829756  0.56041000  1
  Gd  Gd35  1  0.76199741  0.75077675  0.29385233  1
  N  N36  1  0.20943594  0.19184355  0.39707020  1
  N  N37  1  0.10288120  0.13640805  0.13734245  1
  N  N38  1  0.91946628  0.21845661  0.87794239  1
  N  N39  1  0.76017094  0.12053734  0.61776439  1
  N  N40  1  0.57683187  0.23251695  0.31800945  1
  N  N41  1  0.44434458  0.09528622  0.09516398  1
  N  N42  1  0.22473843  0.20369920  0.85758538  1
  N  N43  1  0.10773265  0.08808269  0.62150049  1
  N  N44  1  0.90577885  0.16861269  0.38006217  1
  N  N45  1  0.79306865  0.09329183  0.09461509  1
  N  N46  1  0.52861904  0.21827147  0.87000994  1
  N  N47  1  0.44362139  0.09159210  0.62441110  1
  N  N48  1  0.21126910  0.55588867  0.37547917  1
  N  N49  1  0.11400051  0.43001095  0.08157373  1
  N  N50  1  0.89731031  0.53682506  0.85455839  1
  N  N51  1  0.81004518  0.40043174  0.62884302  1
  N  N52  1  0.51633031  0.56387858  0.38214744  1
  N  N53  1  0.44677137  0.44351921  0.06290807  1
  N  N54  1  0.22185957  0.54271156  0.86134236  1
  N  N55  1  0.10964793  0.42711855  0.62245902  1
  N  N56  1  0.87521028  0.52927272  0.39408130  1
  N  N57  1  0.78216566  0.43793530  0.09217208  1
  N  N58  1  0.56031325  0.54700657  0.85165510  1
  N  N59  1  0.42495015  0.40433298  0.56592390  1
  N  N60  1  0.21717970  0.87213835  0.35681556  1
  N  N61  1  0.10333131  0.74385715  0.12109663  1
  N  N62  1  0.91273016  0.83887838  0.85875122  1
  N  N63  1  0.75906586  0.74351968  0.62889876  1
  N  N64  1  0.53732567  0.86344190  0.39386601  1
  N  N65  1  0.48501354  0.75179273  0.13023043  1
  N  N66  1  0.22061982  0.87650482  0.86074846  1
  N  N67  1  0.14280931  0.74361163  0.62124760  1
  N  N68  1  0.89125414  0.87786673  0.34418505  1
  N  N69  1  0.78158235  0.75897289  0.07662352  1
  N  N70  1  0.55398021  0.87710644  0.86298988  1
  N  N71  1  0.41909596  0.79840784  0.63165184  1
