# generated using pymatgen
data_Gd2Al7N9
_symmetry_space_group_name_H-M   'P 1'
_cell_length_a   9.88904982
_cell_length_b   9.89007788
_cell_length_c   10.67216556
_cell_angle_alpha   90.93910172
_cell_angle_beta   91.35565199
_cell_angle_gamma   59.77669416
_symmetry_Int_Tables_number   1
_chemical_formula_structural   Gd2Al7N9
_chemical_formula_sum   'Gd8 Al28 N36'
_cell_volume   901.63009559
_cell_formula_units_Z   4
loop_
 _symmetry_equiv_pos_site_id
 _symmetry_equiv_pos_as_xyz
  1  'x, y, z'
loop_
 _atom_site_type_symbol
 _atom_site_label
 _atom_site_symmetry_multiplicity
 _atom_site_fract_x
 _atom_site_fract_y
 _atom_site_fract_z
 _atom_site_occupancy
  Al  Al0  1  0.10931123  0.09419839  0.32246057  1
  Al  Al1  1  0.22911218  0.21297104  0.04850432  1
  Al  Al2  1  0.89023622  0.20024443  0.56190104  1
  Al  Al3  1  0.56201717  0.21919471  0.11694435  1
  Al  Al4  1  0.11198291  0.10038559  0.80977689  1
  Al  Al5  1  0.21028551  0.19737914  0.57139246  1
  Al  Al6  1  0.80471538  0.08574393  0.29502216  1
  Al  Al7  1  0.90687005  0.21993664  0.05618083  1
  Al  Al8  1  0.43005557  0.09537787  0.80077728  1
  Al  Al9  1  0.53086198  0.21163129  0.62761600  1
  Al  Al10  1  0.22865745  0.54154304  0.11221155  1
  Al  Al11  1  0.79885990  0.42155056  0.80455876  1
  Al  Al12  1  0.88531654  0.52854537  0.56907293  1
  Al  Al13  1  0.43310755  0.43632218  0.36938700  1
  Al  Al14  1  0.57542743  0.53451066  0.02906796  1
  Al  Al15  1  0.10988297  0.42335785  0.80678826  1
  Al  Al16  1  0.21806845  0.52495369  0.61892448  1
  Al  Al17  1  0.89572667  0.54131274  0.03434841  1
  Al  Al18  1  0.42566919  0.43042149  0.87175970  1
  Al  Al19  1  0.13001440  0.75734926  0.37500729  1
  Al  Al20  1  0.77695433  0.75320822  0.80479268  1
  Al  Al21  1  0.41931125  0.77564118  0.40870705  1
  Al  Al22  1  0.56663877  0.88353680  0.03250392  1
  Al  Al23  1  0.11915942  0.74753630  0.86638347  1
  Al  Al24  1  0.21844081  0.86831733  0.63723600  1
  Al  Al25  1  0.89432376  0.86279162  0.03785930  1
  Al  Al26  1  0.44682517  0.76539348  0.85842451  1
  Al  Al27  1  0.55073220  0.86982666  0.57687412  1
  Gd  Gd28  1  0.76737970  0.11296239  0.83759059  1
  Gd  Gd29  1  0.44997739  0.10465275  0.33951924  1
  Gd  Gd30  1  0.10554617  0.41826916  0.30603262  1
  Gd  Gd31  1  0.74914323  0.42289856  0.31012688  1
  Gd  Gd32  1  0.53878582  0.52471882  0.60655072  1
  Gd  Gd33  1  0.23709560  0.86657781  0.11406396  1
  Gd  Gd34  1  0.88264116  0.87552414  0.57273375  1
  Gd  Gd35  1  0.76968793  0.76050237  0.29490436  1
  N  N36  1  0.21000357  0.18869823  0.39775680  1
  N  N37  1  0.10667763  0.13623566  0.13587767  1
  N  N38  1  0.91509301  0.22201999  0.87979664  1
  N  N39  1  0.75020628  0.13314240  0.61862930  1
  N  N40  1  0.58536748  0.24067323  0.29204530  1
  N  N41  1  0.45303428  0.09646093  0.10442606  1
  N  N42  1  0.22398881  0.20181493  0.86534945  1
  N  N43  1  0.10081527  0.09212629  0.63030610  1
  N  N44  1  0.90690536  0.17599737  0.38177562  1
  N  N45  1  0.79955278  0.08980843  0.09234807  1
  N  N46  1  0.50896992  0.23204980  0.80769535  1
  N  N47  1  0.43447333  0.08615790  0.61788664  1
  N  N48  1  0.23297356  0.55687799  0.29244270  1
  N  N49  1  0.11555849  0.43208496  0.08580884  1
  N  N50  1  0.89304573  0.53891382  0.85726029  1
  N  N51  1  0.80297033  0.40664215  0.62537373  1
  N  N52  1  0.51830143  0.56259912  0.39013001  1
  N  N53  1  0.44773909  0.43233893  0.05017538  1
  N  N54  1  0.22254870  0.54159841  0.80228566  1
  N  N55  1  0.10221711  0.41764080  0.62391556  1
  N  N56  1  0.87846181  0.53721520  0.39228940  1
  N  N57  1  0.78153472  0.43879580  0.09424157  1
  N  N58  1  0.56490554  0.52799581  0.84262447  1
  N  N59  1  0.40714979  0.39172675  0.53782898  1
  N  N60  1  0.22334944  0.87437513  0.32856565  1
  N  N61  1  0.11267528  0.74214086  0.04414734  1
  N  N62  1  0.89665142  0.85160544  0.84619324  1
  N  N63  1  0.76273192  0.74150012  0.62788211  1
  N  N64  1  0.54686103  0.86446671  0.39504520  1
  N  N65  1  0.47821753  0.75219592  0.04045595  1
  N  N66  1  0.22144973  0.86725674  0.82442711  1
  N  N67  1  0.14977115  0.73348357  0.56060369  1
  N  N68  1  0.90251408  0.87880821  0.35456018  1
  N  N69  1  0.78295972  0.76277061  0.07880317  1
  N  N70  1  0.55705736  0.88279765  0.85155013  1
  N  N71  1  0.42219394  0.78678158  0.59379713  1
