# generated using pymatgen
data_Gd2Al7N9
_symmetry_space_group_name_H-M   'P 1'
_cell_length_a   9.86828521
_cell_length_b   9.94598336
_cell_length_c   10.68668394
_cell_angle_alpha   90.02434654
_cell_angle_beta   90.34382995
_cell_angle_gamma   58.90149117
_symmetry_Int_Tables_number   1
_chemical_formula_structural   Gd2Al7N9
_chemical_formula_sum   'Gd8 Al28 N36'
_cell_volume   898.12857815
_cell_formula_units_Z   4
loop_
 _symmetry_equiv_pos_site_id
 _symmetry_equiv_pos_as_xyz
  1  'x, y, z'
loop_
 _atom_site_type_symbol
 _atom_site_label
 _atom_site_symmetry_multiplicity
 _atom_site_fract_x
 _atom_site_fract_y
 _atom_site_fract_z
 _atom_site_occupancy
  Al  Al0  1  0.11439910  0.08651413  0.40405601  1
  Al  Al1  1  0.21611696  0.20959811  0.15152373  1
  Al  Al2  1  0.88981642  0.21949222  0.65659072  1
  Al  Al3  1  0.54685142  0.21304818  0.14014845  1
  Al  Al4  1  0.11492168  0.10087378  0.89831805  1
  Al  Al5  1  0.22268036  0.18981440  0.66299001  1
  Al  Al6  1  0.79541818  0.08995962  0.30961126  1
  Al  Al7  1  0.90229034  0.20852965  0.13503357  1
  Al  Al8  1  0.43012622  0.09859831  0.90733522  1
  Al  Al9  1  0.52179630  0.21627578  0.65919492  1
  Al  Al10  1  0.21486100  0.54108369  0.14700374  1
  Al  Al11  1  0.78597593  0.42907153  0.88671077  1
  Al  Al12  1  0.88307420  0.54331431  0.60064776  1
  Al  Al13  1  0.44159010  0.43280525  0.39029679  1
  Al  Al14  1  0.55790495  0.53284173  0.06590153  1
  Al  Al15  1  0.10762190  0.42520782  0.83211256  1
  Al  Al16  1  0.21765637  0.53859731  0.65581941  1
  Al  Al17  1  0.90203254  0.53419919  0.06343349  1
  Al  Al18  1  0.41810053  0.43158599  0.90221247  1
  Al  Al19  1  0.13505534  0.76209910  0.41465065  1
  Al  Al20  1  0.77410019  0.75543697  0.84197094  1
  Al  Al21  1  0.44339237  0.76660053  0.41489127  1
  Al  Al22  1  0.55707545  0.85984844  0.13402898  1
  Al  Al23  1  0.11570283  0.75596967  0.89080148  1
  Al  Al24  1  0.22230517  0.88000066  0.65056534  1
  Al  Al25  1  0.88263944  0.86370003  0.05297178  1
  Al  Al26  1  0.43755197  0.77076993  0.89535875  1
  Al  Al27  1  0.54143572  0.87858887  0.66918039  1
  Gd  Gd28  1  0.75860153  0.12500665  0.87457221  1
  Gd  Gd29  1  0.47684919  0.06641215  0.39357089  1
  Gd  Gd30  1  0.16493126  0.40294302  0.42070408  1
  Gd  Gd31  1  0.77860712  0.43346469  0.37095921  1
  Gd  Gd32  1  0.53840858  0.53006160  0.62956819  1
  Gd  Gd33  1  0.21704450  0.86967902  0.15718509  1
  Gd  Gd34  1  0.87481675  0.89163066  0.60890724  1
  Gd  Gd35  1  0.83655222  0.73851082  0.30591416  1
  N  N36  1  0.22656567  0.17340912  0.32941261  1
  N  N37  1  0.10831756  0.11525884  0.07370239  1
  N  N38  1  0.91077191  0.22518040  0.83437986  1
  N  N39  1  0.74053174  0.15003837  0.65189660  1
  N  N40  1  0.56794867  0.22595868  0.31611641  1
  N  N41  1  0.44428196  0.09329230  0.09306760  1
  N  N42  1  0.22220767  0.19873466  0.84170179  1
  N  N43  1  0.10364995  0.09794043  0.59148586  1
  N  N44  1  0.92040162  0.17727913  0.31116404  1
  N  N45  1  0.78364228  0.08579465  0.11088502  1
  N  N46  1  0.49836287  0.23055132  0.83984453  1
  N  N47  1  0.44035959  0.08854014  0.60851295  1
  N  N48  1  0.22846782  0.56874168  0.32284569  1
  N  N49  1  0.10820692  0.43021404  0.12794942  1
  N  N50  1  0.89392471  0.53789813  0.88543542  1
  N  N51  1  0.79285942  0.42104855  0.59866228  1
  N  N52  1  0.52682582  0.55393377  0.40699789  1
  N  N53  1  0.43715246  0.42902334  0.08032436  1
  N  N54  1  0.21544460  0.54683250  0.83341326  1
  N  N55  1  0.10537955  0.42412822  0.64847757  1
  N  N56  1  0.91459598  0.54413719  0.42823197  1
  N  N57  1  0.78045192  0.42499823  0.08730386  1
  N  N58  1  0.55379448  0.53104658  0.87278137  1
  N  N59  1  0.39940206  0.40138216  0.56381167  1
  N  N60  1  0.22956806  0.87335522  0.36851524  1
  N  N61  1  0.10370379  0.74302112  0.06997073  1
  N  N62  1  0.88932808  0.86078035  0.86954574  1
  N  N63  1  0.76377399  0.74909786  0.66144675  1
  N  N64  1  0.56987848  0.82599220  0.31596340  1
  N  N65  1  0.46027806  0.75145475  0.07161936  1
  N  N66  1  0.21655591  0.87601363  0.83928876  1
  N  N67  1  0.14838004  0.74285799  0.59571281  1
  N  N68  1  0.90286345  0.89887197  0.39356233  1
  N  N69  1  0.77744001  0.75793228  0.09314531  1
  N  N70  1  0.54151146  0.88094839  0.85050912  1
  N  N71  1  0.43179727  0.79494238  0.59693992  1
