# generated using pymatgen
data_Gd2Al7N9
_symmetry_space_group_name_H-M   'P 1'
_cell_length_a   9.85958546
_cell_length_b   9.86894197
_cell_length_c   10.49876776
_cell_angle_alpha   90.82602602
_cell_angle_beta   90.86649493
_cell_angle_gamma   60.51155957
_symmetry_Int_Tables_number   1
_chemical_formula_structural   Gd2Al7N9
_chemical_formula_sum   'Gd8 Al28 N36'
_cell_volume   889.09939697
_cell_formula_units_Z   4
loop_
 _symmetry_equiv_pos_site_id
 _symmetry_equiv_pos_as_xyz
  1  'x, y, z'
loop_
 _atom_site_type_symbol
 _atom_site_label
 _atom_site_symmetry_multiplicity
 _atom_site_fract_x
 _atom_site_fract_y
 _atom_site_fract_z
 _atom_site_occupancy
  Al  Al0  1  0.10819179  0.09191683  0.32285335  1
  Al  Al1  1  0.22406885  0.21397794  0.04316287  1
  Al  Al2  1  0.89378039  0.19710579  0.56221905  1
  Al  Al3  1  0.55617979  0.22160982  0.10256963  1
  Al  Al4  1  0.11793255  0.09344690  0.80358834  1
  Al  Al5  1  0.21643383  0.20233044  0.57382462  1
  Al  Al6  1  0.79438127  0.08669616  0.29077353  1
  Al  Al7  1  0.90396505  0.22048648  0.05539927  1
  Al  Al8  1  0.43665336  0.09445125  0.81232819  1
  Al  Al9  1  0.54314096  0.20814970  0.62961771  1
  Al  Al10  1  0.21726950  0.54300700  0.04692966  1
  Al  Al11  1  0.79985061  0.42101697  0.80914887  1
  Al  Al12  1  0.88960489  0.52757243  0.57319406  1
  Al  Al13  1  0.43463641  0.43161229  0.37822555  1
  Al  Al14  1  0.56764233  0.55005685  0.04500887  1
  Al  Al15  1  0.11619284  0.42842606  0.80722383  1
  Al  Al16  1  0.21389370  0.53402526  0.55859873  1
  Al  Al17  1  0.89512784  0.53968798  0.03254543  1
  Al  Al18  1  0.44029020  0.43253449  0.87582683  1
  Al  Al19  1  0.10906864  0.75851463  0.30468628  1
  Al  Al20  1  0.77908459  0.75149596  0.81123915  1
  Al  Al21  1  0.43688421  0.76049416  0.32062334  1
  Al  Al22  1  0.56279977  0.87671882  0.04411040  1
  Al  Al23  1  0.12610697  0.75075144  0.80264026  1
  Al  Al24  1  0.22187112  0.87485796  0.55919840  1
  Al  Al25  1  0.90142179  0.85530904  0.04661490  1
  Al  Al26  1  0.43499591  0.77897125  0.80824097  1
  Al  Al27  1  0.54480933  0.87250406  0.57298761  1
  Gd  Gd28  1  0.78297388  0.09772526  0.83864730  1
  Gd  Gd29  1  0.44498643  0.09922310  0.32299022  1
  Gd  Gd30  1  0.10119107  0.41915238  0.30155245  1
  Gd  Gd31  1  0.75231419  0.41245806  0.30767256  1
  Gd  Gd32  1  0.54795137  0.53856495  0.59877353  1
  Gd  Gd33  1  0.22560749  0.87971039  0.07624652  1
  Gd  Gd34  1  0.88654795  0.86994815  0.56171369  1
  Gd  Gd35  1  0.76229572  0.75100349  0.29392377  1
  N  N36  1  0.20913175  0.19146410  0.39670799  1
  N  N37  1  0.10322889  0.13675923  0.13773956  1
  N  N38  1  0.91929622  0.21930925  0.87755198  1
  N  N39  1  0.75988070  0.12065698  0.61947235  1
  N  N40  1  0.57597471  0.23829864  0.29330659  1
  N  N41  1  0.44588440  0.09770039  0.09688336  1
  N  N42  1  0.22379299  0.20345963  0.85905064  1
  N  N43  1  0.10736003  0.08785094  0.62133055  1
  N  N44  1  0.90474535  0.16939660  0.38030414  1
  N  N45  1  0.79663177  0.09149636  0.09297073  1
  N  N46  1  0.52495589  0.22320726  0.83719956  1
  N  N47  1  0.44079172  0.08938219  0.62358088  1
  N  N48  1  0.21187367  0.55542787  0.37374076  1
  N  N49  1  0.11361269  0.43048872  0.08153291  1
  N  N50  1  0.89713071  0.53680990  0.85427146  1
  N  N51  1  0.80941168  0.40122385  0.62815585  1
  N  N52  1  0.51679871  0.56302336  0.38152714  1
  N  N53  1  0.44763063  0.44142523  0.05995693  1
  N  N54  1  0.22150332  0.54295048  0.86150468  1
  N  N55  1  0.11011468  0.42664455  0.62226669  1
  N  N56  1  0.87577956  0.52986291  0.39398270  1
  N  N57  1  0.78199540  0.43814292  0.09192810  1
  N  N58  1  0.56000378  0.54692346  0.85148075  1
  N  N59  1  0.42752758  0.39796107  0.55926405  1
  N  N60  1  0.21699952  0.87202706  0.35671866  1
  N  N61  1  0.10379632  0.74365408  0.12104623  1
  N  N62  1  0.91296643  0.83782552  0.85840294  1
  N  N63  1  0.75873153  0.74397176  0.62878275  1
  N  N64  1  0.53710599  0.86295453  0.39342706  1
  N  N65  1  0.48475105  0.75190493  0.12997497  1
  N  N66  1  0.22033454  0.87637079  0.86057052  1
  N  N67  1  0.14379024  0.74210858  0.62059852  1
  N  N68  1  0.89058921  0.87877166  0.34426082  1
  N  N69  1  0.78164870  0.75905879  0.07676342  1
  N  N70  1  0.55353700  0.87685908  0.86376033  1
  N  N71  1  0.41957582  0.79651279  0.63132097  1
