# generated using pymatgen
data_Gd2Al7N9
_symmetry_space_group_name_H-M   'P 1'
_cell_length_a   9.84974282
_cell_length_b   9.89421878
_cell_length_c   10.60014622
_cell_angle_alpha   91.35291191
_cell_angle_beta   90.98815305
_cell_angle_gamma   60.16137625
_symmetry_Int_Tables_number   1
_chemical_formula_structural   Gd2Al7N9
_chemical_formula_sum   'Gd8 Al28 N36'
_cell_volume   895.82463589
_cell_formula_units_Z   4
loop_
 _symmetry_equiv_pos_site_id
 _symmetry_equiv_pos_as_xyz
  1  'x, y, z'
loop_
 _atom_site_type_symbol
 _atom_site_label
 _atom_site_symmetry_multiplicity
 _atom_site_fract_x
 _atom_site_fract_y
 _atom_site_fract_z
 _atom_site_occupancy
  Al  Al0  1  0.11276159  0.08886907  0.31816776  1
  Al  Al1  1  0.23168471  0.21730656  0.04797478  1
  Al  Al2  1  0.89117448  0.19566090  0.56310861  1
  Al  Al3  1  0.56187057  0.22151925  0.12063183  1
  Al  Al4  1  0.10854445  0.10728751  0.81213588  1
  Al  Al5  1  0.21059783  0.19820496  0.57486757  1
  Al  Al6  1  0.80442268  0.08467496  0.29098893  1
  Al  Al7  1  0.90199330  0.22895084  0.05714513  1
  Al  Al8  1  0.43475197  0.09208429  0.80378224  1
  Al  Al9  1  0.53645193  0.20984060  0.62876660  1
  Al  Al10  1  0.23325263  0.53610646  0.10447056  1
  Al  Al11  1  0.79029694  0.42717367  0.80609992  1
  Al  Al12  1  0.88812630  0.52479275  0.57407069  1
  Al  Al13  1  0.42631899  0.43929414  0.36834881  1
  Al  Al14  1  0.57042556  0.54847101  0.04458479  1
  Al  Al15  1  0.11035171  0.42222657  0.81919981  1
  Al  Al16  1  0.22081171  0.52118648  0.63204894  1
  Al  Al17  1  0.89316978  0.54527508  0.03319775  1
  Al  Al18  1  0.43451488  0.42960079  0.87736367  1
  Al  Al19  1  0.11452334  0.76298498  0.29313347  1
  Al  Al20  1  0.77587946  0.75391781  0.80762653  1
  Al  Al21  1  0.43537251  0.76251209  0.31066645  1
  Al  Al22  1  0.56487015  0.88249691  0.04873769  1
  Al  Al23  1  0.11779469  0.74704953  0.85507011  1
  Al  Al24  1  0.21648327  0.87090345  0.64445968  1
  Al  Al25  1  0.89396808  0.86386177  0.04331895  1
  Al  Al26  1  0.44942310  0.76945582  0.81707192  1
  Al  Al27  1  0.54680794  0.86300679  0.57104557  1
  Gd  Gd28  1  0.77480568  0.10471006  0.83563912  1
  Gd  Gd29  1  0.45451628  0.10484895  0.35399147  1
  Gd  Gd30  1  0.10244860  0.40638020  0.29508780  1
  Gd  Gd31  1  0.75234262  0.41268281  0.31414600  1
  Gd  Gd32  1  0.53261605  0.53698022  0.59366325  1
  Gd  Gd33  1  0.22850061  0.89389387  0.07597845  1
  Gd  Gd34  1  0.89459538  0.86387951  0.55894765  1
  Gd  Gd35  1  0.76562408  0.74879976  0.29393254  1
  N  N36  1  0.21064892  0.18591080  0.39945201  1
  N  N37  1  0.10005634  0.15468694  0.13845180  1
  N  N38  1  0.90971808  0.22830111  0.88010450  1
  N  N39  1  0.75752267  0.11930786  0.61637244  1
  N  N40  1  0.58701235  0.24237719  0.29640074  1
  N  N41  1  0.45004687  0.10201445  0.11124322  1
  N  N42  1  0.22766851  0.19896837  0.86670763  1
  N  N43  1  0.10166521  0.09097304  0.63299916  1
  N  N44  1  0.91162571  0.16688906  0.38307599  1
  N  N45  1  0.79998110  0.09363967  0.09402271  1
  N  N46  1  0.51572180  0.22981867  0.81027148  1
  N  N47  1  0.43920644  0.08256619  0.61685169  1
  N  N48  1  0.23135703  0.54500801  0.28649922  1
  N  N49  1  0.11449315  0.43595895  0.07189804  1
  N  N50  1  0.88844214  0.54096561  0.85651112  1
  N  N51  1  0.79750108  0.40505672  0.62521242  1
  N  N52  1  0.51150668  0.56898875  0.38233527  1
  N  N53  1  0.45332025  0.43214000  0.05549870  1
  N  N54  1  0.22814417  0.53251478  0.81943821  1
  N  N55  1  0.10353463  0.41489554  0.63302334  1
  N  N56  1  0.88250586  0.52900338  0.39583724  1
  N  N57  1  0.78189069  0.44381514  0.10004225  1
  N  N58  1  0.55965742  0.54396982  0.85567034  1
  N  N59  1  0.40836619  0.39277190  0.54142238  1
  N  N60  1  0.21811743  0.87371335  0.29938724  1
  N  N61  1  0.11101971  0.74873886  0.06721968  1
  N  N62  1  0.89830269  0.84682141  0.85710878  1
  N  N63  1  0.76109735  0.74253843  0.62760433  1
  N  N64  1  0.53738011  0.85948469  0.39207723  1
  N  N65  1  0.48917328  0.75174932  0.12173472  1
  N  N66  1  0.21730543  0.87733096  0.84380148  1
  N  N67  1  0.14624003  0.73392209  0.60982885  1
  N  N68  1  0.90030696  0.87351183  0.33644181  1
  N  N69  1  0.78332904  0.76288202  0.08113191  1
  N  N70  1  0.55401222  0.88126757  0.86825219  1
  N  N71  1  0.42902944  0.78823784  0.64286841  1
