# generated using pymatgen
data_Gd2Al7N9
_symmetry_space_group_name_H-M   'P 1'
_cell_length_a   9.85955838
_cell_length_b   9.88483237
_cell_length_c   10.61337147
_cell_angle_alpha   91.36849468
_cell_angle_beta   90.82053196
_cell_angle_gamma   60.24048305
_symmetry_Int_Tables_number   1
_chemical_formula_structural   Gd2Al7N9
_chemical_formula_sum   'Gd8 Al28 N36'
_cell_volume   897.70251959
_cell_formula_units_Z   4
loop_
 _symmetry_equiv_pos_site_id
 _symmetry_equiv_pos_as_xyz
  1  'x, y, z'
loop_
 _atom_site_type_symbol
 _atom_site_label
 _atom_site_symmetry_multiplicity
 _atom_site_fract_x
 _atom_site_fract_y
 _atom_site_fract_z
 _atom_site_occupancy
  Al  Al0  1  0.11324513  0.08667610  0.31872861  1
  Al  Al1  1  0.22983626  0.21564268  0.04740964  1
  Al  Al2  1  0.89285521  0.19552430  0.56306750  1
  Al  Al3  1  0.56090146  0.22287297  0.12084642  1
  Al  Al4  1  0.10893791  0.10709039  0.81212889  1
  Al  Al5  1  0.21216582  0.19899363  0.57391053  1
  Al  Al6  1  0.80354983  0.08436251  0.29165718  1
  Al  Al7  1  0.90134837  0.22759380  0.05671444  1
  Al  Al8  1  0.43417476  0.09349663  0.80358199  1
  Al  Al9  1  0.53858353  0.20964406  0.62914936  1
  Al  Al10  1  0.22989503  0.53570652  0.10196136  1
  Al  Al11  1  0.79123341  0.42655943  0.80644779  1
  Al  Al12  1  0.89023177  0.52570201  0.57413770  1
  Al  Al13  1  0.42722585  0.43883549  0.36897120  1
  Al  Al14  1  0.56932132  0.54905036  0.04487203  1
  Al  Al15  1  0.11010035  0.42300780  0.82180840  1
  Al  Al16  1  0.22549728  0.51630127  0.63310784  1
  Al  Al17  1  0.89047403  0.54595506  0.03264998  1
  Al  Al18  1  0.43469440  0.43064525  0.87784938  1
  Al  Al19  1  0.11125551  0.76162364  0.28173370  1
  Al  Al20  1  0.77653672  0.75481991  0.80818979  1
  Al  Al21  1  0.43419185  0.76234938  0.31106202  1
  Al  Al22  1  0.56268043  0.88318913  0.04799349  1
  Al  Al23  1  0.11654741  0.74972444  0.81593898  1
  Al  Al24  1  0.22066533  0.87412777  0.64105125  1
  Al  Al25  1  0.89661558  0.86069137  0.04246783  1
  Al  Al26  1  0.44976157  0.76995314  0.81683872  1
  Al  Al27  1  0.54810776  0.86475908  0.56990020  1
  Gd  Gd28  1  0.77410428  0.10412844  0.83817076  1
  Gd  Gd29  1  0.45266478  0.10373957  0.34761205  1
  Gd  Gd30  1  0.10171788  0.40657606  0.29422606  1
  Gd  Gd31  1  0.75433704  0.41209105  0.31323381  1
  Gd  Gd32  1  0.53962926  0.53563406  0.59271531  1
  Gd  Gd33  1  0.22468085  0.88923271  0.07511023  1
  Gd  Gd34  1  0.89449440  0.86577096  0.55676086  1
  Gd  Gd35  1  0.76579589  0.74894839  0.29307622  1
  N  N36  1  0.21003210  0.18634998  0.39889059  1
  N  N37  1  0.09987913  0.15046095  0.13704087  1
  N  N38  1  0.90970150  0.22748776  0.87950119  1
  N  N39  1  0.75965317  0.11847914  0.61787844  1
  N  N40  1  0.58674507  0.24124072  0.29702395  1
  N  N41  1  0.44799008  0.10347377  0.11033998  1
  N  N42  1  0.22717087  0.19945506  0.86623307  1
  N  N43  1  0.10312146  0.09186222  0.63222390  1
  N  N44  1  0.91127514  0.16685746  0.38331507  1
  N  N45  1  0.79799933  0.09444400  0.09307358  1
  N  N46  1  0.51584597  0.23059464  0.81029194  1
  N  N47  1  0.43950289  0.08396619  0.61657000  1
  N  N48  1  0.23237193  0.54001637  0.29033425  1
  N  N49  1  0.11135817  0.43512931  0.07087423  1
  N  N50  1  0.88780767  0.54161446  0.85603477  1
  N  N51  1  0.80178585  0.40412900  0.62595369  1
  N  N52  1  0.51418877  0.56747309  0.38166266  1
  N  N53  1  0.45180408  0.43366048  0.05591945  1
  N  N54  1  0.22707031  0.53225873  0.82622384  1
  N  N55  1  0.10530908  0.41564842  0.63366451  1
  N  N56  1  0.88225298  0.53003808  0.39648378  1
  N  N57  1  0.78079332  0.44326216  0.09898315  1
  N  N58  1  0.55997271  0.54422357  0.85509820  1
  N  N59  1  0.41259760  0.39530987  0.54471310  1
  N  N60  1  0.21791443  0.87170309  0.30461286  1
  N  N61  1  0.10182050  0.75243986  0.09667654  1
  N  N62  1  0.90337317  0.84444088  0.85808301  1
  N  N63  1  0.76217132  0.74486341  0.62758254  1
  N  N64  1  0.53777800  0.85926388  0.39135057  1
  N  N65  1  0.48598767  0.75292437  0.12049295  1
  N  N66  1  0.21817577  0.87820144  0.84348104  1
  N  N67  1  0.14323052  0.73682367  0.63017327  1
  N  N68  1  0.89782566  0.87453294  0.33936744  1
  N  N69  1  0.78060509  0.76394968  0.07948644  1
  N  N70  1  0.55403353  0.88246617  0.86733419  1
  N  N71  1  0.43180028  0.78754802  0.64179183  1
