# generated using pymatgen
data_Gd2Al7N9
_symmetry_space_group_name_H-M   'P 1'
_cell_length_a   9.89265953
_cell_length_b   9.89004661
_cell_length_c   10.58801363
_cell_angle_alpha   91.06462396
_cell_angle_beta   91.15321050
_cell_angle_gamma   59.95386656
_symmetry_Int_Tables_number   1
_chemical_formula_structural   Gd2Al7N9
_chemical_formula_sum   'Gd8 Al28 N36'
_cell_volume   896.49012121
_cell_formula_units_Z   4
loop_
 _symmetry_equiv_pos_site_id
 _symmetry_equiv_pos_as_xyz
  1  'x, y, z'
loop_
 _atom_site_type_symbol
 _atom_site_label
 _atom_site_symmetry_multiplicity
 _atom_site_fract_x
 _atom_site_fract_y
 _atom_site_fract_z
 _atom_site_occupancy
  Al  Al0  1  0.11145759  0.09216787  0.31840792  1
  Al  Al1  1  0.23064679  0.21675817  0.04957159  1
  Al  Al2  1  0.89209862  0.19766215  0.56287495  1
  Al  Al3  1  0.56027700  0.22133307  0.11990397  1
  Al  Al4  1  0.11010389  0.10275459  0.81104152  1
  Al  Al5  1  0.21130147  0.19663015  0.57287800  1
  Al  Al6  1  0.80664058  0.08338656  0.29580498  1
  Al  Al7  1  0.90492492  0.22596616  0.05681939  1
  Al  Al8  1  0.43199795  0.09304476  0.80384657  1
  Al  Al9  1  0.53351311  0.20975343  0.63011204  1
  Al  Al10  1  0.22892225  0.54357292  0.11421540  1
  Al  Al11  1  0.79620276  0.42426242  0.80681828  1
  Al  Al12  1  0.88666676  0.52675201  0.57030203  1
  Al  Al13  1  0.43142491  0.43596330  0.36950402  1
  Al  Al14  1  0.57076202  0.54488353  0.03627421  1
  Al  Al15  1  0.11065540  0.42402862  0.80971029  1
  Al  Al16  1  0.22023343  0.52374383  0.61891729  1
  Al  Al17  1  0.89562823  0.54358136  0.03557822  1
  Al  Al18  1  0.42700105  0.43242692  0.87488343  1
  Al  Al19  1  0.12977657  0.75744808  0.37236132  1
  Al  Al20  1  0.77459694  0.75372232  0.80716054  1
  Al  Al21  1  0.42905401  0.76617407  0.34077224  1
  Al  Al22  1  0.56383541  0.88174766  0.04329984  1
  Al  Al23  1  0.11640628  0.74622094  0.86782974  1
  Al  Al24  1  0.21913196  0.86684106  0.63963142  1
  Al  Al25  1  0.89351196  0.86287252  0.04121748  1
  Al  Al26  1  0.44763426  0.76769222  0.82191670  1
  Al  Al27  1  0.54653331  0.86168998  0.57560251  1
  Gd  Gd28  1  0.76698555  0.11283233  0.84221251  1
  Gd  Gd29  1  0.45440396  0.10493619  0.35174231  1
  Gd  Gd30  1  0.10484141  0.41272627  0.30221820  1
  Gd  Gd31  1  0.75105394  0.41736624  0.31016082  1
  Gd  Gd32  1  0.54017154  0.52537241  0.60241768  1
  Gd  Gd33  1  0.22500524  0.88334906  0.08843310  1
  Gd  Gd34  1  0.88528659  0.87299945  0.57769647  1
  Gd  Gd35  1  0.76922054  0.75777145  0.29831799  1
  N  N36  1  0.21258624  0.18535335  0.39792276  1
  N  N37  1  0.10223069  0.14863293  0.13743737  1
  N  N38  1  0.91296343  0.22459676  0.87955727  1
  N  N39  1  0.75212375  0.13080576  0.62057453  1
  N  N40  1  0.58820421  0.24135768  0.29515110  1
  N  N41  1  0.45132577  0.10035755  0.10997190  1
  N  N42  1  0.22469521  0.20147995  0.86557243  1
  N  N43  1  0.10349014  0.08899632  0.63056432  1
  N  N44  1  0.91058679  0.17244276  0.38221312  1
  N  N45  1  0.80088321  0.09026463  0.09382240  1
  N  N46  1  0.50894387  0.23244458  0.81039323  1
  N  N47  1  0.43821461  0.08163456  0.61727752  1
  N  N48  1  0.23125102  0.55317607  0.29565368  1
  N  N49  1  0.11604963  0.43537973  0.08174039  1
  N  N50  1  0.89264453  0.54007242  0.85742290  1
  N  N51  1  0.80334000  0.40488762  0.62593344  1
  N  N52  1  0.51564655  0.56504932  0.38923933  1
  N  N53  1  0.44770937  0.43438661  0.05401168  1
  N  N54  1  0.22458061  0.54140032  0.80307054  1
  N  N55  1  0.10329998  0.41707123  0.62480132  1
  N  N56  1  0.87911251  0.53304706  0.39227559  1
  N  N57  1  0.78116858  0.44154445  0.09549239  1
  N  N58  1  0.56340614  0.53467306  0.84935644  1
  N  N59  1  0.40993901  0.38877724  0.53903691  1
  N  N60  1  0.21770125  0.87355989  0.31226741  1
  N  N61  1  0.11001626  0.74151745  0.04628863  1
  N  N62  1  0.89527374  0.85154506  0.84570362  1
  N  N63  1  0.76061309  0.74106924  0.62732313  1
  N  N64  1  0.53990087  0.85947235  0.39570667  1
  N  N65  1  0.48253985  0.75279365  0.09011228  1
  N  N66  1  0.21458374  0.87277058  0.83636810  1
  N  N67  1  0.15412595  0.73292033  0.56020329  1
  N  N68  1  0.90089387  0.87785107  0.35729682  1
  N  N69  1  0.78351154  0.76339299  0.08232740  1
  N  N70  1  0.55585313  0.88145005  0.86270257  1
  N  N71  1  0.43164260  0.78133788  0.64326912  1
