# generated using pymatgen
data_Gd2Al7N9
_symmetry_space_group_name_H-M   'P 1'
_cell_length_a   9.87288887
_cell_length_b   9.87914567
_cell_length_c   10.75039457
_cell_angle_alpha   91.59012261
_cell_angle_beta   91.49091524
_cell_angle_gamma   59.83938299
_symmetry_Int_Tables_number   1
_chemical_formula_structural   Gd2Al7N9
_chemical_formula_sum   'Gd8 Al28 N36'
_cell_volume   906.15778364
_cell_formula_units_Z   4
loop_
 _symmetry_equiv_pos_site_id
 _symmetry_equiv_pos_as_xyz
  1  'x, y, z'
loop_
 _atom_site_type_symbol
 _atom_site_label
 _atom_site_symmetry_multiplicity
 _atom_site_fract_x
 _atom_site_fract_y
 _atom_site_fract_z
 _atom_site_occupancy
  Al  Al0  1  0.11383753  0.07341047  0.40543718  1
  Al  Al1  1  0.23064691  0.21592889  0.03642381  1
  Al  Al2  1  0.87723885  0.20700079  0.57198698  1
  Al  Al3  1  0.56293852  0.22085199  0.11935470  1
  Al  Al4  1  0.11094773  0.10120616  0.81038682  1
  Al  Al5  1  0.21763892  0.20592642  0.57884439  1
  Al  Al6  1  0.80626372  0.08164683  0.29813936  1
  Al  Al7  1  0.91016456  0.22216560  0.04936859  1
  Al  Al8  1  0.43184329  0.09511400  0.80187113  1
  Al  Al9  1  0.52990724  0.21304524  0.63189230  1
  Al  Al10  1  0.22894747  0.54492316  0.11525081  1
  Al  Al11  1  0.79415272  0.42675674  0.80616205  1
  Al  Al12  1  0.88603099  0.52861673  0.56937031  1
  Al  Al13  1  0.43267862  0.42989472  0.37459162  1
  Al  Al14  1  0.57389366  0.53964905  0.03303775  1
  Al  Al15  1  0.10784964  0.42894132  0.80913281  1
  Al  Al16  1  0.21752395  0.52676919  0.62385809  1
  Al  Al17  1  0.89615284  0.54422763  0.03385376  1
  Al  Al18  1  0.42482126  0.43351262  0.87619970  1
  Al  Al19  1  0.13123276  0.74762017  0.38073419  1
  Al  Al20  1  0.77673494  0.75459588  0.80572032  1
  Al  Al21  1  0.42612566  0.76673098  0.41320112  1
  Al  Al22  1  0.56690211  0.88559896  0.03378498  1
  Al  Al23  1  0.12006992  0.75164615  0.87169683  1
  Al  Al24  1  0.22130010  0.86394642  0.63865272  1
  Al  Al25  1  0.89622239  0.86425550  0.04176759  1
  Al  Al26  1  0.44297342  0.76950600  0.86483424  1
  Al  Al27  1  0.55208514  0.87022389  0.57688909  1
  Gd  Gd28  1  0.76318553  0.11244334  0.84410903  1
  Gd  Gd29  1  0.44684606  0.09678847  0.32830047  1
  Gd  Gd30  1  0.10478715  0.40293184  0.29661461  1
  Gd  Gd31  1  0.75133790  0.41499263  0.31066657  1
  Gd  Gd32  1  0.53671894  0.52618911  0.61097828  1
  Gd  Gd33  1  0.23266572  0.88053833  0.13170031  1
  Gd  Gd34  1  0.88191005  0.87744448  0.57451090  1
  Gd  Gd35  1  0.77507335  0.75296452  0.29682133  1
  N  N36  1  0.21337361  0.18686075  0.40642463  1
  N  N37  1  0.11466537  0.13471709  0.10302167  1
  N  N38  1  0.90894817  0.22495066  0.87157270  1
  N  N39  1  0.74790382  0.13295178  0.62701676  1
  N  N40  1  0.58458786  0.23363118  0.29552559  1
  N  N41  1  0.45269637  0.10082607  0.09909497  1
  N  N42  1  0.22232261  0.20620822  0.85513298  1
  N  N43  1  0.10193955  0.08924886  0.61628013  1
  N  N44  1  0.89971610  0.17486636  0.39439656  1
  N  N45  1  0.80086636  0.09270501  0.09523245  1
  N  N46  1  0.50595668  0.23567856  0.81051538  1
  N  N47  1  0.43819589  0.08455878  0.62177883  1
  N  N48  1  0.23161879  0.54806356  0.29621631  1
  N  N49  1  0.11729020  0.43573432  0.07926692  1
  N  N50  1  0.89045382  0.54224656  0.85852706  1
  N  N51  1  0.79962025  0.41206698  0.62899570  1
  N  N52  1  0.52133233  0.55476227  0.39270073  1
  N  N53  1  0.44987783  0.43392925  0.05425544  1
  N  N54  1  0.22258188  0.54551877  0.80617239  1
  N  N55  1  0.10008833  0.42254165  0.62839671  1
  N  N56  1  0.88306360  0.52896050  0.39284206  1
  N  N57  1  0.78309891  0.44084699  0.09504793  1
  N  N58  1  0.56164156  0.53300760  0.84655858  1
  N  N59  1  0.40691506  0.39205293  0.54331207  1
  N  N60  1  0.22313558  0.87029519  0.34663957  1
  N  N61  1  0.11600745  0.74813490  0.04958862  1
  N  N62  1  0.89778071  0.85092800  0.85169880  1
  N  N63  1  0.76363108  0.74279047  0.62880223  1
  N  N64  1  0.54946715  0.86038871  0.39509879  1
  N  N65  1  0.47275990  0.75871308  0.04493653  1
  N  N66  1  0.21974494  0.87112846  0.82040217  1
  N  N67  1  0.14885950  0.73166477  0.56431526  1
  N  N68  1  0.90454989  0.87515697  0.35732542  1
  N  N69  1  0.78296525  0.76548324  0.08247640  1
  N  N70  1  0.55697641  0.88340381  0.85419315  1
  N  N71  1  0.42453688  0.78585735  0.59399058  1
