# generated using pymatgen
data_Gd2Al7N9
_symmetry_space_group_name_H-M   'P 1'
_cell_length_a   9.87170723
_cell_length_b   9.86819896
_cell_length_c   10.83717733
_cell_angle_alpha   91.20887114
_cell_angle_beta   91.25282741
_cell_angle_gamma   59.74752116
_symmetry_Int_Tables_number   1
_chemical_formula_structural   Gd2Al7N9
_chemical_formula_sum   'Gd8 Al28 N36'
_cell_volume   911.66022972
_cell_formula_units_Z   4
loop_
 _symmetry_equiv_pos_site_id
 _symmetry_equiv_pos_as_xyz
  1  'x, y, z'
loop_
 _atom_site_type_symbol
 _atom_site_label
 _atom_site_symmetry_multiplicity
 _atom_site_fract_x
 _atom_site_fract_y
 _atom_site_fract_z
 _atom_site_occupancy
  Al  Al0  1  0.11298873  0.07453033  0.42154855  1
  Al  Al1  1  0.23643036  0.21691383  0.05272448  1
  Al  Al2  1  0.87795914  0.20707273  0.57900627  1
  Al  Al3  1  0.56368707  0.21914862  0.13123182  1
  Al  Al4  1  0.11928022  0.09481601  0.88797597  1
  Al  Al5  1  0.21370186  0.20318591  0.58757228  1
  Al  Al6  1  0.80527720  0.08535596  0.30799905  1
  Al  Al7  1  0.89940802  0.21955774  0.06034499  1
  Al  Al8  1  0.43011341  0.09617828  0.81225088  1
  Al  Al9  1  0.52780560  0.21331157  0.64082325  1
  Al  Al10  1  0.23022894  0.54244248  0.12860166  1
  Al  Al11  1  0.79569681  0.42441295  0.81643961  1
  Al  Al12  1  0.88269190  0.53123545  0.58280070  1
  Al  Al13  1  0.43588818  0.43293291  0.38600819  1
  Al  Al14  1  0.57522133  0.53521347  0.04276703  1
  Al  Al15  1  0.10802798  0.42606698  0.81620837  1
  Al  Al16  1  0.21663205  0.52851909  0.63469216  1
  Al  Al17  1  0.89772433  0.53932482  0.04857453  1
  Al  Al18  1  0.42512035  0.43164526  0.88622337  1
  Al  Al19  1  0.13363810  0.75333828  0.39390635  1
  Al  Al20  1  0.77766311  0.75292583  0.81973594  1
  Al  Al21  1  0.42526003  0.77077004  0.42843919  1
  Al  Al22  1  0.56718823  0.88296372  0.04564253  1
  Al  Al23  1  0.12044102  0.74945612  0.88297010  1
  Al  Al24  1  0.21596976  0.87570388  0.65426125  1
  Al  Al25  1  0.89592796  0.86222185  0.05157822  1
  Al  Al26  1  0.44404287  0.76761600  0.87627315  1
  Al  Al27  1  0.55129675  0.87078505  0.59147710  1
  Gd  Gd28  1  0.76508973  0.10920420  0.84659845  1
  Gd  Gd29  1  0.44763503  0.09955350  0.34285230  1
  Gd  Gd30  1  0.10842989  0.41978203  0.32457002  1
  Gd  Gd31  1  0.75167350  0.42266115  0.32356047  1
  Gd  Gd32  1  0.53432066  0.52759180  0.62346039  1
  Gd  Gd33  1  0.23666265  0.86982328  0.14417098  1
  Gd  Gd34  1  0.88121727  0.87573238  0.58181445  1
  Gd  Gd35  1  0.77214846  0.75947551  0.30753340  1
  N  N36  1  0.21214068  0.19084101  0.41209438  1
  N  N37  1  0.11995965  0.11302836  0.07173915  1
  N  N38  1  0.90185480  0.22576753  0.88398278  1
  N  N39  1  0.74711405  0.13187900  0.63256328  1
  N  N40  1  0.58320481  0.23744985  0.30518639  1
  N  N41  1  0.45425199  0.09714547  0.11476015  1
  N  N42  1  0.22482449  0.21058973  0.87198439  1
  N  N43  1  0.10142237  0.08625780  0.60293588  1
  N  N44  1  0.89766794  0.18069133  0.39794654  1
  N  N45  1  0.79990519  0.09012612  0.10721946  1
  N  N46  1  0.50713973  0.23510291  0.81845107  1
  N  N47  1  0.43429720  0.08611879  0.63373754  1
  N  N48  1  0.23739180  0.55726881  0.30687629  1
  N  N49  1  0.11624653  0.43021008  0.10678699  1
  N  N50  1  0.89347930  0.53827759  0.87293421  1
  N  N51  1  0.79875986  0.41167324  0.64067855  1
  N  N52  1  0.52284316  0.55802377  0.40840696  1
  N  N53  1  0.44884240  0.43069672  0.06323067  1
  N  N54  1  0.22242600  0.54417723  0.81597472  1
  N  N55  1  0.09941869  0.42236228  0.63741894  1
  N  N56  1  0.87876952  0.53910916  0.40802684  1
  N  N57  1  0.78357624  0.43596583  0.10806955  1
  N  N58  1  0.56186719  0.53230872  0.85822166  1
  N  N59  1  0.40472014  0.39296582  0.55201992  1
  N  N60  1  0.22537717  0.87424785  0.35597221  1
  N  N61  1  0.11690299  0.74340576  0.05955812  1
  N  N62  1  0.89842880  0.84842280  0.86554724  1
  N  N63  1  0.76261645  0.74329529  0.64496374  1
  N  N64  1  0.55055505  0.86284622  0.41139740  1
  N  N65  1  0.47429449  0.75438313  0.05613885  1
  N  N66  1  0.21860226  0.87348796  0.83523655  1
  N  N67  1  0.14856458  0.73494805  0.57701724  1
  N  N68  1  0.90576222  0.87723583  0.36764735  1
  N  N69  1  0.78364116  0.76204956  0.09395233  1
  N  N70  1  0.55615347  0.88399649  0.86756847  1
  N  N71  1  0.42246784  0.78762923  0.60890308  1
