# generated using pymatgen
data_Gd2Al7N9
_symmetry_space_group_name_H-M   'P 1'
_cell_length_a   9.88958117
_cell_length_b   9.90602017
_cell_length_c   10.40667575
_cell_angle_alpha   90.03162768
_cell_angle_beta   90.28995156
_cell_angle_gamma   59.98639534
_symmetry_Int_Tables_number   1
_chemical_formula_structural   Gd2Al7N9
_chemical_formula_sum   'Gd8 Al28 N36'
_cell_volume   882.78208842
_cell_formula_units_Z   4
loop_
 _symmetry_equiv_pos_site_id
 _symmetry_equiv_pos_as_xyz
  1  'x, y, z'
loop_
 _atom_site_type_symbol
 _atom_site_label
 _atom_site_symmetry_multiplicity
 _atom_site_fract_x
 _atom_site_fract_y
 _atom_site_fract_z
 _atom_site_occupancy
  Al  Al0  1  0.11088874  0.08767885  0.40667326  1
  Al  Al1  1  0.21424507  0.21254332  0.13932708  1
  Al  Al2  1  0.89575084  0.21593875  0.64867933  1
  Al  Al3  1  0.55975663  0.21099461  0.15017671  1
  Al  Al4  1  0.11315081  0.10138894  0.89597991  1
  Al  Al5  1  0.22226914  0.20405377  0.66654417  1
  Al  Al6  1  0.78377936  0.09991316  0.39245449  1
  Al  Al7  1  0.89746018  0.19766184  0.14852277  1
  Al  Al8  1  0.43895957  0.09919328  0.90341942  1
  Al  Al9  1  0.53800854  0.21129690  0.65054213  1
  Al  Al10  1  0.22171890  0.53907200  0.14279478  1
  Al  Al11  1  0.78953849  0.42360909  0.90276523  1
  Al  Al12  1  0.88700002  0.53574939  0.67185455  1
  Al  Al13  1  0.43547852  0.43581740  0.39614719  1
  Al  Al14  1  0.56082469  0.53349851  0.08468002  1
  Al  Al15  1  0.11486156  0.42693387  0.89598584  1
  Al  Al16  1  0.22284460  0.53103667  0.66176081  1
  Al  Al17  1  0.89676083  0.53740716  0.13061889  1
  Al  Al18  1  0.43473079  0.42699765  0.90196783  1
  Al  Al19  1  0.12867324  0.75627083  0.40388191  1
  Al  Al20  1  0.77933287  0.75915294  0.90723201  1
  Al  Al21  1  0.42820088  0.77234596  0.41458835  1
  Al  Al22  1  0.55750144  0.86796760  0.13689475  1
  Al  Al23  1  0.11333547  0.75352884  0.90281496  1
  Al  Al24  1  0.22323730  0.87856920  0.65167332  1
  Al  Al25  1  0.89338810  0.86923093  0.15417065  1
  Al  Al26  1  0.44639721  0.76481905  0.89439477  1
  Al  Al27  1  0.54962407  0.87763521  0.66650710  1
  Gd  Gd28  1  0.77699660  0.09925252  0.89465008  1
  Gd  Gd29  1  0.44357251  0.09538279  0.39168482  1
  Gd  Gd30  1  0.11789224  0.42804262  0.40957873  1
  Gd  Gd31  1  0.77348283  0.42006287  0.37600735  1
  Gd  Gd32  1  0.54638987  0.53559280  0.63480016  1
  Gd  Gd33  1  0.22896754  0.87345425  0.15345977  1
  Gd  Gd34  1  0.89361528  0.87043162  0.63691186  1
  Gd  Gd35  1  0.76574982  0.75909293  0.39036314  1
  N  N36  1  0.20284278  0.19429124  0.32279499  1
  N  N37  1  0.09830919  0.11958007  0.07575413  1
  N  N38  1  0.90554846  0.22111355  0.83189510  1
  N  N39  1  0.75773842  0.13444774  0.58981830  1
  N  N40  1  0.57138592  0.22678726  0.33064771  1
  N  N41  1  0.44579894  0.09772225  0.09463527  1
  N  N42  1  0.22522666  0.20361755  0.84950765  1
  N  N43  1  0.11120332  0.09777685  0.59591656  1
  N  N44  1  0.91475401  0.16820751  0.32890763  1
  N  N45  1  0.78149070  0.09074420  0.10854825  1
  N  N46  1  0.52404403  0.22238020  0.83609245  1
  N  N47  1  0.44186402  0.09090663  0.61250610  1
  N  N48  1  0.23194282  0.55429476  0.32331603  1
  N  N49  1  0.11787327  0.42714248  0.08370051  1
  N  N50  1  0.88683128  0.54096255  0.86037590  1
  N  N51  1  0.80512891  0.42178648  0.59519836  1
  N  N52  1  0.52070269  0.56183122  0.39195932  1
  N  N53  1  0.44424668  0.42626393  0.08631070  1
  N  N54  1  0.22468107  0.54062800  0.84607299  1
  N  N55  1  0.10453976  0.42964755  0.63301127  1
  N  N56  1  0.89944712  0.53496240  0.30763394  1
  N  N57  1  0.78286431  0.41851599  0.09397944  1
  N  N58  1  0.55979041  0.53108836  0.87115548  1
  N  N59  1  0.41259875  0.40652263  0.57690015  1
  N  N60  1  0.21909121  0.87649016  0.36907190  1
  N  N61  1  0.10077672  0.75029695  0.08537818  1
  N  N62  1  0.90209687  0.84534046  0.84995964  1
  N  N63  1  0.76037305  0.74495387  0.61078057  1
  N  N64  1  0.52608925  0.85987935  0.31526190  1
  N  N65  1  0.47147452  0.74831114  0.07315363  1
  N  N66  1  0.22021448  0.87392997  0.84534200  1
  N  N67  1  0.15039722  0.73681318  0.59069772  1
  N  N68  1  0.90574719  0.87825745  0.34969218  1
  N  N69  1  0.77816359  0.76555455  0.09611785  1
  N  N70  1  0.55679487  0.87658264  0.85204326  1
  N  N71  1  0.43029070  0.79597976  0.60050207  1
