# generated using pymatgen
data_Gd2Al7N9
_symmetry_space_group_name_H-M   'P 1'
_cell_length_a   9.87294032
_cell_length_b   9.87041503
_cell_length_c   10.41142260
_cell_angle_alpha   90.01908671
_cell_angle_beta   89.85091277
_cell_angle_gamma   60.03489970
_symmetry_Int_Tables_number   1
_chemical_formula_structural   Gd2Al7N9
_chemical_formula_sum   'Gd8 Al28 N36'
_cell_volume   878.96789693
_cell_formula_units_Z   4
loop_
 _symmetry_equiv_pos_site_id
 _symmetry_equiv_pos_as_xyz
  1  'x, y, z'
loop_
 _atom_site_type_symbol
 _atom_site_label
 _atom_site_symmetry_multiplicity
 _atom_site_fract_x
 _atom_site_fract_y
 _atom_site_fract_z
 _atom_site_occupancy
  Al  Al0  1  0.11242631  0.08626317  0.41562803  1
  Al  Al1  1  0.21398346  0.21302190  0.14764816  1
  Al  Al2  1  0.89767865  0.21500881  0.66002028  1
  Al  Al3  1  0.55868570  0.21116524  0.15836845  1
  Al  Al4  1  0.11223044  0.10238782  0.90438302  1
  Al  Al5  1  0.22375641  0.20376450  0.67642269  1
  Al  Al6  1  0.78417873  0.09940845  0.40075830  1
  Al  Al7  1  0.89482611  0.20112255  0.15732039  1
  Al  Al8  1  0.43899180  0.09977588  0.91073348  1
  Al  Al9  1  0.53912737  0.21325226  0.65843662  1
  Al  Al10  1  0.21985864  0.53920254  0.15161287  1
  Al  Al11  1  0.77991878  0.42881683  0.91877460  1
  Al  Al12  1  0.88917500  0.53515853  0.68406644  1
  Al  Al13  1  0.43522477  0.43659836  0.39698177  1
  Al  Al14  1  0.55153798  0.54115463  0.15265565  1
  Al  Al15  1  0.11503681  0.42734816  0.90583967  1
  Al  Al16  1  0.22554600  0.53138486  0.67010807  1
  Al  Al17  1  0.89396849  0.53670021  0.14031538  1
  Al  Al18  1  0.43774245  0.43200219  0.91579897  1
  Al  Al19  1  0.12610011  0.75700455  0.41219768  1
  Al  Al20  1  0.77910395  0.75866739  0.91666754  1
  Al  Al21  1  0.43076837  0.76784734  0.41232092  1
  Al  Al22  1  0.55646753  0.86883265  0.14497882  1
  Al  Al23  1  0.11395516  0.75343123  0.91087163  1
  Al  Al24  1  0.22723588  0.87514538  0.65817007  1
  Al  Al25  1  0.89222299  0.86944684  0.16194570  1
  Al  Al26  1  0.44954976  0.75838933  0.90869831  1
  Al  Al27  1  0.55063735  0.87437783  0.67415078  1
  Gd  Gd28  1  0.77567017  0.10021220  0.90470699  1
  Gd  Gd29  1  0.44304249  0.09579010  0.40162361  1
  Gd  Gd30  1  0.11590356  0.42730699  0.41948781  1
  Gd  Gd31  1  0.77615569  0.41655787  0.39112537  1
  Gd  Gd32  1  0.55168654  0.53214102  0.65330723  1
  Gd  Gd33  1  0.22373213  0.87689497  0.16034087  1
  Gd  Gd34  1  0.89333418  0.87161326  0.64705997  1
  Gd  Gd35  1  0.76651901  0.75893447  0.39999923  1
  N  N36  1  0.20361883  0.19326713  0.33108618  1
  N  N37  1  0.09605344  0.12254714  0.08376704  1
  N  N38  1  0.90339656  0.22348709  0.84275205  1
  N  N39  1  0.75869506  0.13604733  0.59748067  1
  N  N40  1  0.57236619  0.22487421  0.33904816  1
  N  N41  1  0.44548945  0.09816788  0.10199351  1
  N  N42  1  0.22538144  0.20402525  0.85840904  1
  N  N43  1  0.11388617  0.09626914  0.60508795  1
  N  N44  1  0.91627825  0.16830278  0.33770974  1
  N  N45  1  0.78140230  0.09101939  0.11803657  1
  N  N46  1  0.52332645  0.22604839  0.84414844  1
  N  N47  1  0.44376960  0.09009638  0.62240458  1
  N  N48  1  0.22809884  0.55451603  0.33298657  1
  N  N49  1  0.11610475  0.42776561  0.09324679  1
  N  N50  1  0.88612220  0.54004076  0.87167047  1
  N  N51  1  0.80746280  0.42152691  0.60573856  1
  N  N52  1  0.51998822  0.56216348  0.34424495  1
  N  N53  1  0.44341942  0.42824670  0.09920956  1
  N  N54  1  0.22712193  0.54012910  0.85493804  1
  N  N55  1  0.10746307  0.42893111  0.64275518  1
  N  N56  1  0.89767814  0.53228853  0.31792329  1
  N  N57  1  0.77566754  0.42215199  0.10808762  1
  N  N58  1  0.55855517  0.53356591  0.86866792  1
  N  N59  1  0.41747321  0.41054546  0.58005138  1
  N  N60  1  0.21951020  0.87482176  0.37668284  1
  N  N61  1  0.09960650  0.75013157  0.09342270  1
  N  N62  1  0.90228550  0.84539478  0.85920081  1
  N  N63  1  0.76288543  0.74328492  0.62030757  1
  N  N64  1  0.52892038  0.86123052  0.32361906  1
  N  N65  1  0.47023726  0.74660350  0.08626419  1
  N  N66  1  0.22258983  0.87289753  0.85318866  1
  N  N67  1  0.14955739  0.73746474  0.59871681  1
  N  N68  1  0.90565252  0.87857497  0.35763947  1
  N  N69  1  0.77757192  0.76537459  0.10536686  1
  N  N70  1  0.55624392  0.87476784  0.86036208  1
  N  N71  1  0.43621639  0.78751415  0.59875632  1
