# generated using pymatgen
data_Gd2Al7N9
_symmetry_space_group_name_H-M   'P 1'
_cell_length_a   9.86388254
_cell_length_b   9.87246035
_cell_length_c   10.74842986
_cell_angle_alpha   91.70721864
_cell_angle_beta   91.57640811
_cell_angle_gamma   59.88108378
_symmetry_Int_Tables_number   1
_chemical_formula_structural   Gd2Al7N9
_chemical_formula_sum   'Gd8 Al28 N36'
_cell_volume   904.87510851
_cell_formula_units_Z   4
loop_
 _symmetry_equiv_pos_site_id
 _symmetry_equiv_pos_as_xyz
  1  'x, y, z'
loop_
 _atom_site_type_symbol
 _atom_site_label
 _atom_site_symmetry_multiplicity
 _atom_site_fract_x
 _atom_site_fract_y
 _atom_site_fract_z
 _atom_site_occupancy
  Al  Al0  1  0.11388908  0.07321363  0.40247889  1
  Al  Al1  1  0.23061685  0.21678349  0.03596548  1
  Al  Al2  1  0.87772594  0.20649604  0.57174298  1
  Al  Al3  1  0.56286763  0.22161798  0.11949544  1
  Al  Al4  1  0.11054808  0.10173819  0.80685923  1
  Al  Al5  1  0.21803036  0.20583367  0.57877585  1
  Al  Al6  1  0.80633230  0.08063169  0.29799214  1
  Al  Al7  1  0.91121837  0.22440236  0.05100692  1
  Al  Al8  1  0.43218918  0.09473750  0.80216927  1
  Al  Al9  1  0.53035448  0.21270550  0.63263089  1
  Al  Al10  1  0.22878734  0.54554403  0.11512485  1
  Al  Al11  1  0.79442349  0.42671823  0.80643709  1
  Al  Al12  1  0.88708430  0.52731612  0.56922428  1
  Al  Al13  1  0.43110567  0.42904125  0.37498850  1
  Al  Al14  1  0.57353178  0.54109887  0.03334528  1
  Al  Al15  1  0.10819569  0.42907733  0.81095402  1
  Al  Al16  1  0.21748062  0.52612734  0.62423903  1
  Al  Al17  1  0.89551737  0.54637296  0.03269689  1
  Al  Al18  1  0.42510945  0.43376848  0.87659931  1
  Al  Al19  1  0.13084029  0.74567595  0.37996215  1
  Al  Al20  1  0.77663007  0.75505932  0.80496098  1
  Al  Al21  1  0.42576686  0.76605201  0.41266614  1
  Al  Al22  1  0.56707311  0.88634283  0.03362712  1
  Al  Al23  1  0.12022878  0.75210803  0.87197177  1
  Al  Al24  1  0.22142699  0.86313489  0.63806572  1
  Al  Al25  1  0.89641376  0.86507552  0.04228636  1
  Al  Al26  1  0.44274939  0.76993362  0.86469361  1
  Al  Al27  1  0.55220575  0.86994307  0.57629379  1
  Gd  Gd28  1  0.76395134  0.11303380  0.84495782  1
  Gd  Gd29  1  0.44731597  0.09608316  0.32773164  1
  Gd  Gd30  1  0.10246849  0.39764647  0.29135849  1
  Gd  Gd31  1  0.74953665  0.41391014  0.31045511  1
  Gd  Gd32  1  0.53688230  0.52592516  0.61095098  1
  Gd  Gd33  1  0.23162452  0.88368498  0.13142448  1
  Gd  Gd34  1  0.88206933  0.87752271  0.57437994  1
  Gd  Gd35  1  0.77582565  0.75049465  0.29706037  1
  N  N36  1  0.21411415  0.18610887  0.40670304  1
  N  N37  1  0.11324540  0.14194941  0.11241789  1
  N  N38  1  0.91089842  0.22517363  0.87332337  1
  N  N39  1  0.74840338  0.13292696  0.62791561  1
  N  N40  1  0.58469260  0.23319693  0.29581239  1
  N  N41  1  0.45255340  0.10168818  0.09854340  1
  N  N42  1  0.22262731  0.20489744  0.85549293  1
  N  N43  1  0.10200919  0.08905130  0.61710853  1
  N  N44  1  0.89980935  0.17395327  0.39452646  1
  N  N45  1  0.80169985  0.09354015  0.09608699  1
  N  N46  1  0.50642145  0.23543503  0.81140330  1
  N  N47  1  0.43866145  0.08407725  0.62207495  1
  N  N48  1  0.22987941  0.54508016  0.29593343  1
  N  N49  1  0.11746318  0.43755948  0.07451884  1
  N  N50  1  0.88961434  0.54336071  0.85788108  1
  N  N51  1  0.79990885  0.41144882  0.62928473  1
  N  N52  1  0.51987251  0.55419619  0.39251046  1
  N  N53  1  0.45032178  0.43473034  0.05481002  1
  N  N54  1  0.22290556  0.54588133  0.80657136  1
  N  N55  1  0.10044093  0.42166034  0.62984173  1
  N  N56  1  0.88401401  0.52579986  0.39255524  1
  N  N57  1  0.78281685  0.44332129  0.09561752  1
  N  N58  1  0.56183512  0.53320345  0.84686129  1
  N  N59  1  0.40720170  0.39144389  0.54406883  1
  N  N60  1  0.22278193  0.86891970  0.34547541  1
  N  N61  1  0.11632597  0.74954595  0.05020909  1
  N  N62  1  0.89775176  0.85147990  0.85208881  1
  N  N63  1  0.76400905  0.74245448  0.62793833  1
  N  N64  1  0.54944621  0.85952183  0.39436314  1
  N  N65  1  0.47178025  0.76033716  0.04504333  1
  N  N66  1  0.21960975  0.87145183  0.82014583  1
  N  N67  1  0.14896803  0.73072725  0.56377398  1
  N  N68  1  0.90409970  0.87436731  0.35721506  1
  N  N69  1  0.78280699  0.76674238  0.08281591  1
  N  N70  1  0.55734568  0.88314200  0.85404067  1
  N  N71  1  0.42446651  0.78565887  0.59335108  1
