# generated using pymatgen
data_Gd2Al7N9
_symmetry_space_group_name_H-M   'P 1'
_cell_length_a   9.85344900
_cell_length_b   9.86722174
_cell_length_c   10.72739628
_cell_angle_alpha   91.67258507
_cell_angle_beta   91.69917015
_cell_angle_gamma   59.95217339
_symmetry_Int_Tables_number   1
_chemical_formula_structural   Gd2Al7N9
_chemical_formula_sum   'Gd8 Al28 N36'
_cell_volume   902.29374678
_cell_formula_units_Z   4
loop_
 _symmetry_equiv_pos_site_id
 _symmetry_equiv_pos_as_xyz
  1  'x, y, z'
loop_
 _atom_site_type_symbol
 _atom_site_label
 _atom_site_symmetry_multiplicity
 _atom_site_fract_x
 _atom_site_fract_y
 _atom_site_fract_z
 _atom_site_occupancy
  Al  Al0  1  0.11038958  0.08418301  0.34791722  1
  Al  Al1  1  0.23120052  0.21636477  0.03752339  1
  Al  Al2  1  0.88615143  0.20177434  0.56475302  1
  Al  Al3  1  0.56281762  0.22223775  0.11556983  1
  Al  Al4  1  0.11097496  0.10188185  0.80475751  1
  Al  Al5  1  0.21315461  0.20026137  0.57294938  1
  Al  Al6  1  0.80511775  0.08035051  0.29328594  1
  Al  Al7  1  0.91021597  0.22605861  0.05331553  1
  Al  Al8  1  0.43193483  0.09473526  0.79818570  1
  Al  Al9  1  0.53104295  0.21175508  0.62798116  1
  Al  Al10  1  0.22899457  0.54430462  0.11068254  1
  Al  Al11  1  0.79655162  0.42477532  0.80222409  1
  Al  Al12  1  0.88760688  0.52570002  0.56576945  1
  Al  Al13  1  0.42893231  0.43046417  0.37080251  1
  Al  Al14  1  0.57530635  0.54037079  0.02873053  1
  Al  Al15  1  0.10953280  0.42698755  0.80825846  1
  Al  Al16  1  0.21721514  0.52476146  0.61918536  1
  Al  Al17  1  0.89492931  0.54791248  0.02790634  1
  Al  Al18  1  0.42624741  0.43297619  0.87192661  1
  Al  Al19  1  0.12952936  0.74737341  0.37318224  1
  Al  Al20  1  0.77691365  0.75529305  0.80000984  1
  Al  Al21  1  0.42115734  0.76943926  0.40701531  1
  Al  Al22  1  0.56834691  0.88680232  0.02923948  1
  Al  Al23  1  0.12051528  0.75048131  0.86694685  1
  Al  Al24  1  0.21890267  0.86705554  0.63404843  1
  Al  Al25  1  0.89635928  0.86565164  0.03808364  1
  Al  Al26  1  0.44512427  0.76851410  0.85892292  1
  Al  Al27  1  0.55129126  0.86985593  0.57193959  1
  Gd  Gd28  1  0.76689221  0.11358624  0.83878509  1
  Gd  Gd29  1  0.44877273  0.09832555  0.32778009  1
  Gd  Gd30  1  0.09945899  0.40020194  0.28657759  1
  Gd  Gd31  1  0.74524728  0.41553203  0.30738635  1
  Gd  Gd32  1  0.53674337  0.52617396  0.60598920  1
  Gd  Gd33  1  0.23473062  0.87862146  0.11737828  1
  Gd  Gd34  1  0.88236478  0.87675844  0.56908373  1
  Gd  Gd35  1  0.77335811  0.74966091  0.29277084  1
  N  N36  1  0.21275737  0.18659926  0.40041494  1
  N  N37  1  0.10959252  0.14683955  0.13228113  1
  N  N38  1  0.91428268  0.22566032  0.87685914  1
  N  N39  1  0.75018327  0.13254553  0.62178845  1
  N  N40  1  0.58479634  0.23571282  0.29175603  1
  N  N41  1  0.45294263  0.10107100  0.09689766  1
  N  N42  1  0.22450631  0.20230182  0.85794696  1
  N  N43  1  0.10074903  0.09153973  0.62522919  1
  N  N44  1  0.90285601  0.17241717  0.38628204  1
  N  N45  1  0.80240161  0.09362791  0.09335909  1
  N  N46  1  0.50851119  0.23398732  0.80762783  1
  N  N47  1  0.43698113  0.08440891  0.61736514  1
  N  N48  1  0.22826830  0.54493839  0.29113949  1
  N  N49  1  0.11706139  0.43713371  0.06887971  1
  N  N50  1  0.88977135  0.54356842  0.85313968  1
  N  N51  1  0.80071561  0.40867198  0.62452711  1
  N  N52  1  0.51577885  0.55716680  0.38832710  1
  N  N53  1  0.45057567  0.43521620  0.05061762  1
  N  N54  1  0.22359335  0.54459981  0.80202135  1
  N  N55  1  0.10155327  0.41824518  0.62634342  1
  N  N56  1  0.88227997  0.52527531  0.38911615  1
  N  N57  1  0.78291668  0.44552634  0.09400688  1
  N  N58  1  0.56375824  0.53168343  0.84253058  1
  N  N59  1  0.40738918  0.39087418  0.53966409  1
  N  N60  1  0.22230202  0.86815238  0.33058854  1
  N  N61  1  0.11587601  0.74741773  0.04539550  1
  N  N62  1  0.89781572  0.85226587  0.84761486  1
  N  N63  1  0.76376059  0.74177944  0.62314015  1
  N  N64  1  0.54761610  0.86025215  0.38986897  1
  N  N65  1  0.47551115  0.75882202  0.03992812  1
  N  N66  1  0.22112234  0.86970124  0.81987540  1
  N  N67  1  0.14939438  0.73097610  0.55818725  1
  N  N68  1  0.90204559  0.87402325  0.35194687  1
  N  N69  1  0.78337936  0.76727603  0.07836063  1
  N  N70  1  0.55820503  0.88313914  0.84945757  1
  N  N71  1  0.42215825  0.78693659  0.58872921  1
