# generated using pymatgen
data_Gd2Al7N9
_symmetry_space_group_name_H-M   'P 1'
_cell_length_a   9.94700577
_cell_length_b   9.92763569
_cell_length_c   10.55268012
_cell_angle_alpha   89.82592979
_cell_angle_beta   90.49960168
_cell_angle_gamma   59.39634570
_symmetry_Int_Tables_number   1
_chemical_formula_structural   Gd2Al7N9
_chemical_formula_sum   'Gd8 Al28 N36'
_cell_volume   896.86009571
_cell_formula_units_Z   4
loop_
 _symmetry_equiv_pos_site_id
 _symmetry_equiv_pos_as_xyz
  1  'x, y, z'
loop_
 _atom_site_type_symbol
 _atom_site_label
 _atom_site_symmetry_multiplicity
 _atom_site_fract_x
 _atom_site_fract_y
 _atom_site_fract_z
 _atom_site_occupancy
  Al  Al0  1  0.11405950  0.08705728  0.40425868  1
  Al  Al1  1  0.21983907  0.20718924  0.14368814  1
  Al  Al2  1  0.89199958  0.21975287  0.65827158  1
  Al  Al3  1  0.55101225  0.21193442  0.14234126  1
  Al  Al4  1  0.11691664  0.09985602  0.89752882  1
  Al  Al5  1  0.21817771  0.20301570  0.66646570  1
  Al  Al6  1  0.79972715  0.08359753  0.31306907  1
  Al  Al7  1  0.90603581  0.20426384  0.13657360  1
  Al  Al8  1  0.43329403  0.09835545  0.90640436  1
  Al  Al9  1  0.52588440  0.21519417  0.66123663  1
  Al  Al10  1  0.21992057  0.53977896  0.14260456  1
  Al  Al11  1  0.78934101  0.42714525  0.89724050  1
  Al  Al12  1  0.88672595  0.53331352  0.65997724  1
  Al  Al13  1  0.43796469  0.43189266  0.39458944  1
  Al  Al14  1  0.55982823  0.53241316  0.06916986  1
  Al  Al15  1  0.11834178  0.42327853  0.89443242  1
  Al  Al16  1  0.21741087  0.53178555  0.66026182  1
  Al  Al17  1  0.89762640  0.53462775  0.10095637  1
  Al  Al18  1  0.42381588  0.43062926  0.90282215  1
  Al  Al19  1  0.13522724  0.75811545  0.41554073  1
  Al  Al20  1  0.77270950  0.75991386  0.84518233  1
  Al  Al21  1  0.43696337  0.76883798  0.41757410  1
  Al  Al22  1  0.55179661  0.86533074  0.13463253  1
  Al  Al23  1  0.11810518  0.75484987  0.89200641  1
  Al  Al24  1  0.22305340  0.88025294  0.65089270  1
  Al  Al25  1  0.88741364  0.86063455  0.06033982  1
  Al  Al26  1  0.43994694  0.76936515  0.89448498  1
  Al  Al27  1  0.54030831  0.88168505  0.66847963  1
  Gd  Gd28  1  0.76194628  0.12330065  0.87788726  1
  Gd  Gd29  1  0.46045754  0.08289624  0.39586281  1
  Gd  Gd30  1  0.13576611  0.41770247  0.41219484  1
  Gd  Gd31  1  0.77384281  0.41973382  0.37910552  1
  Gd  Gd32  1  0.53843693  0.53140028  0.63286063  1
  Gd  Gd33  1  0.22297802  0.86749468  0.15881590  1
  Gd  Gd34  1  0.88268532  0.89066528  0.61452886  1
  Gd  Gd35  1  0.79653456  0.76291263  0.32518462  1
  N  N36  1  0.21893618  0.18296501  0.32430688  1
  N  N37  1  0.10916821  0.11312185  0.07455892  1
  N  N38  1  0.91248724  0.22559810  0.83749431  1
  N  N39  1  0.74333426  0.15023233  0.65203463  1
  N  N40  1  0.57489616  0.22359153  0.32015900  1
  N  N41  1  0.44577094  0.09372433  0.09357246  1
  N  N42  1  0.22332029  0.20256834  0.84692634  1
  N  N43  1  0.10421002  0.10058861  0.59386756  1
  N  N44  1  0.92386259  0.17046764  0.31228194  1
  N  N45  1  0.78529903  0.08361496  0.11288083  1
  N  N46  1  0.50473426  0.22875429  0.84344399  1
  N  N47  1  0.43708314  0.09240285  0.61337105  1
  N  N48  1  0.23148459  0.56129503  0.32100234  1
  N  N49  1  0.12329232  0.42231414  0.08234805  1
  N  N50  1  0.89072855  0.54024384  0.87264023  1
  N  N51  1  0.79751374  0.42385570  0.59839161  1
  N  N52  1  0.52075298  0.55694420  0.40822513  1
  N  N53  1  0.44135466  0.42809639  0.08309645  1
  N  N54  1  0.21853557  0.54281496  0.84046316  1
  N  N55  1  0.10144954  0.42886125  0.63219718  1
  N  N56  1  0.91352715  0.51943480  0.32171711  1
  N  N57  1  0.78216402  0.42089421  0.08580390  1
  N  N58  1  0.55671402  0.53001075  0.87385802  1
  N  N59  1  0.40350716  0.40190146  0.57138250  1
  N  N60  1  0.22620951  0.87393848  0.37216700  1
  N  N61  1  0.10601874  0.74418850  0.07242336  1
  N  N62  1  0.89227468  0.85872235  0.87226217  1
  N  N63  1  0.76197347  0.75237186  0.65507038  1
  N  N64  1  0.54128506  0.84648041  0.31803237  1
  N  N65  1  0.46366554  0.74978925  0.07220853  1
  N  N66  1  0.21891214  0.87585137  0.84112085  1
  N  N67  1  0.15245828  0.73803079  0.60005446  1
  N  N68  1  0.91125134  0.89245540  0.39844293  1
  N  N69  1  0.77669072  0.76139957  0.10537957  1
  N  N70  1  0.54522985  0.88051932  0.85211705  1
  N  N71  1  0.43070879  0.79551151  0.60115010  1
