# generated using pymatgen
data_Gd2Al7N9
_symmetry_space_group_name_H-M   'P 1'
_cell_length_a   9.86656409
_cell_length_b   9.87769538
_cell_length_c   10.61352321
_cell_angle_alpha   91.34566765
_cell_angle_beta   90.78352720
_cell_angle_gamma   60.24865122
_symmetry_Int_Tables_number   1
_chemical_formula_structural   Gd2Al7N9
_chemical_formula_sum   'Gd8 Al28 N36'
_cell_volume   897.78742975
_cell_formula_units_Z   4
loop_
 _symmetry_equiv_pos_site_id
 _symmetry_equiv_pos_as_xyz
  1  'x, y, z'
loop_
 _atom_site_type_symbol
 _atom_site_label
 _atom_site_symmetry_multiplicity
 _atom_site_fract_x
 _atom_site_fract_y
 _atom_site_fract_z
 _atom_site_occupancy
  Al  Al0  1  0.11327891  0.08691991  0.31854715  1
  Al  Al1  1  0.22883007  0.21500727  0.04762995  1
  Al  Al2  1  0.89338815  0.19511162  0.56291220  1
  Al  Al3  1  0.55975937  0.22418491  0.12135091  1
  Al  Al4  1  0.10894792  0.10711660  0.81245778  1
  Al  Al5  1  0.21316512  0.19755012  0.57356898  1
  Al  Al6  1  0.80334500  0.08434891  0.29181959  1
  Al  Al7  1  0.90135820  0.22702126  0.05660620  1
  Al  Al8  1  0.43374126  0.09389702  0.80377968  1
  Al  Al9  1  0.54008639  0.20822626  0.62970509  1
  Al  Al10  1  0.22239651  0.53889402  0.06604378  1
  Al  Al11  1  0.79205215  0.42623099  0.80660703  1
  Al  Al12  1  0.88969684  0.52668889  0.57374240  1
  Al  Al13  1  0.42834205  0.43922875  0.36833698  1
  Al  Al14  1  0.56920591  0.54884166  0.04573600  1
  Al  Al15  1  0.11089385  0.42457717  0.82166432  1
  Al  Al16  1  0.22254320  0.51733330  0.61097612  1
  Al  Al17  1  0.88911637  0.54569943  0.03258148  1
  Al  Al18  1  0.43877748  0.42994098  0.87727204  1
  Al  Al19  1  0.11312867  0.75749344  0.28200078  1
  Al  Al20  1  0.77650033  0.75525040  0.80842842  1
  Al  Al21  1  0.43399461  0.76246166  0.31126091  1
  Al  Al22  1  0.56240370  0.88337151  0.04808480  1
  Al  Al23  1  0.11686456  0.74803068  0.81739954  1
  Al  Al24  1  0.22148052  0.87305148  0.64276773  1
  Al  Al25  1  0.89559173  0.86168563  0.04342711  1
  Al  Al26  1  0.45006948  0.76991197  0.81704618  1
  Al  Al27  1  0.54794425  0.86509685  0.56966279  1
  Gd  Gd28  1  0.77397653  0.10405333  0.83897084  1
  Gd  Gd29  1  0.45193116  0.10413360  0.34662492  1
  Gd  Gd30  1  0.10297393  0.40988790  0.29345081  1
  Gd  Gd31  1  0.75602541  0.41180393  0.31279423  1
  Gd  Gd32  1  0.54188429  0.53529163  0.59231820  1
  Gd  Gd33  1  0.22467539  0.88817940  0.07610017  1
  Gd  Gd34  1  0.89531924  0.86550276  0.55641229  1
  Gd  Gd35  1  0.76560717  0.74926555  0.29328924  1
  N  N36  1  0.20949966  0.18735637  0.39887511  1
  N  N37  1  0.09984262  0.14873254  0.13609552  1
  N  N38  1  0.90977492  0.22711010  0.87936223  1
  N  N39  1  0.76082642  0.11737053  0.61836850  1
  N  N40  1  0.58663979  0.24101922  0.29719670  1
  N  N41  1  0.44726647  0.10391238  0.11003397  1
  N  N42  1  0.22671119  0.20040144  0.86578213  1
  N  N43  1  0.10350494  0.09107252  0.63233548  1
  N  N44  1  0.91139734  0.16661615  0.38347027  1
  N  N45  1  0.79753682  0.09462383  0.09298463  1
  N  N46  1  0.51536450  0.23122804  0.80979634  1
  N  N47  1  0.43943215  0.08408829  0.61686379  1
  N  N48  1  0.22626259  0.54333973  0.30960621  1
  N  N49  1  0.10839505  0.43390719  0.07223148  1
  N  N50  1  0.88822864  0.54165632  0.85558232  1
  N  N51  1  0.80361430  0.40356292  0.62632632  1
  N  N52  1  0.51614189  0.56713080  0.38147169  1
  N  N53  1  0.45325741  0.43347007  0.05639784  1
  N  N54  1  0.22269871  0.53646876  0.85497694  1
  N  N55  1  0.10727221  0.41729710  0.63433912  1
  N  N56  1  0.88214951  0.53037653  0.39683405  1
  N  N57  1  0.78047300  0.44288464  0.09838124  1
  N  N58  1  0.56061397  0.54405274  0.85457101  1
  N  N59  1  0.41836658  0.39287026  0.54528619  1
  N  N60  1  0.21774838  0.87142122  0.30432244  1
  N  N61  1  0.10055664  0.75205601  0.09836940  1
  N  N62  1  0.90321959  0.84481439  0.85829368  1
  N  N63  1  0.76212027  0.74568606  0.62753922  1
  N  N64  1  0.53747469  0.85963845  0.39143717  1
  N  N65  1  0.48603809  0.75306349  0.12028748  1
  N  N66  1  0.21815158  0.87784557  0.84317450  1
  N  N67  1  0.14588189  0.73213730  0.63374396  1
  N  N68  1  0.89704495  0.87503273  0.33959775  1
  N  N69  1  0.78017245  0.76396005  0.07930128  1
  N  N70  1  0.55395209  0.88273519  0.86729838  1
  N  N71  1  0.43207636  0.78738251  0.64193150  1
