# generated using pymatgen
data_Gd2Al7N9
_symmetry_space_group_name_H-M   'P 1'
_cell_length_a   9.87303116
_cell_length_b   9.87055728
_cell_length_c   10.41126012
_cell_angle_alpha   90.01985912
_cell_angle_beta   89.85415233
_cell_angle_gamma   60.03393344
_symmetry_Int_Tables_number   1
_chemical_formula_structural   Gd2Al7N9
_chemical_formula_sum   'Gd8 Al28 N36'
_cell_volume   878.96654368
_cell_formula_units_Z   4
loop_
 _symmetry_equiv_pos_site_id
 _symmetry_equiv_pos_as_xyz
  1  'x, y, z'
loop_
 _atom_site_type_symbol
 _atom_site_label
 _atom_site_symmetry_multiplicity
 _atom_site_fract_x
 _atom_site_fract_y
 _atom_site_fract_z
 _atom_site_occupancy
  Al  Al0  1  0.11243679  0.08620794  0.40835736  1
  Al  Al1  1  0.21399611  0.21296271  0.14037777  1
  Al  Al2  1  0.89767574  0.21495360  0.65274890  1
  Al  Al3  1  0.55869999  0.21110529  0.15109269  1
  Al  Al4  1  0.11223862  0.10233031  0.89711221  1
  Al  Al5  1  0.22375179  0.20370989  0.66914697  1
  Al  Al6  1  0.78418511  0.09936062  0.39348812  1
  Al  Al7  1  0.89484187  0.20106133  0.15004950  1
  Al  Al8  1  0.43899781  0.09971762  0.90346225  1
  Al  Al9  1  0.53912299  0.21319331  0.65116643  1
  Al  Al10  1  0.21987628  0.53914798  0.14433423  1
  Al  Al11  1  0.77992868  0.42875932  0.91149532  1
  Al  Al12  1  0.88916873  0.53510795  0.67678573  1
  Al  Al13  1  0.43524556  0.43653667  0.38970567  1
  Al  Al14  1  0.55156343  0.54108884  0.14537823  1
  Al  Al15  1  0.11504396  0.42729055  0.89856255  1
  Al  Al16  1  0.22554594  0.53132883  0.66283765  1
  Al  Al17  1  0.89399228  0.53664291  0.13303855  1
  Al  Al18  1  0.43775319  0.43194316  0.90852359  1
  Al  Al19  1  0.12611491  0.75695326  0.40492252  1
  Al  Al20  1  0.77911228  0.75861201  0.90939281  1
  Al  Al21  1  0.43078166  0.76779099  0.40505711  1
  Al  Al22  1  0.55648353  0.86876961  0.13770050  1
  Al  Al23  1  0.11396168  0.75337519  0.90359709  1
  Al  Al24  1  0.22723557  0.87509303  0.65090232  1
  Al  Al25  1  0.89223936  0.86939428  0.15467401  1
  Al  Al26  1  0.44956187  0.75832609  0.90141703  1
  Al  Al27  1  0.55063829  0.87432471  0.66687673  1
  Gd  Gd28  1  0.77568111  0.10015306  0.89742621  1
  Gd  Gd29  1  0.44306075  0.09572385  0.39434530  1
  Gd  Gd30  1  0.11594841  0.42725174  0.41221350  1
  Gd  Gd31  1  0.77619205  0.41651162  0.38384876  1
  Gd  Gd32  1  0.55167877  0.53208343  0.64602005  1
  Gd  Gd33  1  0.22376341  0.87682574  0.15306508  1
  Gd  Gd34  1  0.89334082  0.87155085  0.63977866  1
  Gd  Gd35  1  0.76653705  0.75888222  0.39271208  1
  N  N36  1  0.20362834  0.19321205  0.32381979  1
  N  N37  1  0.09606951  0.12248304  0.07650034  1
  N  N38  1  0.90340283  0.22342996  0.83548214  1
  N  N39  1  0.75869354  0.13598777  0.59021708  1
  N  N40  1  0.57237362  0.22481469  0.33177425  1
  N  N41  1  0.44550079  0.09810767  0.09472469  1
  N  N42  1  0.22538446  0.20396800  0.85113666  1
  N  N43  1  0.11388133  0.09621579  0.59781828  1
  N  N44  1  0.91628106  0.16825355  0.33044399  1
  N  N45  1  0.78141361  0.09096465  0.11076027  1
  N  N46  1  0.52332893  0.22598848  0.83688002  1
  N  N47  1  0.44376201  0.09004383  0.61512994  1
  N  N48  1  0.22812139  0.55447060  0.32570571  1
  N  N49  1  0.11612444  0.42770581  0.08597231  1
  N  N50  1  0.88612567  0.53998688  0.86439521  1
  N  N51  1  0.80745291  0.42147272  0.59847121  1
  N  N52  1  0.52001528  0.56209949  0.33699107  1
  N  N53  1  0.44343771  0.42818938  0.09193616  1
  N  N54  1  0.22712643  0.54007231  0.84766757  1
  N  N55  1  0.10745622  0.42888179  0.63548203  1
  N  N56  1  0.89771710  0.53223663  0.31065001  1
  N  N57  1  0.77569036  0.42209281  0.10081567  1
  N  N58  1  0.55856225  0.53350302  0.86138684  1
  N  N59  1  0.41746247  0.41048221  0.57277418  1
  N  N60  1  0.21952219  0.87476831  0.36941009  1
  N  N61  1  0.09961869  0.75007962  0.08614902  1
  N  N62  1  0.90229016  0.84533571  0.85192245  1
  N  N63  1  0.76287985  0.74323504  0.61302273  1
  N  N64  1  0.52892798  0.86116474  0.31634233  1
  N  N65  1  0.47026339  0.74653363  0.07898467  1
  N  N66  1  0.22259367  0.87284136  0.84591951  1
  N  N67  1  0.14956736  0.73740659  0.59144514  1
  N  N68  1  0.90566427  0.87852712  0.35036968  1
  N  N69  1  0.77758793  0.76532001  0.09809594  1
  N  N70  1  0.55625016  0.87471147  0.85309036  1
  N  N71  1  0.43621264  0.78746343  0.59149480  1
