# generated using pymatgen
data_Gd2Al7N9
_symmetry_space_group_name_H-M   'P 1'
_cell_length_a   9.87901533
_cell_length_b   9.88270735
_cell_length_c   10.75356306
_cell_angle_alpha   91.54527174
_cell_angle_beta   91.44971312
_cell_angle_gamma   59.81781097
_symmetry_Int_Tables_number   1
_chemical_formula_structural   Gd2Al7N9
_chemical_formula_sum   'Gd8 Al28 N36'
_cell_volume   907.13998647
_cell_formula_units_Z   4
loop_
 _symmetry_equiv_pos_site_id
 _symmetry_equiv_pos_as_xyz
  1  'x, y, z'
loop_
 _atom_site_type_symbol
 _atom_site_label
 _atom_site_symmetry_multiplicity
 _atom_site_fract_x
 _atom_site_fract_y
 _atom_site_fract_z
 _atom_site_occupancy
  Al  Al0  1  0.11380629  0.07303534  0.40911366  1
  Al  Al1  1  0.23167861  0.21577032  0.03655949  1
  Al  Al2  1  0.87709945  0.20719818  0.57194565  1
  Al  Al3  1  0.56302483  0.22053122  0.11945790  1
  Al  Al4  1  0.11234237  0.09998561  0.81989683  1
  Al  Al5  1  0.21707907  0.20556702  0.57871057  1
  Al  Al6  1  0.80620748  0.08230369  0.29822038  1
  Al  Al7  1  0.90844401  0.22119978  0.04835286  1
  Al  Al8  1  0.43187954  0.09525079  0.80123750  1
  Al  Al9  1  0.52964541  0.21322565  0.63122870  1
  Al  Al10  1  0.22907294  0.54451138  0.11557606  1
  Al  Al11  1  0.79387966  0.42693479  0.80558109  1
  Al  Al12  1  0.88534870  0.52930412  0.56944346  1
  Al  Al13  1  0.43336795  0.43044970  0.37440743  1
  Al  Al14  1  0.57427886  0.53880868  0.03293569  1
  Al  Al15  1  0.10766121  0.42889301  0.80775968  1
  Al  Al16  1  0.21745809  0.52721084  0.62353592  1
  Al  Al17  1  0.89660856  0.54303261  0.03452319  1
  Al  Al18  1  0.42476702  0.43332697  0.87595665  1
  Al  Al19  1  0.13150823  0.74888491  0.38115377  1
  Al  Al20  1  0.77693130  0.75430654  0.80613732  1
  Al  Al21  1  0.42581514  0.76738382  0.41363596  1
  Al  Al22  1  0.56688249  0.88528044  0.03392129  1
  Al  Al23  1  0.12000992  0.75112418  0.87168387  1
  Al  Al24  1  0.22064379  0.86570494  0.63936304  1
  Al  Al25  1  0.89616278  0.86390411  0.04153423  1
  Al  Al26  1  0.44354992  0.76898765  0.86491817  1
  Al  Al27  1  0.55209944  0.87015510  0.57718298  1
  Gd  Gd28  1  0.76271726  0.11190302  0.84306896  1
  Gd  Gd29  1  0.44692634  0.09721856  0.32928587  1
  Gd  Gd30  1  0.10593826  0.40636646  0.30021224  1
  Gd  Gd31  1  0.75179818  0.41593131  0.31112998  1
  Gd  Gd32  1  0.53620781  0.52657627  0.61093943  1
  Gd  Gd33  1  0.23348594  0.87854183  0.13172821  1
  Gd  Gd34  1  0.88194684  0.87725625  0.57430155  1
  Gd  Gd35  1  0.77448290  0.75422951  0.29665270  1
  N  N36  1  0.21294225  0.18719702  0.40551228  1
  N  N37  1  0.11627408  0.12858093  0.09146328  1
  N  N38  1  0.90651934  0.22554237  0.87051334  1
  N  N39  1  0.74760974  0.13285534  0.62617466  1
  N  N40  1  0.58450841  0.23414963  0.29537500  1
  N  N41  1  0.45288369  0.10041226  0.09969139  1
  N  N42  1  0.22284318  0.20750921  0.85491490  1
  N  N43  1  0.10199034  0.08884147  0.61305143  1
  N  N44  1  0.89956501  0.17566619  0.39365066  1
  N  N45  1  0.80038850  0.09237906  0.09482151  1
  N  N46  1  0.50579633  0.23582930  0.80979076  1
  N  N47  1  0.43792363  0.08478663  0.62128123  1
  N  N48  1  0.23258891  0.54990178  0.29638817  1
  N  N49  1  0.11719372  0.43445573  0.08244823  1
  N  N50  1  0.89104364  0.54150514  0.85887825  1
  N  N51  1  0.79917035  0.41251452  0.62860903  1
  N  N52  1  0.52159613  0.55536446  0.39307735  1
  N  N53  1  0.44967327  0.43349043  0.05393958  1
  N  N54  1  0.22251062  0.54524037  0.80588116  1
  N  N55  1  0.09989108  0.42291566  0.62737878  1
  N  N56  1  0.88224963  0.53085491  0.39316112  1
  N  N57  1  0.78346761  0.43949413  0.09516297  1
  N  N58  1  0.56158453  0.53297180  0.84646599  1
  N  N59  1  0.40657909  0.39232810  0.54276987  1
  N  N60  1  0.22310436  0.87134325  0.34695474  1
  N  N61  1  0.11595062  0.74714879  0.04933397  1
  N  N62  1  0.89797332  0.85046103  0.85167137  1
  N  N63  1  0.76347378  0.74295684  0.62937429  1
  N  N64  1  0.54944360  0.86059955  0.39557205  1
  N  N65  1  0.47356431  0.75772370  0.04489845  1
  N  N66  1  0.21991494  0.87098184  0.82105356  1
  N  N67  1  0.14889470  0.73235757  0.56477940  1
  N  N68  1  0.90467511  0.87555198  0.35729313  1
  N  N69  1  0.78312121  0.76484218  0.08225988  1
  N  N70  1  0.55681544  0.88366971  0.85432498  1
  N  N71  1  0.42433820  0.78616646  0.59468775  1
