# generated using pymatgen
data_Gd2Al7N9
_symmetry_space_group_name_H-M   'P 1'
_cell_length_a   9.87890872
_cell_length_b   9.87981117
_cell_length_c   10.40976444
_cell_angle_alpha   90.34528206
_cell_angle_beta   90.33375941
_cell_angle_gamma   60.15782476
_symmetry_Int_Tables_number   1
_chemical_formula_structural   Gd2Al7N9
_chemical_formula_sum   'Gd8 Al28 N36'
_cell_volume   881.26686877
_cell_formula_units_Z   4
loop_
 _symmetry_equiv_pos_site_id
 _symmetry_equiv_pos_as_xyz
  1  'x, y, z'
loop_
 _atom_site_type_symbol
 _atom_site_label
 _atom_site_symmetry_multiplicity
 _atom_site_fract_x
 _atom_site_fract_y
 _atom_site_fract_z
 _atom_site_occupancy
  Al  Al0  1  0.10808399  0.09156002  0.32044552  1
  Al  Al1  1  0.21945921  0.21183636  0.04306565  1
  Al  Al2  1  0.89711110  0.19825462  0.56221757  1
  Al  Al3  1  0.54326639  0.21413495  0.05843908  1
  Al  Al4  1  0.11693827  0.09350159  0.80369256  1
  Al  Al5  1  0.21801523  0.20424209  0.57347705  1
  Al  Al6  1  0.78631881  0.09218324  0.30403952  1
  Al  Al7  1  0.89569726  0.21824752  0.05535933  1
  Al  Al8  1  0.43895349  0.09992357  0.80617465  1
  Al  Al9  1  0.55415168  0.21288514  0.56036886  1
  Al  Al10  1  0.22085989  0.53656879  0.04918121  1
  Al  Al11  1  0.79353013  0.42248678  0.81005347  1
  Al  Al12  1  0.89412651  0.52954872  0.57647101  1
  Al  Al13  1  0.43951919  0.43953119  0.30624472  1
  Al  Al14  1  0.55911980  0.54158874  0.04769705  1
  Al  Al15  1  0.11486048  0.42891771  0.80875595  1
  Al  Al16  1  0.22900600  0.53240988  0.56428322  1
  Al  Al17  1  0.89149699  0.53790011  0.03380219  1
  Al  Al18  1  0.43285227  0.42842993  0.81162570  1
  Al  Al19  1  0.11327886  0.75824267  0.30994513  1
  Al  Al20  1  0.77607284  0.75284210  0.81303882  1
  Al  Al21  1  0.43977903  0.75939345  0.31199833  1
  Al  Al22  1  0.55762694  0.87420946  0.04276722  1
  Al  Al23  1  0.12552063  0.75206869  0.80533476  1
  Al  Al24  1  0.22366590  0.87639253  0.55983994  1
  Al  Al25  1  0.89635232  0.85684799  0.04857870  1
  Al  Al26  1  0.43588911  0.77409656  0.80863359  1
  Al  Al27  1  0.54647339  0.87444777  0.57273835  1
  Gd  Gd28  1  0.77415184  0.10288786  0.82961227  1
  Gd  Gd29  1  0.44168515  0.09422970  0.32061885  1
  Gd  Gd30  1  0.11288624  0.42411941  0.30582566  1
  Gd  Gd31  1  0.77361231  0.41539328  0.30714777  1
  Gd  Gd32  1  0.55223389  0.54299224  0.57846056  1
  Gd  Gd33  1  0.21887739  0.87844804  0.07509063  1
  Gd  Gd34  1  0.89095037  0.86694293  0.56773853  1
  Gd  Gd35  1  0.76762965  0.75812053  0.29640102  1
  N  N36  1  0.20532021  0.19306956  0.39493451  1
  N  N37  1  0.09689520  0.13494546  0.13482180  1
  N  N38  1  0.91513282  0.21628169  0.87606684  1
  N  N39  1  0.76350795  0.12145281  0.61556893  1
  N  N40  1  0.57173272  0.22645583  0.36963319  1
  N  N41  1  0.44045024  0.09385266  0.09954352  1
  N  N42  1  0.22343424  0.20332463  0.85607017  1
  N  N43  1  0.11016376  0.08921061  0.62074934  1
  N  N44  1  0.90545707  0.17186879  0.37969852  1
  N  N45  1  0.78021827  0.09754746  0.10286392  1
  N  N46  1  0.52010133  0.22417439  0.87787857  1
  N  N47  1  0.44818145  0.09676397  0.61478753  1
  N  N48  1  0.23328589  0.54984392  0.37926775  1
  N  N49  1  0.11019984  0.42846559  0.08319915  1
  N  N50  1  0.89444448  0.53620553  0.85379247  1
  N  N51  1  0.81046031  0.40391849  0.62653002  1
  N  N52  1  0.52746901  0.55523799  0.36270658  1
  N  N53  1  0.44069355  0.43397372  0.11510436  1
  N  N54  1  0.22263731  0.54224076  0.86622001  1
  N  N55  1  0.11455452  0.42890965  0.62126474  1
  N  N56  1  0.88606988  0.53683393  0.39528696  1
  N  N57  1  0.77646703  0.43632078  0.08872729  1
  N  N58  1  0.55390661  0.54104945  0.85523956  1
  N  N59  1  0.43029090  0.41129095  0.63089388  1
  N  N60  1  0.22074594  0.87118377  0.35613156  1
  N  N61  1  0.09981285  0.73961733  0.12465504  1
  N  N62  1  0.90948523  0.84165571  0.85876812  1
  N  N63  1  0.75892106  0.74459131  0.62941008  1
  N  N64  1  0.53907938  0.85695256  0.39188491  1
  N  N65  1  0.47706741  0.75065159  0.12271578  1
  N  N66  1  0.21939138  0.87620540  0.85953560  1
  N  N67  1  0.14627322  0.74405958  0.62198759  1
  N  N68  1  0.89639938  0.88015770  0.35138062  1
  N  N69  1  0.77736359  0.75865579  0.07723730  1
  N  N70  1  0.55092212  0.87841449  0.86065015  1
  N  N71  1  0.42240885  0.79604510  0.63044648  1
