# generated using pymatgen
data_Gd2Al7N9
_symmetry_space_group_name_H-M   'P 1'
_cell_length_a   9.85142027
_cell_length_b   9.86192723
_cell_length_c   10.51075002
_cell_angle_alpha   90.61841658
_cell_angle_beta   90.80288832
_cell_angle_gamma   60.59875467
_symmetry_Int_Tables_number   1
_chemical_formula_structural   Gd2Al7N9
_chemical_formula_sum   'Gd8 Al28 N36'
_cell_volume   889.54260684
_cell_formula_units_Z   4
loop_
 _symmetry_equiv_pos_site_id
 _symmetry_equiv_pos_as_xyz
  1  'x, y, z'
loop_
 _atom_site_type_symbol
 _atom_site_label
 _atom_site_symmetry_multiplicity
 _atom_site_fract_x
 _atom_site_fract_y
 _atom_site_fract_z
 _atom_site_occupancy
  Al  Al0  1  0.10809379  0.09187323  0.32192349  1
  Al  Al1  1  0.22303256  0.21387390  0.04135886  1
  Al  Al2  1  0.89621556  0.19706162  0.56055009  1
  Al  Al3  1  0.55221420  0.21248810  0.05806356  1
  Al  Al4  1  0.11853741  0.09375440  0.80360401  1
  Al  Al5  1  0.21760809  0.20334792  0.57343292  1
  Al  Al6  1  0.78923806  0.08733444  0.29644135  1
  Al  Al7  1  0.90115757  0.21998008  0.05628041  1
  Al  Al8  1  0.44084449  0.09833272  0.80831211  1
  Al  Al9  1  0.55435006  0.20057407  0.56940934  1
  Al  Al10  1  0.21811527  0.54273510  0.04782634  1
  Al  Al11  1  0.80056100  0.42052565  0.81003385  1
  Al  Al12  1  0.88981260  0.52709302  0.57351888  1
  Al  Al13  1  0.43122906  0.43523880  0.38534793  1
  Al  Al14  1  0.56732588  0.54913077  0.04663570  1
  Al  Al15  1  0.11602769  0.42867524  0.80712134  1
  Al  Al16  1  0.21234734  0.53666312  0.56239117  1
  Al  Al17  1  0.89525828  0.53954591  0.03298524  1
  Al  Al18  1  0.43998433  0.43468151  0.87428722  1
  Al  Al19  1  0.10905431  0.75875084  0.30481527  1
  Al  Al20  1  0.77891126  0.75196987  0.81148567  1
  Al  Al21  1  0.43682518  0.76015259  0.32052545  1
  Al  Al22  1  0.56283122  0.87556698  0.04250402  1
  Al  Al23  1  0.12557557  0.75223053  0.80366723  1
  Al  Al24  1  0.22175242  0.87593561  0.55943514  1
  Al  Al25  1  0.89929896  0.85780393  0.04729312  1
  Al  Al26  1  0.43489161  0.78064032  0.80836698  1
  Al  Al27  1  0.54534655  0.87370499  0.57240343  1
  Gd  Gd28  1  0.78109572  0.09959077  0.82849197  1
  Gd  Gd29  1  0.44118313  0.09582051  0.31444798  1
  Gd  Gd30  1  0.10142838  0.42010310  0.30214826  1
  Gd  Gd31  1  0.75283749  0.41241726  0.30853192  1
  Gd  Gd32  1  0.54952630  0.54150228  0.59981367  1
  Gd  Gd33  1  0.22589967  0.87923996  0.07610213  1
  Gd  Gd34  1  0.88855894  0.86668769  0.56043534  1
  Gd  Gd35  1  0.76200462  0.75111339  0.29372350  1
  N  N36  1  0.20814481  0.19225195  0.39687043  1
  N  N37  1  0.10276818  0.13597877  0.13670442  1
  N  N38  1  0.91909137  0.21764625  0.87844485  1
  N  N39  1  0.76254254  0.11891700  0.61538278  1
  N  N40  1  0.57750870  0.22263359  0.35020511  1
  N  N41  1  0.44469936  0.09570990  0.09513317  1
  N  N42  1  0.22568558  0.20371352  0.85655293  1
  N  N43  1  0.10844648  0.08839697  0.62149814  1
  N  N44  1  0.90580377  0.16911163  0.37934430  1
  N  N45  1  0.78764675  0.09664235  0.09868814  1
  N  N46  1  0.52883590  0.21813269  0.87260366  1
  N  N47  1  0.44643020  0.09320232  0.62059968  1
  N  N48  1  0.21063476  0.55655359  0.37686642  1
  N  N49  1  0.11406137  0.42975209  0.08173858  1
  N  N50  1  0.89743337  0.53688262  0.85480246  1
  N  N51  1  0.81078150  0.39970908  0.62923219  1
  N  N52  1  0.51691352  0.56267202  0.38109947  1
  N  N53  1  0.44736347  0.44169808  0.06416218  1
  N  N54  1  0.22160322  0.54320651  0.86179373  1
  N  N55  1  0.10938967  0.42744775  0.62260219  1
  N  N56  1  0.87544375  0.52957453  0.39429864  1
  N  N57  1  0.78213150  0.43798377  0.09247644  1
  N  N58  1  0.56025967  0.54718521  0.85207204  1
  N  N59  1  0.42407381  0.40791820  0.57130985  1
  N  N60  1  0.21725460  0.87206284  0.35669789  1
  N  N61  1  0.10277374  0.74405679  0.12114842  1
  N  N62  1  0.91186106  0.84054880  0.85926576  1
  N  N63  1  0.75892948  0.74292475  0.62911726  1
  N  N64  1  0.53742027  0.86191078  0.39373124  1
  N  N65  1  0.48483219  0.75185295  0.12986305  1
  N  N66  1  0.22081234  0.87676239  0.86087751  1
  N  N67  1  0.14238521  0.74467351  0.62211802  1
  N  N68  1  0.89202507  0.87688651  0.34463267  1
  N  N69  1  0.78129136  0.75905347  0.07657392  1
  N  N70  1  0.55382891  0.87834508  0.86219187  1
  N  N71  1  0.41894772  0.79926074  0.63182299  1
