# generated using pymatgen
data_Gd2Al7N9
_symmetry_space_group_name_H-M   'P 1'
_cell_length_a   9.88330916
_cell_length_b   9.88288552
_cell_length_c   10.77401564
_cell_angle_alpha   91.50697755
_cell_angle_beta   91.39891316
_cell_angle_gamma   59.79584377
_symmetry_Int_Tables_number   1
_chemical_formula_structural   Gd2Al7N9
_chemical_formula_sum   'Gd8 Al28 N36'
_cell_volume   909.09787012
_cell_formula_units_Z   4
loop_
 _symmetry_equiv_pos_site_id
 _symmetry_equiv_pos_as_xyz
  1  'x, y, z'
loop_
 _atom_site_type_symbol
 _atom_site_label
 _atom_site_symmetry_multiplicity
 _atom_site_fract_x
 _atom_site_fract_y
 _atom_site_fract_z
 _atom_site_occupancy
  Al  Al0  1  0.11346760  0.07221861  0.41248084  1
  Al  Al1  1  0.23578619  0.21756118  0.03676911  1
  Al  Al2  1  0.87852669  0.20658881  0.57066424  1
  Al  Al3  1  0.56312884  0.22051257  0.11988403  1
  Al  Al4  1  0.11740449  0.09645288  0.86295829  1
  Al  Al5  1  0.21521580  0.20355760  0.57754476  1
  Al  Al6  1  0.80567970  0.08319086  0.29814383  1
  Al  Al7  1  0.90214651  0.22200806  0.04775449  1
  Al  Al8  1  0.43142030  0.09543037  0.79979218  1
  Al  Al9  1  0.52934032  0.21330377  0.63033397  1
  Al  Al10  1  0.22943040  0.54392542  0.11637165  1
  Al  Al11  1  0.79431383  0.42634790  0.80427088  1
  Al  Al12  1  0.88468963  0.52976761  0.56964826  1
  Al  Al13  1  0.43381555  0.43104037  0.37452233  1
  Al  Al14  1  0.57481025  0.53785524  0.03246270  1
  Al  Al15  1  0.10771651  0.42787952  0.80560971  1
  Al  Al16  1  0.21728019  0.52773996  0.62310569  1
  Al  Al17  1  0.89689805  0.54223983  0.03493673  1
  Al  Al18  1  0.42486275  0.43291635  0.87544407  1
  Al  Al19  1  0.13204195  0.75035877  0.38171930  1
  Al  Al20  1  0.77727786  0.75393907  0.80637373  1
  Al  Al21  1  0.42460179  0.76853510  0.41447749  1
  Al  Al22  1  0.56705531  0.88484488  0.03391141  1
  Al  Al23  1  0.12024094  0.75036347  0.87145470  1
  Al  Al24  1  0.21798856  0.87220165  0.64136939  1
  Al  Al25  1  0.89611590  0.86358800  0.04098421  1
  Al  Al26  1  0.44429296  0.76813161  0.86444003  1
  Al  Al27  1  0.55207690  0.86980697  0.57745674  1
  Gd  Gd28  1  0.76292941  0.11100802  0.84016544  1
  Gd  Gd29  1  0.44813830  0.09763301  0.33146266  1
  Gd  Gd30  1  0.10672069  0.41135705  0.30498970  1
  Gd  Gd31  1  0.75095466  0.41814587  0.31213252  1
  Gd  Gd32  1  0.53520704  0.52730243  0.61090357  1
  Gd  Gd33  1  0.23501947  0.87515375  0.13158444  1
  Gd  Gd34  1  0.88240816  0.87683517  0.57351255  1
  Gd  Gd35  1  0.77367787  0.75534775  0.29667350  1
  N  N36  1  0.21289526  0.18768597  0.40164608  1
  N  N37  1  0.11915006  0.11835588  0.06331432  1
  N  N38  1  0.90180440  0.22728913  0.87031349  1
  N  N39  1  0.74753966  0.13275318  0.62447026  1
  N  N40  1  0.58405733  0.23526926  0.29489975  1
  N  N41  1  0.45300530  0.09992711  0.10098533  1
  N  N42  1  0.22451049  0.20975521  0.85566861  1
  N  N43  1  0.10241860  0.08634544  0.59787167  1
  N  N44  1  0.89869702  0.17752284  0.38967958  1
  N  N45  1  0.80018042  0.09214224  0.09483273  1
  N  N46  1  0.50604864  0.23566607  0.80878702  1
  N  N47  1  0.43723037  0.08506014  0.62032184  1
  N  N48  1  0.23374987  0.55200905  0.29637893  1
  N  N49  1  0.11674165  0.43267985  0.08676606  1
  N  N50  1  0.89183030  0.54053757  0.85927635  1
  N  N51  1  0.79872762  0.41260275  0.62794881  1
  N  N52  1  0.52085438  0.55644758  0.39406340  1
  N  N53  1  0.44941713  0.43297173  0.05344468  1
  N  N54  1  0.22246436  0.54477880  0.80550143  1
  N  N55  1  0.09997318  0.42255796  0.62599575  1
  N  N56  1  0.88096907  0.53306751  0.39399929  1
  N  N57  1  0.78413173  0.43847317  0.09621395  1
  N  N58  1  0.56160670  0.53304343  0.84661080  1
  N  N59  1  0.40614841  0.39242972  0.54209871  1
  N  N60  1  0.22329467  0.87215407  0.34491225  1
  N  N61  1  0.11643120  0.74592271  0.04923384  1
  N  N62  1  0.89846439  0.84956810  0.85240103  1
  N  N63  1  0.76341813  0.74312666  0.63017889  1
  N  N64  1  0.54947551  0.86026495  0.39628108  1
  N  N65  1  0.47412620  0.75673793  0.04497918  1
  N  N66  1  0.21952487  0.87220288  0.82303241  1
  N  N67  1  0.14925045  0.73336900  0.56545472  1
  N  N68  1  0.90461085  0.87593082  0.35719229  1
  N  N69  1  0.78329415  0.76431220  0.08217408  1
  N  N70  1  0.55658087  0.88399929  0.85472227  1
  N  N71  1  0.42351466  0.78683418  0.59593678  1
