# generated using pymatgen
data_Gd2Al7N9
_symmetry_space_group_name_H-M   'P 1'
_cell_length_a   9.85272188
_cell_length_b   9.86603300
_cell_length_c   10.73645934
_cell_angle_alpha   91.75838467
_cell_angle_beta   91.72492418
_cell_angle_gamma   59.95570980
_symmetry_Int_Tables_number   1
_chemical_formula_structural   Gd2Al7N9
_chemical_formula_sum   'Gd8 Al28 N36'
_cell_volume   902.87772593
_cell_formula_units_Z   4
loop_
 _symmetry_equiv_pos_site_id
 _symmetry_equiv_pos_as_xyz
  1  'x, y, z'
loop_
 _atom_site_type_symbol
 _atom_site_label
 _atom_site_symmetry_multiplicity
 _atom_site_fract_x
 _atom_site_fract_y
 _atom_site_fract_z
 _atom_site_occupancy
  Al  Al0  1  0.11150520  0.07987629  0.36282840  1
  Al  Al1  1  0.23131994  0.21683660  0.03515662  1
  Al  Al2  1  0.88403298  0.20283490  0.56585283  1
  Al  Al3  1  0.56287433  0.22243231  0.11541864  1
  Al  Al4  1  0.11081920  0.10201789  0.80375650  1
  Al  Al5  1  0.21430059  0.20164088  0.57369892  1
  Al  Al6  1  0.80536812  0.07980093  0.29296654  1
  Al  Al7  1  0.91102350  0.22655527  0.05161304  1
  Al  Al8  1  0.43223015  0.09465824  0.79793115  1
  Al  Al9  1  0.53097020  0.21191640  0.62816801  1
  Al  Al10  1  0.22894254  0.54491461  0.11059715  1
  Al  Al11  1  0.79592561  0.42546185  0.80202945  1
  Al  Al12  1  0.88771620  0.52565617  0.56528977  1
  Al  Al13  1  0.42880011  0.42972891  0.37086295  1
  Al  Al14  1  0.57489559  0.54119827  0.02885607  1
  Al  Al15  1  0.10932197  0.42771530  0.80831330  1
  Al  Al16  1  0.21718688  0.52491007  0.61941050  1
  Al  Al17  1  0.89503449  0.54835502  0.02741010  1
  Al  Al18  1  0.42614255  0.43333846  0.87209468  1
  Al  Al19  1  0.12957749  0.74575108  0.37351084  1
  Al  Al20  1  0.77686394  0.75541408  0.79976154  1
  Al  Al21  1  0.42241027  0.76804860  0.40724437  1
  Al  Al22  1  0.56822073  0.88710930  0.02905187  1
  Al  Al23  1  0.12064731  0.75105146  0.86724743  1
  Al  Al24  1  0.21943101  0.86607394  0.63384266  1
  Al  Al25  1  0.89662623  0.86580882  0.03815768  1
  Al  Al26  1  0.44448098  0.76910448  0.85934288  1
  Al  Al27  1  0.55149745  0.86984254  0.57161842  1
  Gd  Gd28  1  0.76635677  0.11352260  0.83941417  1
  Gd  Gd29  1  0.44848188  0.09759122  0.32621347  1
  Gd  Gd30  1  0.09911752  0.39740454  0.28439660  1
  Gd  Gd31  1  0.74543548  0.41450244  0.30682960  1
  Gd  Gd32  1  0.53653898  0.52619273  0.60615062  1
  Gd  Gd33  1  0.23362889  0.88148658  0.11981955  1
  Gd  Gd34  1  0.88228731  0.87692175  0.56905281  1
  Gd  Gd35  1  0.77406264  0.74874385  0.29256886  1
  N  N36  1  0.21328422  0.18642967  0.40118329  1
  N  N37  1  0.11097511  0.14753239  0.12567634  1
  N  N38  1  0.91351430  0.22596694  0.87492466  1
  N  N39  1  0.74985898  0.13247403  0.62250508  1
  N  N40  1  0.58483139  0.23491722  0.29171285  1
  N  N41  1  0.45301566  0.10165488  0.09587864  1
  N  N42  1  0.22430985  0.20285251  0.85578598  1
  N  N43  1  0.10097975  0.09100988  0.62251732  1
  N  N44  1  0.90140465  0.17246156  0.38772293  1
  N  N45  1  0.80261653  0.09398527  0.09329409  1
  N  N46  1  0.50816816  0.23441068  0.80756567  1
  N  N47  1  0.43753836  0.08417939  0.61738779  1
  N  N48  1  0.22799958  0.54366314  0.29102221  1
  N  N49  1  0.11737541  0.43797450  0.06734119  1
  N  N50  1  0.88942590  0.54397168  0.85286043  1
  N  N51  1  0.80026732  0.40941598  0.62455210  1
  N  N52  1  0.51622935  0.55610139  0.38816525  1
  N  N53  1  0.45085017  0.43542497  0.05072048  1
  N  N54  1  0.22364614  0.54510474  0.80206655  1
  N  N55  1  0.10122411  0.41894702  0.62650530  1
  N  N56  1  0.88292962  0.52407299  0.38857951  1
  N  N57  1  0.78303720  0.44593554  0.09361502  1
  N  N58  1  0.56331837  0.53231872  0.84259341  1
  N  N59  1  0.40734343  0.39078191  0.53978834  1
  N  N60  1  0.22236052  0.86729167  0.33305712  1
  N  N61  1  0.11628567  0.74853687  0.04571473  1
  N  N62  1  0.89796020  0.85214302  0.84776604  1
  N  N63  1  0.76388037  0.74186122  0.62281375  1
  N  N64  1  0.54786871  0.85986759  0.38946074  1
  N  N65  1  0.47438751  0.75990934  0.04013062  1
  N  N66  1  0.22079919  0.87024059  0.81867806  1
  N  N67  1  0.14928223  0.73058033  0.55819920  1
  N  N68  1  0.90232522  0.87362511  0.35190826  1
  N  N69  1  0.78331246  0.76766044  0.07840234  1
  N  N70  1  0.55816639  0.88315972  0.84935562  1
  N  N71  1  0.42256853  0.78666712  0.58837624  1
