# generated using pymatgen
data_Gd2Al7N9
_symmetry_space_group_name_H-M   'P 1'
_cell_length_a   9.84177022
_cell_length_b   9.88970239
_cell_length_c   10.62940277
_cell_angle_alpha   91.43499445
_cell_angle_beta   90.99327790
_cell_angle_gamma   60.17913415
_symmetry_Int_Tables_number   1
_chemical_formula_structural   Gd2Al7N9
_chemical_formula_sum   'Gd8 Al28 N36'
_cell_volume   897.29230355
_cell_formula_units_Z   4
loop_
 _symmetry_equiv_pos_site_id
 _symmetry_equiv_pos_as_xyz
  1  'x, y, z'
loop_
 _atom_site_type_symbol
 _atom_site_label
 _atom_site_symmetry_multiplicity
 _atom_site_fract_x
 _atom_site_fract_y
 _atom_site_fract_z
 _atom_site_occupancy
  Al  Al0  1  0.11341961  0.08769653  0.31862299  1
  Al  Al1  1  0.23193340  0.21636647  0.04787591  1
  Al  Al2  1  0.89102165  0.19606168  0.56273273  1
  Al  Al3  1  0.56235830  0.22197115  0.12070738  1
  Al  Al4  1  0.10868574  0.10741548  0.81224020  1
  Al  Al5  1  0.21114173  0.19890938  0.57406722  1
  Al  Al6  1  0.80436074  0.08443603  0.29100283  1
  Al  Al7  1  0.90211809  0.22859368  0.05708834  1
  Al  Al8  1  0.43478831  0.09235387  0.80394217  1
  Al  Al9  1  0.53692557  0.20969485  0.62971818  1
  Al  Al10  1  0.23299265  0.53540261  0.10733073  1
  Al  Al11  1  0.79027212  0.42702840  0.80651315  1
  Al  Al12  1  0.88811310  0.52521425  0.57386099  1
  Al  Al13  1  0.42631890  0.43894907  0.36936095  1
  Al  Al14  1  0.57024413  0.54926322  0.04465645  1
  Al  Al15  1  0.11040745  0.42194336  0.82053125  1
  Al  Al16  1  0.22312355  0.51646639  0.63288473  1
  Al  Al17  1  0.89316001  0.54551570  0.03265609  1
  Al  Al18  1  0.43393202  0.43017219  0.87826194  1
  Al  Al19  1  0.11095260  0.76351771  0.28121438  1
  Al  Al20  1  0.77696541  0.75383877  0.80843469  1
  Al  Al21  1  0.43422647  0.76294448  0.31184637  1
  Al  Al22  1  0.56435709  0.88273859  0.04818185  1
  Al  Al23  1  0.11696981  0.74922211  0.81570430  1
  Al  Al24  1  0.21864893  0.87503039  0.64061810  1
  Al  Al25  1  0.89881327  0.86001700  0.04214678  1
  Al  Al26  1  0.44909730  0.77000879  0.81670985  1
  Al  Al27  1  0.54766326  0.86364630  0.57042971  1
  Gd  Gd28  1  0.77543169  0.10337182  0.83715229  1
  Gd  Gd29  1  0.45457992  0.10439724  0.35096640  1
  Gd  Gd30  1  0.10108589  0.40568829  0.29427296  1
  Gd  Gd31  1  0.75180077  0.41269446  0.31344106  1
  Gd  Gd32  1  0.53556050  0.53576287  0.59388762  1
  Gd  Gd33  1  0.22595335  0.89099768  0.07511801  1
  Gd  Gd34  1  0.89240449  0.86546548  0.55573683  1
  Gd  Gd35  1  0.76553183  0.74817060  0.29198884  1
  N  N36  1  0.21103566  0.18609015  0.39934081  1
  N  N37  1  0.10091148  0.15268771  0.13798653  1
  N  N38  1  0.90947851  0.22814843  0.87997201  1
  N  N39  1  0.75822701  0.11837311  0.61698159  1
  N  N40  1  0.58724002  0.24258325  0.29650728  1
  N  N41  1  0.45031615  0.10235452  0.11098058  1
  N  N42  1  0.22775478  0.19897245  0.86680028  1
  N  N43  1  0.10155958  0.09275095  0.63254746  1
  N  N44  1  0.91128578  0.16750567  0.38330566  1
  N  N45  1  0.79981661  0.09419039  0.09327539  1
  N  N46  1  0.51640225  0.22972955  0.81081261  1
  N  N47  1  0.43911005  0.08304028  0.61730547  1
  N  N48  1  0.23154967  0.54126896  0.29042900  1
  N  N49  1  0.11456437  0.43561775  0.07109977  1
  N  N50  1  0.88846222  0.54074734  0.85636668  1
  N  N51  1  0.79851829  0.40474723  0.62599616  1
  N  N52  1  0.51185042  0.56877246  0.38344734  1
  N  N53  1  0.45263061  0.43331280  0.05598281  1
  N  N54  1  0.22848403  0.53084009  0.81997470  1
  N  N55  1  0.10328312  0.41479378  0.63327440  1
  N  N56  1  0.88141575  0.52968086  0.39641572  1
  N  N57  1  0.78215393  0.44403474  0.09980964  1
  N  N58  1  0.55928427  0.54457877  0.85567398  1
  N  N59  1  0.40962292  0.39377313  0.54324080  1
  N  N60  1  0.21777197  0.87315403  0.30374148  1
  N  N61  1  0.10526494  0.75206720  0.09527575  1
  N  N62  1  0.90376847  0.84377541  0.85804354  1
  N  N63  1  0.76172355  0.74367804  0.62833382  1
  N  N64  1  0.53839290  0.85937526  0.39206715  1
  N  N65  1  0.48777919  0.75259691  0.12170905  1
  N  N66  1  0.21744090  0.87843853  0.84331227  1
  N  N67  1  0.14151661  0.73779516  0.62822060  1
  N  N68  1  0.89753279  0.87462907  0.33830392  1
  N  N69  1  0.78290407  0.76332670  0.07916007  1
  N  N70  1  0.55421227  0.88156074  0.86779336  1
  N  N71  1  0.43037805  0.78767948  0.64194469  1
