# generated using pymatgen
data_Gd2Al7N9
_symmetry_space_group_name_H-M   'P 1'
_cell_length_a   9.87526887
_cell_length_b   9.87364888
_cell_length_c   10.41298189
_cell_angle_alpha   90.32418787
_cell_angle_beta   90.41203756
_cell_angle_gamma   60.25396578
_symmetry_Int_Tables_number   1
_chemical_formula_structural   Gd2Al7N9
_chemical_formula_sum   'Gd8 Al28 N36'
_cell_volume   881.50666590
_cell_formula_units_Z   4
loop_
 _symmetry_equiv_pos_site_id
 _symmetry_equiv_pos_as_xyz
  1  'x, y, z'
loop_
 _atom_site_type_symbol
 _atom_site_label
 _atom_site_symmetry_multiplicity
 _atom_site_fract_x
 _atom_site_fract_y
 _atom_site_fract_z
 _atom_site_occupancy
  Al  Al0  1  0.10763356  0.09206172  0.32039052  1
  Al  Al1  1  0.22059450  0.21160575  0.04272287  1
  Al  Al2  1  0.89731357  0.19780122  0.56203385  1
  Al  Al3  1  0.54419093  0.21472796  0.05810662  1
  Al  Al4  1  0.11757301  0.09329057  0.80372999  1
  Al  Al5  1  0.21811118  0.20426027  0.57344722  1
  Al  Al6  1  0.78616814  0.09165555  0.30381882  1
  Al  Al7  1  0.89695290  0.21790389  0.05595455  1
  Al  Al8  1  0.43963076  0.09995229  0.80628604  1
  Al  Al9  1  0.55428119  0.21306290  0.56109601  1
  Al  Al10  1  0.22202087  0.53638515  0.04924830  1
  Al  Al11  1  0.79540331  0.42146110  0.81070802  1
  Al  Al12  1  0.89394111  0.52855848  0.57605790  1
  Al  Al13  1  0.43741867  0.44056018  0.30924596  1
  Al  Al14  1  0.55987270  0.54167303  0.04714959  1
  Al  Al15  1  0.11524319  0.42875694  0.80878940  1
  Al  Al16  1  0.22829759  0.53278571  0.56489278  1
  Al  Al17  1  0.89249902  0.53767613  0.03402829  1
  Al  Al18  1  0.43314689  0.42845807  0.81156059  1
  Al  Al19  1  0.11219651  0.75826398  0.30973707  1
  Al  Al20  1  0.77646083  0.75235476  0.81285941  1
  Al  Al21  1  0.43849286  0.76000239  0.31397220  1
  Al  Al22  1  0.55874555  0.87403916  0.04306218  1
  Al  Al23  1  0.12550094  0.75221277  0.80568701  1
  Al  Al24  1  0.22297539  0.87664033  0.55991793  1
  Al  Al25  1  0.89705244  0.85639413  0.04901108  1
  Al  Al26  1  0.43551291  0.77546188  0.80904987  1
  Al  Al27  1  0.54565381  0.87548322  0.57280756  1
  Gd  Gd28  1  0.77544083  0.10222900  0.82971679  1
  Gd  Gd29  1  0.44121905  0.09541502  0.31989444  1
  Gd  Gd30  1  0.11017149  0.42415497  0.30542186  1
  Gd  Gd31  1  0.76853667  0.41557460  0.30723894  1
  Gd  Gd32  1  0.55299925  0.54402367  0.58213846  1
  Gd  Gd33  1  0.22045194  0.87788032  0.07589005  1
  Gd  Gd34  1  0.89039400  0.86649276  0.56726702  1
  Gd  Gd35  1  0.76582113  0.75722566  0.29654453  1
  N  N36  1  0.20547573  0.19323095  0.39495689  1
  N  N37  1  0.09841116  0.13442069  0.13488936  1
  N  N38  1  0.91649669  0.21566812  0.87680991  1
  N  N39  1  0.76401702  0.12051410  0.61569533  1
  N  N40  1  0.57180227  0.22695088  0.37051169  1
  N  N41  1  0.44167996  0.09383763  0.09887608  1
  N  N42  1  0.22430431  0.20312547  0.85590893  1
  N  N43  1  0.11010561  0.08918383  0.62075281  1
  N  N44  1  0.90512677  0.17197677  0.37937105  1
  N  N45  1  0.78075643  0.09767549  0.10307456  1
  N  N46  1  0.52141187  0.22418538  0.87745727  1
  N  N47  1  0.44815413  0.09720891  0.61527242  1
  N  N48  1  0.23043381  0.55007872  0.37977933  1
  N  N49  1  0.11149974  0.42799288  0.08285511  1
  N  N50  1  0.89531734  0.53606276  0.85417294  1
  N  N51  1  0.81164502  0.40241029  0.62765183  1
  N  N52  1  0.52397531  0.55714678  0.36720478  1
  N  N53  1  0.44177302  0.43439553  0.11575812  1
  N  N54  1  0.22329540  0.54209845  0.86612542  1
  N  N55  1  0.11413093  0.42890035  0.62132509  1
  N  N56  1  0.88325727  0.53509657  0.39491360  1
  N  N57  1  0.77730060  0.43605151  0.08886869  1
  N  N58  1  0.55442908  0.54160226  0.85481293  1
  N  N59  1  0.43012514  0.41179761  0.63084472  1
  N  N60  1  0.21937493  0.87173200  0.35633571  1
  N  N61  1  0.10063981  0.73943297  0.12452211  1
  N  N62  1  0.90983751  0.84119478  0.85913719  1
  N  N63  1  0.75834936  0.74372260  0.62917010  1
  N  N64  1  0.53762795  0.85873427  0.39221515  1
  N  N65  1  0.47888017  0.74981513  0.12433178  1
  N  N66  1  0.21966187  0.87629090  0.86027804  1
  N  N67  1  0.14537581  0.74453612  0.62239426  1
  N  N68  1  0.89529685  0.87945914  0.35068157  1
  N  N69  1  0.77826891  0.75807767  0.07768638  1
  N  N70  1  0.55168745  0.87843489  0.86102012  1
  N  N71  1  0.42118584  0.79787129  0.63108667  1
