# generated using pymatgen
data_Gd2Al7N9
_symmetry_space_group_name_H-M   'P 1'
_cell_length_a   9.87184124
_cell_length_b   9.86823756
_cell_length_c   10.83729910
_cell_angle_alpha   91.20261234
_cell_angle_beta   91.24856001
_cell_angle_gamma   59.74543633
_symmetry_Int_Tables_number   1
_chemical_formula_structural   Gd2Al7N9
_chemical_formula_sum   'Gd8 Al28 N36'
_cell_volume   911.66943667
_cell_formula_units_Z   4
loop_
 _symmetry_equiv_pos_site_id
 _symmetry_equiv_pos_as_xyz
  1  'x, y, z'
loop_
 _atom_site_type_symbol
 _atom_site_label
 _atom_site_symmetry_multiplicity
 _atom_site_fract_x
 _atom_site_fract_y
 _atom_site_fract_z
 _atom_site_occupancy
  Al  Al0  1  0.11299695  0.07450216  0.41262553  1
  Al  Al1  1  0.23639348  0.21682434  0.04387389  1
  Al  Al2  1  0.87796542  0.20702108  0.57009279  1
  Al  Al3  1  0.56369214  0.21903779  0.12230653  1
  Al  Al4  1  0.11928795  0.09473127  0.87908993  1
  Al  Al5  1  0.21370698  0.20311648  0.57866370  1
  Al  Al6  1  0.80527333  0.08533142  0.29909867  1
  Al  Al7  1  0.89938975  0.21944331  0.05143150  1
  Al  Al8  1  0.43010038  0.09611615  0.80336047  1
  Al  Al9  1  0.52779183  0.21324024  0.63188533  1
  Al  Al10  1  0.23023283  0.54235424  0.11968357  1
  Al  Al11  1  0.79570824  0.42433727  0.80754964  1
  Al  Al12  1  0.88268991  0.53120248  0.57391750  1
  Al  Al13  1  0.43596466  0.43287749  0.37706771  1
  Al  Al14  1  0.57520308  0.53510078  0.03385205  1
  Al  Al15  1  0.10802878  0.42599163  0.80729428  1
  Al  Al16  1  0.21665235  0.52845812  0.62578239  1
  Al  Al17  1  0.89772403  0.53921191  0.03971523  1
  Al  Al18  1  0.42511150  0.43156318  0.87729509  1
  Al  Al19  1  0.13369717  0.75332017  0.38501479  1
  Al  Al20  1  0.77765522  0.75285259  0.81084952  1
  Al  Al21  1  0.42532630  0.77070377  0.41953114  1
  Al  Al22  1  0.56716838  0.88285076  0.03673887  1
  Al  Al23  1  0.12042404  0.74939067  0.87404174  1
  Al  Al24  1  0.21599695  0.87563935  0.64534570  1
  Al  Al25  1  0.89590494  0.86213381  0.04264542  1
  Al  Al26  1  0.44403456  0.76752930  0.86736202  1
  Al  Al27  1  0.55130931  0.87073104  0.58258428  1
  Gd  Gd28  1  0.76507249  0.10914825  0.83766219  1
  Gd  Gd29  1  0.44759900  0.09948303  0.33387748  1
  Gd  Gd30  1  0.10852924  0.41984584  0.31582047  1
  Gd  Gd31  1  0.75178083  0.42265537  0.31464828  1
  Gd  Gd32  1  0.53434551  0.52750327  0.61454703  1
  Gd  Gd33  1  0.23664439  0.86968551  0.13526785  1
  Gd  Gd34  1  0.88124278  0.87566815  0.57291886  1
  Gd  Gd35  1  0.77218820  0.75949477  0.29863649  1
  N  N36  1  0.21212862  0.19082026  0.40319425  1
  N  N37  1  0.11994719  0.11290477  0.06283956  1
  N  N38  1  0.90186089  0.22567374  0.87507052  1
  N  N39  1  0.74710870  0.13182882  0.62362840  1
  N  N40  1  0.58319119  0.23735721  0.29626106  1
  N  N41  1  0.45424935  0.09703217  0.10584650  1
  N  N42  1  0.22481157  0.21053434  0.86312101  1
  N  N43  1  0.10142717  0.08619535  0.59401205  1
  N  N44  1  0.89766727  0.18066869  0.38902690  1
  N  N45  1  0.79989115  0.09002364  0.09829584  1
  N  N46  1  0.50712475  0.23504314  0.80951200  1
  N  N47  1  0.43427864  0.08605511  0.62484946  1
  N  N48  1  0.23748659  0.55730505  0.29793126  1
  N  N49  1  0.11623259  0.43010621  0.09801333  1
  N  N50  1  0.89349687  0.53818911  0.86406044  1
  N  N51  1  0.79878357  0.41161172  0.63178527  1
  N  N52  1  0.52293996  0.55794731  0.39949540  1
  N  N53  1  0.44882782  0.43058241  0.05429342  1
  N  N54  1  0.22241381  0.54411192  0.80705427  1
  N  N55  1  0.09943025  0.42230489  0.62850437  1
  N  N56  1  0.87879573  0.53913717  0.39914630  1
  N  N57  1  0.78355167  0.43584879  0.09913868  1
  N  N58  1  0.56186310  0.53222415  0.84930471  1
  N  N59  1  0.40471498  0.39291510  0.54307182  1
  N  N60  1  0.22543797  0.87422219  0.34707388  1
  N  N61  1  0.11687788  0.74330327  0.05061438  1
  N  N62  1  0.89840640  0.84836352  0.85662360  1
  N  N63  1  0.76262635  0.74324283  0.63608160  1
  N  N64  1  0.55060013  0.86280173  0.40250961  1
  N  N65  1  0.47426855  0.75427418  0.04722601  1
  N  N66  1  0.21860047  0.87341571  0.82631550  1
  N  N67  1  0.14859957  0.73488971  0.56811071  1
  N  N68  1  0.90583088  0.87720282  0.35875510  1
  N  N69  1  0.78362768  0.76195221  0.08505304  1
  N  N70  1  0.55613911  0.88391337  0.85867028  1
  N  N71  1  0.42250155  0.78754355  0.59999268  1
