# generated using pymatgen
data_Gd2Al7N9
_symmetry_space_group_name_H-M   'P 1'
_cell_length_a   9.85079986
_cell_length_b   9.87224217
_cell_length_c   10.59388764
_cell_angle_alpha   91.23682255
_cell_angle_beta   91.04240422
_cell_angle_gamma   60.16466136
_symmetry_Int_Tables_number   1
_chemical_formula_structural   Gd2Al7N9
_chemical_formula_sum   'Gd8 Al28 N36'
_cell_volume   893.45825038
_cell_formula_units_Z   4
loop_
 _symmetry_equiv_pos_site_id
 _symmetry_equiv_pos_as_xyz
  1  'x, y, z'
loop_
 _atom_site_type_symbol
 _atom_site_label
 _atom_site_symmetry_multiplicity
 _atom_site_fract_x
 _atom_site_fract_y
 _atom_site_fract_z
 _atom_site_occupancy
  Al  Al0  1  0.11344089  0.08856883  0.31859422  1
  Al  Al1  1  0.23146295  0.21805341  0.04808425  1
  Al  Al2  1  0.89099798  0.19615255  0.56279655  1
  Al  Al3  1  0.56106749  0.22191603  0.12007874  1
  Al  Al4  1  0.10880759  0.10523186  0.81082686  1
  Al  Al5  1  0.21068684  0.19753404  0.57378114  1
  Al  Al6  1  0.80744203  0.08134200  0.29305166  1
  Al  Al7  1  0.90329166  0.22826392  0.05675468  1
  Al  Al8  1  0.43347396  0.09224005  0.80439199  1
  Al  Al9  1  0.53474114  0.21035683  0.62992437  1
  Al  Al10  1  0.22947009  0.54411706  0.11209158  1
  Al  Al11  1  0.79132348  0.42702168  0.80649970  1
  Al  Al12  1  0.88695417  0.52470571  0.57254453  1
  Al  Al13  1  0.42988539  0.43634190  0.36717180  1
  Al  Al14  1  0.56991087  0.54848338  0.04385768  1
  Al  Al15  1  0.11090305  0.42416878  0.81373069  1
  Al  Al16  1  0.22009060  0.52331943  0.62133266  1
  Al  Al17  1  0.89523016  0.54461232  0.03359814  1
  Al  Al18  1  0.43051606  0.43327029  0.87605865  1
  Al  Al19  1  0.13033416  0.75656581  0.36254820  1
  Al  Al20  1  0.77352456  0.75370974  0.80806157  1
  Al  Al21  1  0.43744164  0.76215253  0.31037932  1
  Al  Al22  1  0.56375434  0.88246892  0.04926030  1
  Al  Al23  1  0.11711685  0.74569737  0.86852171  1
  Al  Al24  1  0.21574042  0.86888370  0.63821520  1
  Al  Al25  1  0.89450629  0.86362609  0.04245927  1
  Al  Al26  1  0.44683361  0.76928636  0.81600470  1
  Al  Al27  1  0.54493107  0.86206641  0.57038899  1
  Gd  Gd28  1  0.77128783  0.10837333  0.83845644  1
  Gd  Gd29  1  0.45563172  0.10502550  0.35421104  1
  Gd  Gd30  1  0.10337221  0.40762001  0.29684373  1
  Gd  Gd31  1  0.75284335  0.41269069  0.31218196  1
  Gd  Gd32  1  0.53514319  0.53371017  0.59320641  1
  Gd  Gd33  1  0.22506326  0.88998803  0.08205790  1
  Gd  Gd34  1  0.88491200  0.86875264  0.56890255  1
  Gd  Gd35  1  0.76945708  0.75093563  0.29555211  1
  N  N36  1  0.21207675  0.18514291  0.39887814  1
  N  N37  1  0.10080463  0.15306772  0.13818766  1
  N  N38  1  0.91074363  0.22743311  0.87973402  1
  N  N39  1  0.75455575  0.12400281  0.61838067  1
  N  N40  1  0.58939698  0.24112062  0.29506509  1
  N  N41  1  0.45023876  0.10196770  0.11093037  1
  N  N42  1  0.22597190  0.20066359  0.86576668  1
  N  N43  1  0.10159791  0.09027290  0.63138922  1
  N  N44  1  0.91229054  0.16766128  0.38303681  1
  N  N45  1  0.80155429  0.09142064  0.09369111  1
  N  N46  1  0.51205876  0.23212879  0.81098372  1
  N  N47  1  0.43912242  0.08150146  0.61741056  1
  N  N48  1  0.23013929  0.54927941  0.29282684  1
  N  N49  1  0.11613075  0.43708849  0.07510088  1
  N  N50  1  0.89058647  0.54047363  0.85652210  1
  N  N51  1  0.79869768  0.40461592  0.62574315  1
  N  N52  1  0.51292049  0.56808081  0.38217370  1
  N  N53  1  0.44964854  0.43474133  0.05536258  1
  N  N54  1  0.22693293  0.54018223  0.80585303  1
  N  N55  1  0.10311723  0.41613926  0.62883562  1
  N  N56  1  0.88178958  0.52909244  0.39484333  1
  N  N57  1  0.78202910  0.44345737  0.09835405  1
  N  N58  1  0.56000236  0.54350140  0.85524612  1
  N  N59  1  0.41043059  0.38973008  0.53897230  1
  N  N60  1  0.21863963  0.87180142  0.30339907  1
  N  N61  1  0.11226882  0.74431474  0.04795495  1
  N  N62  1  0.89633328  0.84876437  0.84899577  1
  N  N63  1  0.75781805  0.74067006  0.62820377  1
  N  N64  1  0.53923435  0.85900617  0.39157840  1
  N  N65  1  0.48783080  0.75176341  0.12160311  1
  N  N66  1  0.21452619  0.87459550  0.83779264  1
  N  N67  1  0.15285823  0.73239129  0.56110452  1
  N  N68  1  0.90120639  0.87401718  0.34898597  1
  N  N69  1  0.78367490  0.76351012  0.08086166  1
  N  N70  1  0.55219499  0.88070870  0.86850438  1
  N  N71  1  0.42798796  0.78606883  0.64157616  1
