# generated using pymatgen
data_Gd2Al7N9
_symmetry_space_group_name_H-M   'P 1'
_cell_length_a   9.87985412
_cell_length_b   9.88131792
_cell_length_c   10.40959690
_cell_angle_alpha   90.33982161
_cell_angle_beta   90.31111467
_cell_angle_gamma   60.13402519
_symmetry_Int_Tables_number   1
_chemical_formula_structural   Gd2Al7N9
_chemical_formula_sum   'Gd8 Al28 N36'
_cell_volume   881.26289022
_cell_formula_units_Z   4
loop_
 _symmetry_equiv_pos_site_id
 _symmetry_equiv_pos_as_xyz
  1  'x, y, z'
loop_
 _atom_site_type_symbol
 _atom_site_label
 _atom_site_symmetry_multiplicity
 _atom_site_fract_x
 _atom_site_fract_y
 _atom_site_fract_z
 _atom_site_occupancy
  Al  Al0  1  0.10813930  0.09153080  0.31878486  1
  Al  Al1  1  0.21926618  0.21183151  0.04146785  1
  Al  Al2  1  0.89708590  0.19834517  0.56057810  1
  Al  Al3  1  0.54308050  0.21405759  0.05679663  1
  Al  Al4  1  0.11684737  0.09350898  0.80203387  1
  Al  Al5  1  0.21801125  0.20420965  0.57181229  1
  Al  Al6  1  0.78630199  0.09236193  0.30246415  1
  Al  Al7  1  0.89549410  0.21828676  0.05363852  1
  Al  Al8  1  0.43885833  0.09983516  0.80451133  1
  Al  Al9  1  0.55412651  0.21279720  0.55871179  1
  Al  Al10  1  0.22069067  0.53656529  0.04752148  1
  Al  Al11  1  0.79333641  0.42260243  0.80833572  1
  Al  Al12  1  0.89422392  0.52966412  0.57485070  1
  Al  Al13  1  0.43985331  0.43935746  0.30445188  1
  Al  Al14  1  0.55898210  0.54152094  0.04608736  1
  Al  Al15  1  0.11479173  0.42889411  0.80713749  1
  Al  Al16  1  0.22907428  0.53238433  0.56268433  1
  Al  Al17  1  0.89131782  0.53793437  0.03215290  1
  Al  Al18  1  0.43279250  0.42837035  0.80999381  1
  Al  Al19  1  0.11344367  0.75827215  0.30840038  1
  Al  Al20  1  0.77598038  0.75289061  0.81140378  1
  Al  Al21  1  0.44000782  0.75923092  0.31011079  1
  Al  Al22  1  0.55743526  0.87418451  0.04112812  1
  Al  Al23  1  0.12547755  0.75205605  0.80368604  1
  Al  Al24  1  0.22376754  0.87634046  0.55819509  1
  Al  Al25  1  0.89620096  0.85689950  0.04689248  1
  Al  Al26  1  0.43589359  0.77391971  0.80694996  1
  Al  Al27  1  0.54660261  0.87424123  0.57104725  1
  Gd  Gd28  1  0.77401773  0.10296938  0.82798775  1
  Gd  Gd29  1  0.44180423  0.09398924  0.31904699  1
  Gd  Gd30  1  0.11344768  0.42412438  0.30421736  1
  Gd  Gd31  1  0.77435899  0.41553137  0.30546033  1
  Gd  Gd32  1  0.55219655  0.54278542  0.57648717  1
  Gd  Gd33  1  0.21861587  0.87846667  0.07337947  1
  Gd  Gd34  1  0.89101047  0.86703255  0.56621369  1
  Gd  Gd35  1  0.76803029  0.75830763  0.29479675  1
  N  N36  1  0.20532302  0.19304024  0.39325243  1
  N  N37  1  0.09666549  0.13497701  0.13315003  1
  N  N38  1  0.91495455  0.21635342  0.87433184  1
  N  N39  1  0.76345937  0.12161326  0.61394771  1
  N  N40  1  0.57167953  0.22631915  0.36799354  1
  N  N41  1  0.44024225  0.09385227  0.09797347  1
  N  N42  1  0.22330100  0.20329989  0.85445370  1
  N  N43  1  0.11017717  0.08920396  0.61908556  1
  N  N44  1  0.90542969  0.17201891  0.37805760  1
  N  N45  1  0.78009818  0.09753114  0.10118917  1
  N  N46  1  0.51992486  0.22408607  0.87624013  1
  N  N47  1  0.44819700  0.09662667  0.61308219  1
  N  N48  1  0.23366868  0.54989871  0.37771453  1
  N  N49  1  0.10999774  0.42851021  0.08158788  1
  N  N50  1  0.89430138  0.53623098  0.85212971  1
  N  N51  1  0.81040202  0.40411627  0.62474705  1
  N  N52  1  0.52802304  0.55491746  0.36062092  1
  N  N53  1  0.44052766  0.43390144  0.11339307  1
  N  N54  1  0.22250928  0.54223425  0.86458252  1
  N  N55  1  0.11464341  0.42886751  0.61965614  1
  N  N56  1  0.88664190  0.53707870  0.39366439  1
  N  N57  1  0.77630860  0.43634698  0.08701807  1
  N  N58  1  0.55382063  0.54093491  0.85359905  1
  N  N59  1  0.43031220  0.41119049  0.62928909  1
  N  N60  1  0.22094822  0.87112332  0.35446501  1
  N  N61  1  0.09963828  0.73958978  0.12309621  1
  N  N62  1  0.90937245  0.84169603  0.85710543  1
  N  N63  1  0.75900995  0.74468482  0.62778542  1
  N  N64  1  0.53935883  0.85660356  0.39015798  1
  N  N65  1  0.47678061  0.75069147  0.12085890  1
  N  N66  1  0.21930039  0.87617883  0.85782776  1
  N  N67  1  0.14636172  0.74404026  0.62036058  1
  N  N68  1  0.89658180  0.88038557  0.34992186  1
  N  N69  1  0.77719457  0.75873194  0.07561081  1
  N  N70  1  0.55079152  0.87834356  0.85899528  1
  N  N71  1  0.42256982  0.79579692  0.62873275  1
