# generated using pymatgen
data_Gd2Al7N9
_symmetry_space_group_name_H-M   'P 1'
_cell_length_a   9.85609360
_cell_length_b   9.86771325
_cell_length_c   10.49800927
_cell_angle_alpha   90.77792098
_cell_angle_beta   90.86984357
_cell_angle_gamma   60.55064952
_symmetry_Int_Tables_number   1
_chemical_formula_structural   Gd2Al7N9
_chemical_formula_sum   'Gd8 Al28 N36'
_cell_volume   888.95811467
_cell_formula_units_Z   4
loop_
 _symmetry_equiv_pos_site_id
 _symmetry_equiv_pos_as_xyz
  1  'x, y, z'
loop_
 _atom_site_type_symbol
 _atom_site_label
 _atom_site_symmetry_multiplicity
 _atom_site_fract_x
 _atom_site_fract_y
 _atom_site_fract_z
 _atom_site_occupancy
  Al  Al0  1  0.10832267  0.09199412  0.32276722  1
  Al  Al1  1  0.22339012  0.21389351  0.04259802  1
  Al  Al2  1  0.89449285  0.19749958  0.56150069  1
  Al  Al3  1  0.55490214  0.21806720  0.08569607  1
  Al  Al4  1  0.11818200  0.09349100  0.80365535  1
  Al  Al5  1  0.21618701  0.20294042  0.57380238  1
  Al  Al6  1  0.79235187  0.08737304  0.29095826  1
  Al  Al7  1  0.90334873  0.22019600  0.05557895  1
  Al  Al8  1  0.43835357  0.09543237  0.81360199  1
  Al  Al9  1  0.54607817  0.20492616  0.61408132  1
  Al  Al10  1  0.21759563  0.54308742  0.04738982  1
  Al  Al11  1  0.79996687  0.42091874  0.80953447  1
  Al  Al12  1  0.88959777  0.52740003  0.57310133  1
  Al  Al13  1  0.43424706  0.43211107  0.37876933  1
  Al  Al14  1  0.56742412  0.55007564  0.04577971  1
  Al  Al15  1  0.11606999  0.42849708  0.80730810  1
  Al  Al16  1  0.21297300  0.53504957  0.55921519  1
  Al  Al17  1  0.89519740  0.53962245  0.03270539  1
  Al  Al18  1  0.44025694  0.43354232  0.87651911  1
  Al  Al19  1  0.10903846  0.75857414  0.30467448  1
  Al  Al20  1  0.77914938  0.75152739  0.81141345  1
  Al  Al21  1  0.43696487  0.76078686  0.32085299  1
  Al  Al22  1  0.56284257  0.87585300  0.04369187  1
  Al  Al23  1  0.12606301  0.75096295  0.80290454  1
  Al  Al24  1  0.22184638  0.87515528  0.55895956  1
  Al  Al25  1  0.90102494  0.85595569  0.04680756  1
  Al  Al26  1  0.43495693  0.77941209  0.80834446  1
  Al  Al27  1  0.54517360  0.87266829  0.57282791  1
  Gd  Gd28  1  0.78321640  0.09769325  0.83655237  1
  Gd  Gd29  1  0.44448299  0.09906235  0.31871484  1
  Gd  Gd30  1  0.10103049  0.41931609  0.30173330  1
  Gd  Gd31  1  0.75155890  0.41192535  0.30760289  1
  Gd  Gd32  1  0.54834065  0.53977620  0.59905080  1
  Gd  Gd33  1  0.22575918  0.87956727  0.07638227  1
  Gd  Gd34  1  0.88716279  0.86905082  0.56101835  1
  Gd  Gd35  1  0.76212523  0.75085780  0.29391988  1
  N  N36  1  0.20948796  0.19160529  0.39694099  1
  N  N37  1  0.10302136  0.13661905  0.13759884  1
  N  N38  1  0.91944928  0.21899119  0.87771769  1
  N  N39  1  0.75968793  0.12079404  0.61853289  1
  N  N40  1  0.57587778  0.23625598  0.30134810  1
  N  N41  1  0.44472434  0.09603530  0.09575438  1
  N  N42  1  0.22413372  0.20358973  0.85820522  1
  N  N43  1  0.10748133  0.08794042  0.62138650  1
  N  N44  1  0.90514935  0.16892730  0.38021863  1
  N  N45  1  0.79560242  0.09189048  0.09342355  1
  N  N46  1  0.52736512  0.21986083  0.85825093  1
  N  N47  1  0.44212171  0.09055817  0.62466785  1
  N  N48  1  0.21161932  0.55562592  0.37455798  1
  N  N49  1  0.11385144  0.43023424  0.08152118  1
  N  N50  1  0.89721886  0.53681792  0.85436991  1
  N  N51  1  0.80966388  0.40086026  0.62847977  1
  N  N52  1  0.51650427  0.56354238  0.38199477  1
  N  N53  1  0.44669032  0.44356928  0.06173857  1
  N  N54  1  0.22172253  0.54277955  0.86128008  1
  N  N55  1  0.10990137  0.42688927  0.62231864  1
  N  N56  1  0.87543992  0.52950832  0.39399590  1
  N  N57  1  0.78208572  0.43802680  0.09200077  1
  N  N58  1  0.56019981  0.54698197  0.85151615  1
  N  N59  1  0.42625335  0.40105629  0.56218768  1
  N  N60  1  0.21709665  0.87211058  0.35679343  1
  N  N61  1  0.10352303  0.74379780  0.12107190  1
  N  N62  1  0.91295318  0.83814307  0.85849293  1
  N  N63  1  0.75895530  0.74377837  0.62877633  1
  N  N64  1  0.53717360  0.86351230  0.39369562  1
  N  N65  1  0.48494584  0.75186866  0.13021725  1
  N  N66  1  0.22046775  0.87642714  0.86064986  1
  N  N67  1  0.14336239  0.74280355  0.62083706  1
  N  N68  1  0.89083290  0.87843028  0.34420762  1
  N  N69  1  0.78163595  0.75900907  0.07668291  1
  N  N70  1  0.55383745  0.87673925  0.86335208  1
  N  N71  1  0.41931797  0.79755662  0.63143913  1
