# generated using pymatgen
data_Gd2Al7N9
_symmetry_space_group_name_H-M   'P 1'
_cell_length_a   9.86062063
_cell_length_b   9.86552403
_cell_length_c   10.52455131
_cell_angle_alpha   90.95132388
_cell_angle_beta   90.83042863
_cell_angle_gamma   60.40119609
_symmetry_Int_Tables_number   1
_chemical_formula_structural   Gd2Al7N9
_chemical_formula_sum   'Gd8 Al28 N36'
_cell_volume   890.07983023
_cell_formula_units_Z   4
loop_
 _symmetry_equiv_pos_site_id
 _symmetry_equiv_pos_as_xyz
  1  'x, y, z'
loop_
 _atom_site_type_symbol
 _atom_site_label
 _atom_site_symmetry_multiplicity
 _atom_site_fract_x
 _atom_site_fract_y
 _atom_site_fract_z
 _atom_site_occupancy
  Al  Al0  1  0.10903078  0.09133661  0.32269239  1
  Al  Al1  1  0.22669373  0.21349140  0.04498340  1
  Al  Al2  1  0.89332100  0.19634839  0.56331662  1
  Al  Al3  1  0.55692605  0.22445099  0.11466691  1
  Al  Al4  1  0.11727753  0.09305506  0.80383110  1
  Al  Al5  1  0.21498966  0.20167849  0.57324332  1
  Al  Al6  1  0.79791095  0.08619828  0.29153501  1
  Al  Al7  1  0.90480534  0.22103182  0.05504636  1
  Al  Al8  1  0.43405564  0.09411392  0.80763310  1
  Al  Al9  1  0.54071230  0.20998000  0.63492712  1
  Al  Al10  1  0.21710005  0.54258882  0.04628416  1
  Al  Al11  1  0.79954967  0.42110462  0.80816195  1
  Al  Al12  1  0.88962430  0.52778905  0.57297888  1
  Al  Al13  1  0.43501236  0.43278610  0.37734225  1
  Al  Al14  1  0.56806225  0.54952654  0.04379280  1
  Al  Al15  1  0.11622209  0.42816610  0.80729215  1
  Al  Al16  1  0.21432998  0.53221514  0.55689762  1
  Al  Al17  1  0.89477685  0.54002982  0.03208848  1
  Al  Al18  1  0.43943566  0.43171797  0.87430767  1
  Al  Al19  1  0.10907211  0.75846905  0.30445593  1
  Al  Al20  1  0.77852988  0.75193607  0.81131120  1
  Al  Al21  1  0.43671444  0.76054160  0.31936719  1
  Al  Al22  1  0.56185149  0.87963381  0.04552508  1
  Al  Al23  1  0.12574385  0.75079808  0.80210031  1
  Al  Al24  1  0.22220952  0.87365914  0.55943074  1
  Al  Al25  1  0.90184852  0.85505192  0.04637817  1
  Al  Al26  1  0.43519469  0.77827337  0.80826439  1
  Al  Al27  1  0.54517330  0.86965032  0.57244911  1
  Gd  Gd28  1  0.77844315  0.09987340  0.84182726  1
  Gd  Gd29  1  0.44847722  0.10130347  0.33509881  1
  Gd  Gd30  1  0.10196824  0.41811030  0.30025662  1
  Gd  Gd31  1  0.75368740  0.41293301  0.30809416  1
  Gd  Gd32  1  0.54721388  0.53578270  0.59845126  1
  Gd  Gd33  1  0.22511295  0.88004327  0.07547028  1
  Gd  Gd34  1  0.88599299  0.87064196  0.56296896  1
  Gd  Gd35  1  0.76290848  0.75139885  0.29324935  1
  N  N36  1  0.20877365  0.19122857  0.39645184  1
  N  N37  1  0.10357156  0.13725522  0.13791347  1
  N  N38  1  0.91791894  0.21920252  0.87700146  1
  N  N39  1  0.76029995  0.12065520  0.62188728  1
  N  N40  1  0.57975505  0.24075778  0.29405721  1
  N  N41  1  0.44767961  0.10034630  0.10291961  1
  N  N42  1  0.22380115  0.20277127  0.86047443  1
  N  N43  1  0.10745987  0.08717700  0.62179303  1
  N  N44  1  0.90576687  0.16992979  0.38131177  1
  N  N45  1  0.79775296  0.09161616  0.09356855  1
  N  N46  1  0.51870546  0.22850512  0.81854564  1
  N  N47  1  0.43978978  0.08726076  0.61946489  1
  N  N48  1  0.21207291  0.55499951  0.37208619  1
  N  N49  1  0.11312963  0.43097323  0.08107375  1
  N  N50  1  0.89664011  0.53689364  0.85416302  1
  N  N51  1  0.80902285  0.40177994  0.62756698  1
  N  N52  1  0.51744775  0.56347190  0.38142667  1
  N  N53  1  0.44962145  0.43762886  0.05742871  1
  N  N54  1  0.22052859  0.54358313  0.86195112  1
  N  N55  1  0.11040007  0.42582945  0.62256502  1
  N  N56  1  0.87701818  0.53080605  0.39404115  1
  N  N57  1  0.78198497  0.43860541  0.09203042  1
  N  N58  1  0.55971902  0.54641239  0.85114225  1
  N  N59  1  0.42797412  0.39421201  0.55429206  1
  N  N60  1  0.21699094  0.87153284  0.35664258  1
  N  N61  1  0.10413596  0.74345281  0.12102849  1
  N  N62  1  0.91201443  0.83901715  0.85811437  1
  N  N63  1  0.75848097  0.74411475  0.62937332  1
  N  N64  1  0.53764212  0.86135883  0.39293925  1
  N  N65  1  0.48403671  0.75211792  0.12894200  1
  N  N66  1  0.22013526  0.87596460  0.86022639  1
  N  N67  1  0.14453010  0.74039431  0.62027752  1
  N  N68  1  0.89041466  0.87928883  0.34520439  1
  N  N69  1  0.78139057  0.75976620  0.07648593  1
  N  N70  1  0.55220202  0.87871871  0.86456351  1
  N  N71  1  0.42024324  0.79406159  0.63156291  1
