# generated using pymatgen
data_Gd2Al7N9
_symmetry_space_group_name_H-M   'P 1'
_cell_length_a   9.87183879
_cell_length_b   9.86822564
_cell_length_c   10.83733262
_cell_angle_alpha   91.20212259
_cell_angle_beta   91.24835639
_cell_angle_gamma   59.74537932
_symmetry_Int_Tables_number   1
_chemical_formula_structural   Gd2Al7N9
_chemical_formula_sum   'Gd8 Al28 N36'
_cell_volume   911.67055329
_cell_formula_units_Z   4
loop_
 _symmetry_equiv_pos_site_id
 _symmetry_equiv_pos_as_xyz
  1  'x, y, z'
loop_
 _atom_site_type_symbol
 _atom_site_label
 _atom_site_symmetry_multiplicity
 _atom_site_fract_x
 _atom_site_fract_y
 _atom_site_fract_z
 _atom_site_occupancy
  Al  Al0  1  0.11298653  0.07458927  0.42368870  1
  Al  Al1  1  0.23638286  0.21690513  0.05494487  1
  Al  Al2  1  0.87795371  0.20710661  0.58115511  1
  Al  Al3  1  0.56368182  0.21911934  0.13336881  1
  Al  Al4  1  0.11927906  0.09481364  0.89015925  1
  Al  Al5  1  0.21369433  0.20320085  0.58973255  1
  Al  Al6  1  0.80526306  0.08541770  0.31015988  1
  Al  Al7  1  0.89937909  0.21952336  0.06249753  1
  Al  Al8  1  0.43008999  0.09619839  0.81442597  1
  Al  Al9  1  0.52777984  0.21332494  0.64295136  1
  Al  Al10  1  0.23022342  0.54243532  0.13074689  1
  Al  Al11  1  0.79569881  0.42441982  0.81861665  1
  Al  Al12  1  0.88267885  0.53128738  0.58498220  1
  Al  Al13  1  0.43595718  0.43296256  0.38813069  1
  Al  Al14  1  0.57519334  0.53517994  0.04491477  1
  Al  Al15  1  0.10801878  0.42607498  0.81836262  1
  Al  Al16  1  0.21664143  0.52854264  0.63684772  1
  Al  Al17  1  0.89771345  0.53929324  0.05078086  1
  Al  Al18  1  0.42510175  0.43164551  0.88835766  1
  Al  Al19  1  0.13368869  0.75340646  0.39607825  1
  Al  Al20  1  0.77764399  0.75293637  0.82191226  1
  Al  Al21  1  0.42531679  0.77078931  0.43059421  1
  Al  Al22  1  0.56715864  0.88293116  0.04780647  1
  Al  Al23  1  0.12041339  0.74947339  0.88510887  1
  Al  Al24  1  0.21598673  0.87572373  0.65641277  1
  Al  Al25  1  0.89589337  0.86221578  0.05371004  1
  Al  Al26  1  0.44402467  0.76761204  0.87843097  1
  Al  Al27  1  0.55129748  0.87081684  0.59364616  1
  Gd  Gd28  1  0.76506459  0.10923028  0.84872337  1
  Gd  Gd29  1  0.44758598  0.09957091  0.34494174  1
  Gd  Gd30  1  0.10852129  0.41993624  0.32689168  1
  Gd  Gd31  1  0.75177286  0.42274292  0.32571129  1
  Gd  Gd32  1  0.53433533  0.52758825  0.62561105  1
  Gd  Gd33  1  0.23663508  0.86976343  0.14633372  1
  Gd  Gd34  1  0.88123239  0.87575304  0.58398027  1
  Gd  Gd35  1  0.77217788  0.75958344  0.30970126  1
  N  N36  1  0.21211688  0.19090893  0.41426298  1
  N  N37  1  0.11993702  0.11298448  0.07390749  1
  N  N38  1  0.90185192  0.22575541  0.88613763  1
  N  N39  1  0.74709718  0.13191336  0.63469120  1
  N  N40  1  0.58318035  0.23744240  0.30732300  1
  N  N41  1  0.45423988  0.09711215  0.11691394  1
  N  N42  1  0.22480237  0.21061747  0.87419099  1
  N  N43  1  0.10141501  0.08627919  0.60507584  1
  N  N44  1  0.89765621  0.18075511  0.40008945  1
  N  N45  1  0.79988038  0.09010474  0.10936053  1
  N  N46  1  0.50711570  0.23512496  0.82057707  1
  N  N47  1  0.43426646  0.08613947  0.63591650  1
  N  N48  1  0.23748016  0.55739317  0.30899334  1
  N  N49  1  0.11622184  0.43018718  0.10908387  1
  N  N50  1  0.89348653  0.53827249  0.87512647  1
  N  N51  1  0.79877374  0.41169552  0.64285201  1
  N  N52  1  0.52293269  0.55803204  0.41055990  1
  N  N53  1  0.44881659  0.43066333  0.06535514  1
  N  N54  1  0.22240325  0.54419572  0.81811941  1
  N  N55  1  0.09941901  0.42238945  0.63957235  1
  N  N56  1  0.87878492  0.53922555  0.41021180  1
  N  N57  1  0.78354094  0.43592882  0.11020197  1
  N  N58  1  0.56185281  0.53230710  0.86036907  1
  N  N59  1  0.40470395  0.39300018  0.55413543  1
  N  N60  1  0.22542860  0.87430950  0.35813805  1
  N  N61  1  0.11686616  0.74338490  0.06167945  1
  N  N62  1  0.89839549  0.84844597  0.86768952  1
  N  N63  1  0.76261473  0.74332843  0.64714530  1
  N  N64  1  0.55058961  0.86288910  0.41357381  1
  N  N65  1  0.47425953  0.75435342  0.05829291  1
  N  N66  1  0.21859105  0.87349870  0.83738238  1
  N  N67  1  0.14858922  0.73497450  0.57917496  1
  N  N68  1  0.90582298  0.87728854  0.36981807  1
  N  N69  1  0.78361785  0.76203276  0.09611964  1
  N  N70  1  0.55612911  0.88399562  0.86973807  1
  N  N71  1  0.42249008  0.78762870  0.61105491  1
