# generated using pymatgen
data_Gd2Al7N9
_symmetry_space_group_name_H-M   'P 1'
_cell_length_a   9.88364791
_cell_length_b   9.87865481
_cell_length_c   10.57833935
_cell_angle_alpha   91.03280601
_cell_angle_beta   91.06535667
_cell_angle_gamma   60.01293704
_symmetry_Int_Tables_number   1
_chemical_formula_structural   Gd2Al7N9
_chemical_formula_sum   'Gd8 Al28 N36'
_cell_volume   894.38116361
_cell_formula_units_Z   4
loop_
 _symmetry_equiv_pos_site_id
 _symmetry_equiv_pos_as_xyz
  1  'x, y, z'
loop_
 _atom_site_type_symbol
 _atom_site_label
 _atom_site_symmetry_multiplicity
 _atom_site_fract_x
 _atom_site_fract_y
 _atom_site_fract_z
 _atom_site_occupancy
  Al  Al0  1  0.11269282  0.09032432  0.31871415  1
  Al  Al1  1  0.23028839  0.21735489  0.04970940  1
  Al  Al2  1  0.89164953  0.19764228  0.56315934  1
  Al  Al3  1  0.56057812  0.22124854  0.12002569  1
  Al  Al4  1  0.10979301  0.10313213  0.81086711  1
  Al  Al5  1  0.21143338  0.19654723  0.57303504  1
  Al  Al6  1  0.80721487  0.08281168  0.29614455  1
  Al  Al7  1  0.90438784  0.22617919  0.05648305  1
  Al  Al8  1  0.43199437  0.09223265  0.80500055  1
  Al  Al9  1  0.53341696  0.20991646  0.63039670  1
  Al  Al10  1  0.22851055  0.54425957  0.11470205  1
  Al  Al11  1  0.79471225  0.42554324  0.80752177  1
  Al  Al12  1  0.88628763  0.52665602  0.57116044  1
  Al  Al13  1  0.43196764  0.43624580  0.36816511  1
  Al  Al14  1  0.56959095  0.54678936  0.04125212  1
  Al  Al15  1  0.11080729  0.42405809  0.80980526  1
  Al  Al16  1  0.22056828  0.52375715  0.61874435  1
  Al  Al17  1  0.89633026  0.54318652  0.03562233  1
  Al  Al18  1  0.42717074  0.43352265  0.87562741  1
  Al  Al19  1  0.13164154  0.75780276  0.37175076  1
  Al  Al20  1  0.77318815  0.75358381  0.80822168  1
  Al  Al21  1  0.43680078  0.76233307  0.31699141  1
  Al  Al22  1  0.56295538  0.88080206  0.04859304  1
  Al  Al23  1  0.11611853  0.74619365  0.86744699  1
  Al  Al24  1  0.21847270  0.86751542  0.63712850  1
  Al  Al25  1  0.89313649  0.86316523  0.04112953  1
  Al  Al26  1  0.44690537  0.76774343  0.81687430  1
  Al  Al27  1  0.54531552  0.86128333  0.57151764  1
  Gd  Gd28  1  0.76713427  0.11248035  0.84181135  1
  Gd  Gd29  1  0.45484143  0.10489780  0.35208206  1
  Gd  Gd30  1  0.10519703  0.41223606  0.30288217  1
  Gd  Gd31  1  0.75263975  0.41617335  0.31018546  1
  Gd  Gd32  1  0.53931805  0.52777966  0.59744314  1
  Gd  Gd33  1  0.22360326  0.88557827  0.08632290  1
  Gd  Gd34  1  0.88473185  0.87220929  0.57712615  1
  Gd  Gd35  1  0.77070312  0.75651340  0.29826175  1
  N  N36  1  0.21268373  0.18492674  0.39819951  1
  N  N37  1  0.10153481  0.14904420  0.13708070  1
  N  N38  1  0.91230480  0.22504939  0.87923334  1
  N  N39  1  0.75217862  0.12983178  0.62052111  1
  N  N40  1  0.58911945  0.24086217  0.29499395  1
  N  N41  1  0.45063459  0.10069063  0.11056782  1
  N  N42  1  0.22440487  0.20166878  0.86580504  1
  N  N43  1  0.10298520  0.08927207  0.63067871  1
  N  N44  1  0.91136569  0.17154422  0.38276167  1
  N  N45  1  0.80097808  0.09022704  0.09341684  1
  N  N46  1  0.50882907  0.23265963  0.81121962  1
  N  N47  1  0.43864120  0.08080703  0.61798795  1
  N  N48  1  0.23123326  0.55295497  0.29573669  1
  N  N49  1  0.11605299  0.43574726  0.08177413  1
  N  N50  1  0.89285730  0.53996217  0.85750147  1
  N  N51  1  0.80221382  0.40500629  0.62671048  1
  N  N52  1  0.51552062  0.56654848  0.38569263  1
  N  N53  1  0.44748704  0.43504215  0.05498512  1
  N  N54  1  0.22497725  0.54134901  0.80319409  1
  N  N55  1  0.10331792  0.41713032  0.62502213  1
  N  N56  1  0.87964897  0.53239192  0.39337845  1
  N  N57  1  0.78153822  0.44160616  0.09528442  1
  N  N58  1  0.56117056  0.53982753  0.85315742  1
  N  N59  1  0.41045152  0.38890009  0.53865503  1
  N  N60  1  0.21891696  0.87259826  0.30888302  1
  N  N61  1  0.10981468  0.74231707  0.04627035  1
  N  N62  1  0.89469626  0.85125650  0.84575912  1
  N  N63  1  0.75836410  0.74140964  0.62806146  1
  N  N64  1  0.53984563  0.85908255  0.39238678  1
  N  N65  1  0.48562397  0.75060456  0.11676812  1
  N  N66  1  0.21536086  0.87267655  0.83701980  1
  N  N67  1  0.15391210  0.73294994  0.55999040  1
  N  N68  1  0.90170459  0.87733708  0.35716839  1
  N  N69  1  0.78333145  0.76310787  0.08185385  1
  N  N70  1  0.55266092  0.87952695  0.86743689  1
  N  N71  1  0.43050076  0.78233089  0.64145481  1
