# generated using pymatgen
data_Gd2Al7N9
_symmetry_space_group_name_H-M   'P 1'
_cell_length_a   9.91016563
_cell_length_b   9.90934733
_cell_length_c   10.75370871
_cell_angle_alpha   90.90882321
_cell_angle_beta   91.00254017
_cell_angle_gamma   59.45053405
_symmetry_Int_Tables_number   1
_chemical_formula_structural   Gd2Al7N9
_chemical_formula_sum   'Gd8 Al28 N36'
_cell_volume   909.29088049
_cell_formula_units_Z   4
loop_
 _symmetry_equiv_pos_site_id
 _symmetry_equiv_pos_as_xyz
  1  'x, y, z'
loop_
 _atom_site_type_symbol
 _atom_site_label
 _atom_site_symmetry_multiplicity
 _atom_site_fract_x
 _atom_site_fract_y
 _atom_site_fract_z
 _atom_site_occupancy
  Al  Al0  1  0.11454755  0.07680908  0.43426135  1
  Al  Al1  1  0.23597372  0.21369660  0.08908806  1
  Al  Al2  1  0.87804717  0.20619659  0.59161668  1
  Al  Al3  1  0.56060492  0.21650266  0.14614656  1
  Al  Al4  1  0.11951241  0.09532059  0.89697362  1
  Al  Al5  1  0.20836720  0.20190886  0.61352389  1
  Al  Al6  1  0.80609716  0.08694452  0.31958271  1
  Al  Al7  1  0.90010350  0.21700087  0.07215288  1
  Al  Al8  1  0.42959695  0.09472406  0.82250391  1
  Al  Al9  1  0.52914083  0.21567813  0.65595603  1
  Al  Al10  1  0.22852954  0.54099056  0.14425265  1
  Al  Al11  1  0.79634348  0.42269860  0.83088501  1
  Al  Al12  1  0.87755175  0.53530542  0.59518375  1
  Al  Al13  1  0.44107627  0.43867768  0.39305380  1
  Al  Al14  1  0.57383907  0.53247685  0.05584418  1
  Al  Al15  1  0.10526191  0.42691969  0.82305097  1
  Al  Al16  1  0.21797930  0.53004730  0.64578453  1
  Al  Al17  1  0.89978148  0.53488748  0.06565877  1
  Al  Al18  1  0.42281620  0.43035145  0.89972414  1
  Al  Al19  1  0.13317901  0.76003764  0.40686022  1
  Al  Al20  1  0.77719405  0.75135682  0.83639801  1
  Al  Al21  1  0.42681239  0.77287557  0.44039221  1
  Al  Al22  1  0.56329215  0.88304145  0.05962249  1
  Al  Al23  1  0.11954996  0.74795010  0.89426366  1
  Al  Al24  1  0.21614750  0.87375221  0.66791996  1
  Al  Al25  1  0.89539169  0.85937156  0.06357872  1
  Al  Al26  1  0.44307704  0.76578940  0.88785031  1
  Al  Al27  1  0.55378106  0.86595448  0.60743152  1
  Gd  Gd28  1  0.76286347  0.10948149  0.86376123  1
  Gd  Gd29  1  0.45438407  0.11230554  0.39783169  1
  Gd  Gd30  1  0.11628950  0.43231311  0.36613800  1
  Gd  Gd31  1  0.75929260  0.42253141  0.33515213  1
  Gd  Gd32  1  0.53635068  0.52540959  0.63513873  1
  Gd  Gd33  1  0.23543486  0.86576765  0.15531050  1
  Gd  Gd34  1  0.88123107  0.87521129  0.59888535  1
  Gd  Gd35  1  0.76748684  0.76682051  0.31834977  1
  N  N36  1  0.21026911  0.19331683  0.42990966  1
  N  N37  1  0.12179468  0.11124342  0.08167630  1
  N  N38  1  0.90142710  0.22268733  0.89550853  1
  N  N39  1  0.74647853  0.13334660  0.64586411  1
  N  N40  1  0.58573394  0.24070551  0.31733933  1
  N  N41  1  0.45515313  0.09539949  0.12981181  1
  N  N42  1  0.21740638  0.20816494  0.85786070  1
  N  N43  1  0.10016211  0.08374991  0.61699715  1
  N  N44  1  0.89953027  0.18002290  0.40976243  1
  N  N45  1  0.80092781  0.08666692  0.11853200  1
  N  N46  1  0.50454304  0.23415574  0.83168037  1
  N  N47  1  0.44049916  0.08514482  0.63952837  1
  N  N48  1  0.24232499  0.56715170  0.31868338  1
  N  N49  1  0.11499558  0.42771982  0.13513154  1
  N  N50  1  0.89550367  0.53512893  0.88749574  1
  N  N51  1  0.80027927  0.41092471  0.65347411  1
  N  N52  1  0.52906799  0.55980047  0.42056562  1
  N  N53  1  0.44698809  0.42872766  0.07642696  1
  N  N54  1  0.22149051  0.54236948  0.82689951  1
  N  N55  1  0.09632723  0.42992829  0.64148250  1
  N  N56  1  0.87394817  0.54693379  0.41996925  1
  N  N57  1  0.78299423  0.43267005  0.11857502  1
  N  N58  1  0.56123052  0.52993869  0.87040428  1
  N  N59  1  0.40455458  0.39056565  0.55873231  1
  N  N60  1  0.22670132  0.87730622  0.36865536  1
  N  N61  1  0.11512647  0.73952717  0.07095015  1
  N  N62  1  0.89739106  0.84818267  0.87522556  1
  N  N63  1  0.76266719  0.74251177  0.66070637  1
  N  N64  1  0.55016740  0.86456049  0.42680485  1
  N  N65  1  0.47372900  0.75172014  0.06926015  1
  N  N66  1  0.21764083  0.87123595  0.84918381  1
  N  N67  1  0.14925644  0.73593379  0.58981568  1
  N  N68  1  0.90502264  0.87899109  0.38170651  1
  N  N69  1  0.78202287  0.76021098  0.10351843  1
  N  N70  1  0.55320992  0.88361587  0.87954294  1
  N  N71  1  0.42347936  0.78581252  0.62472367  1
