# generated using pymatgen
data_Gd2Al7N9
_symmetry_space_group_name_H-M   'P 1'
_cell_length_a   9.92813836
_cell_length_b   9.88968645
_cell_length_c   10.50651015
_cell_angle_alpha   89.64107296
_cell_angle_beta   90.39540659
_cell_angle_gamma   59.86884657
_symmetry_Int_Tables_number   1
_chemical_formula_structural   Gd2Al7N9
_chemical_formula_sum   'Gd8 Al28 N36'
_cell_volume   892.12592915
_cell_formula_units_Z   4
loop_
 _symmetry_equiv_pos_site_id
 _symmetry_equiv_pos_as_xyz
  1  'x, y, z'
loop_
 _atom_site_type_symbol
 _atom_site_label
 _atom_site_symmetry_multiplicity
 _atom_site_fract_x
 _atom_site_fract_y
 _atom_site_fract_z
 _atom_site_occupancy
  Al  Al0  1  0.11434852  0.08413818  0.40400988  1
  Al  Al1  1  0.21976347  0.20781423  0.14106874  1
  Al  Al2  1  0.89451032  0.22203262  0.65763521  1
  Al  Al3  1  0.55102675  0.21383878  0.14138437  1
  Al  Al4  1  0.11818376  0.10079007  0.89542060  1
  Al  Al5  1  0.21944113  0.20629703  0.66365120  1
  Al  Al6  1  0.80102664  0.07253683  0.30913271  1
  Al  Al7  1  0.90787947  0.20057695  0.13525827  1
  Al  Al8  1  0.43394841  0.10010782  0.90512672  1
  Al  Al9  1  0.52927536  0.21617151  0.66083626  1
  Al  Al10  1  0.22072232  0.53977987  0.14189812  1
  Al  Al11  1  0.79361813  0.42844073  0.89984768  1
  Al  Al12  1  0.88940025  0.53526743  0.66598322  1
  Al  Al13  1  0.43716726  0.43391030  0.39510658  1
  Al  Al14  1  0.56158897  0.53303117  0.06922005  1
  Al  Al15  1  0.11396989  0.42725988  0.89693764  1
  Al  Al16  1  0.21928006  0.53153671  0.65719744  1
  Al  Al17  1  0.89530713  0.53596642  0.13238864  1
  Al  Al18  1  0.42423151  0.43202291  0.90126396  1
  Al  Al19  1  0.12979413  0.75627044  0.41203034  1
  Al  Al20  1  0.77179598  0.75991806  0.87357154  1
  Al  Al21  1  0.43181723  0.77066718  0.41741977  1
  Al  Al22  1  0.55948702  0.86324869  0.13866367  1
  Al  Al23  1  0.11848541  0.75474590  0.89265367  1
  Al  Al24  1  0.22492838  0.87918203  0.65049439  1
  Al  Al25  1  0.88941075  0.85766483  0.06869832  1
  Al  Al26  1  0.44231736  0.76938707  0.89384460  1
  Al  Al27  1  0.54435049  0.88236589  0.66512943  1
  Gd  Gd28  1  0.76382010  0.12359959  0.88019770  1
  Gd  Gd29  1  0.45398655  0.09389592  0.39365861  1
  Gd  Gd30  1  0.12122739  0.42343343  0.40356222  1
  Gd  Gd31  1  0.77307383  0.40477458  0.37708660  1
  Gd  Gd32  1  0.54561170  0.53091105  0.63337990  1
  Gd  Gd33  1  0.22678845  0.86796943  0.15661591  1
  Gd  Gd34  1  0.88742096  0.89309872  0.62236193  1
  Gd  Gd35  1  0.77334296  0.74887249  0.39279523  1
  N  N36  1  0.21348150  0.18659488  0.32301009  1
  N  N37  1  0.10982063  0.11302725  0.07274734  1
  N  N38  1  0.91375904  0.22767008  0.83739030  1
  N  N39  1  0.74530517  0.15322344  0.65080002  1
  N  N40  1  0.57827072  0.22611693  0.31953660  1
  N  N41  1  0.44591392  0.09508826  0.09339376  1
  N  N42  1  0.22369453  0.20619485  0.84571341  1
  N  N43  1  0.10600223  0.09956888  0.59346668  1
  N  N44  1  0.92765132  0.15839059  0.31056494  1
  N  N45  1  0.78524409  0.08172784  0.11212295  1
  N  N46  1  0.50796589  0.22941601  0.84338264  1
  N  N47  1  0.43827896  0.09449937  0.61203799  1
  N  N48  1  0.23253122  0.55704451  0.32137181  1
  N  N49  1  0.11784081  0.42570632  0.08418529  1
  N  N50  1  0.89047495  0.54132137  0.85117790  1
  N  N51  1  0.80371408  0.42439183  0.59230863  1
  N  N52  1  0.52335954  0.55839319  0.40432403  1
  N  N53  1  0.44088398  0.42959953  0.08235766  1
  N  N54  1  0.21832083  0.54299277  0.83976336  1
  N  N55  1  0.10290313  0.43022372  0.62332791  1
  N  N56  1  0.89796913  0.52204722  0.30808253  1
  N  N57  1  0.78402278  0.41883041  0.08580171  1
  N  N58  1  0.55892837  0.53124346  0.87300467  1
  N  N59  1  0.40867546  0.40392340  0.57310578  1
  N  N60  1  0.22349061  0.87201512  0.37083843  1
  N  N61  1  0.10727169  0.74468381  0.07355104  1
  N  N62  1  0.89395272  0.85867210  0.87074979  1
  N  N63  1  0.76154680  0.75464541  0.62613619  1
  N  N64  1  0.53257450  0.85709545  0.31835262  1
  N  N65  1  0.46758379  0.74997894  0.07227023  1
  N  N66  1  0.22067109  0.87599053  0.84118960  1
  N  N67  1  0.15221563  0.73877997  0.59754201  1
  N  N68  1  0.90443635  0.87947469  0.39297559  1
  N  N69  1  0.77539842  0.75730200  0.09288092  1
  N  N70  1  0.54887813  0.88055840  0.84821586  1
  N  N71  1  0.43151795  0.79577095  0.60070683  1
