# generated using pymatgen
data_Gd2Al7N9
_symmetry_space_group_name_H-M   'P 1'
_cell_length_a   9.87185094
_cell_length_b   9.86822908
_cell_length_c   10.83732252
_cell_angle_alpha   91.20191180
_cell_angle_beta   91.24828194
_cell_angle_gamma   59.74528586
_symmetry_Int_Tables_number   1
_chemical_formula_structural   Gd2Al7N9
_chemical_formula_sum   'Gd8 Al28 N36'
_cell_volume   911.67033727
_cell_formula_units_Z   4
loop_
 _symmetry_equiv_pos_site_id
 _symmetry_equiv_pos_as_xyz
  1  'x, y, z'
loop_
 _atom_site_type_symbol
 _atom_site_label
 _atom_site_symmetry_multiplicity
 _atom_site_fract_x
 _atom_site_fract_y
 _atom_site_fract_z
 _atom_site_occupancy
  Al  Al0  1  0.11297755  0.07465814  0.43235176  1
  Al  Al1  1  0.23637389  0.21697273  0.06360749  1
  Al  Al2  1  0.87794611  0.20717439  0.58981981  1
  Al  Al3  1  0.56367352  0.21918638  0.14203280  1
  Al  Al4  1  0.11927101  0.09488072  0.89882226  1
  Al  Al5  1  0.21368580  0.20326924  0.59839371  1
  Al  Al6  1  0.80525447  0.08548659  0.31882403  1
  Al  Al7  1  0.89937042  0.21959029  0.07115901  1
  Al  Al8  1  0.43008084  0.09626730  0.82308890  1
  Al  Al9  1  0.52777101  0.21339260  0.65161224  1
  Al  Al10  1  0.23021526  0.54250304  0.13940954  1
  Al  Al11  1  0.79569092  0.42448765  0.82727872  1
  Al  Al12  1  0.88266979  0.53135694  0.59364521  1
  Al  Al13  1  0.43594993  0.43303136  0.39679300  1
  Al  Al14  1  0.57518464  0.53524709  0.05357839  1
  Al  Al15  1  0.10801000  0.42614282  0.82702404  1
  Al  Al16  1  0.21663302  0.52861093  0.64550976  1
  Al  Al17  1  0.89770547  0.53935957  0.05944611  1
  Al  Al18  1  0.42509293  0.43171324  0.89702013  1
  Al  Al19  1  0.13368100  0.75347584  0.40474263  1
  Al  Al20  1  0.77763622  0.75300372  0.83057800  1
  Al  Al21  1  0.42530968  0.77085757  0.43925807  1
  Al  Al22  1  0.56714951  0.88299832  0.05646766  1
  Al  Al23  1  0.12040435  0.74954146  0.89377125  1
  Al  Al24  1  0.21597850  0.87579161  0.66507522  1
  Al  Al25  1  0.89588490  0.86228357  0.06237377  1
  Al  Al26  1  0.44401636  0.76767882  0.88709140  1
  Al  Al27  1  0.55128938  0.87088450  0.60231175  1
  Gd  Gd28  1  0.76505481  0.10929879  0.85738629  1
  Gd  Gd29  1  0.44757618  0.09963894  0.35360391  1
  Gd  Gd30  1  0.10851426  0.42000797  0.33555734  1
  Gd  Gd31  1  0.75176689  0.42281170  0.33437486  1
  Gd  Gd32  1  0.53432767  0.52765445  0.63427390  1
  Gd  Gd33  1  0.23662704  0.86982989  0.15499660  1
  Gd  Gd34  1  0.88122347  0.87582108  0.59264378  1
  Gd  Gd35  1  0.77216843  0.75965442  0.31836392  1
  N  N36  1  0.21210697  0.19097818  0.42292467  1
  N  N37  1  0.11992849  0.11305138  0.08256981  1
  N  N38  1  0.90184377  0.22582222  0.89479897  1
  N  N39  1  0.74708838  0.13198177  0.64335375  1
  N  N40  1  0.58317153  0.23750966  0.31598676  1
  N  N41  1  0.45423179  0.09717896  0.12557633  1
  N  N42  1  0.22479342  0.21068562  0.88285371  1
  N  N43  1  0.10140727  0.08634755  0.61373911  1
  N  N44  1  0.89764727  0.18082369  0.40875365  1
  N  N45  1  0.79987158  0.09017232  0.11802345  1
  N  N46  1  0.50710632  0.23519356  0.82923821  1
  N  N47  1  0.43425719  0.08620789  0.64457902  1
  N  N48  1  0.23747323  0.55746386  0.31765582  1
  N  N49  1  0.11621386  0.43025411  0.11774940  1
  N  N50  1  0.89347901  0.53833904  0.88379096  1
  N  N51  1  0.79876574  0.41176399  0.65151436  1
  N  N52  1  0.52292596  0.55810013  0.41922279  1
  N  N53  1  0.44880803  0.43073031  0.07401798  1
  N  N54  1  0.22239415  0.54426370  0.82678171  1
  N  N55  1  0.09941046  0.42245801  0.64823387  1
  N  N56  1  0.87877617  0.53929654  0.41887457  1
  N  N57  1  0.78353248  0.43599506  0.11886482  1
  N  N58  1  0.56184488  0.53237389  0.86903175  1
  N  N59  1  0.40469468  0.39306872  0.56279703  1
  N  N60  1  0.22542121  0.87437836  0.36680196  1
  N  N61  1  0.11685754  0.74345256  0.07034190  1
  N  N62  1  0.89838641  0.84851450  0.87635297  1
  N  N63  1  0.76260675  0.74339635  0.65581056  1
  N  N64  1  0.55058171  0.86295784  0.42223865  1
  N  N65  1  0.47425071  0.75442064  0.06695462  1
  N  N66  1  0.21858240  0.87356620  0.84604478  1
  N  N67  1  0.14858053  0.73504335  0.58783838  1
  N  N68  1  0.90581543  0.87735682  0.37848138  1
  N  N69  1  0.78360903  0.76210007  0.10478196  1
  N  N70  1  0.55612004  0.88406347  0.87839975  1
  N  N71  1  0.42248278  0.78769527  0.61971954  1
