# generated using pymatgen
data_Gd2Al7N9
_symmetry_space_group_name_H-M   'P 1'
_cell_length_a   9.87801307
_cell_length_b   9.87561322
_cell_length_c   10.42593105
_cell_angle_alpha   90.26507696
_cell_angle_beta   90.40915663
_cell_angle_gamma   60.28249883
_symmetry_Int_Tables_number   1
_chemical_formula_structural   Gd2Al7N9
_chemical_formula_sum   'Gd8 Al28 N36'
_cell_volume   883.27714461
_cell_formula_units_Z   4
loop_
 _symmetry_equiv_pos_site_id
 _symmetry_equiv_pos_as_xyz
  1  'x, y, z'
loop_
 _atom_site_type_symbol
 _atom_site_label
 _atom_site_symmetry_multiplicity
 _atom_site_fract_x
 _atom_site_fract_y
 _atom_site_fract_z
 _atom_site_occupancy
  Al  Al0  1  0.10725427  0.09265342  0.31967912  1
  Al  Al1  1  0.22113371  0.21161796  0.04192003  1
  Al  Al2  1  0.89760198  0.19742954  0.56133062  1
  Al  Al3  1  0.54378126  0.21670049  0.05470776  1
  Al  Al4  1  0.11791114  0.09324727  0.80333211  1
  Al  Al5  1  0.21804053  0.20401203  0.57266469  1
  Al  Al6  1  0.78636731  0.09137494  0.30288303  1
  Al  Al7  1  0.89768482  0.21800458  0.05601441  1
  Al  Al8  1  0.43992030  0.09890245  0.80548293  1
  Al  Al9  1  0.55479713  0.21131374  0.56413828  1
  Al  Al10  1  0.22383192  0.53604906  0.04715847  1
  Al  Al11  1  0.79786467  0.42051629  0.81090685  1
  Al  Al12  1  0.89423562  0.52745270  0.57476387  1
  Al  Al13  1  0.43572602  0.44028027  0.32761559  1
  Al  Al14  1  0.56009374  0.54113613  0.04471625  1
  Al  Al15  1  0.11491677  0.42827766  0.80852960  1
  Al  Al16  1  0.22583712  0.53406590  0.56856759  1
  Al  Al17  1  0.89308039  0.53775244  0.03389948  1
  Al  Al18  1  0.43351011  0.42827259  0.81171667  1
  Al  Al19  1  0.11143264  0.75857645  0.30917676  1
  Al  Al20  1  0.77646778  0.75194488  0.81234852  1
  Al  Al21  1  0.43786305  0.75982179  0.31519637  1
  Al  Al22  1  0.55934724  0.87408059  0.04313974  1
  Al  Al23  1  0.12461358  0.75301082  0.80572791  1
  Al  Al24  1  0.22234043  0.87692464  0.55968415  1
  Al  Al25  1  0.89736693  0.85598875  0.04914957  1
  Al  Al26  1  0.43465638  0.77761943  0.80900296  1
  Al  Al27  1  0.54496401  0.87603248  0.57183910  1
  Gd  Gd28  1  0.77777391  0.10096727  0.82960396  1
  Gd  Gd29  1  0.44119822  0.09575502  0.31814006  1
  Gd  Gd30  1  0.10926920  0.42433174  0.30411372  1
  Gd  Gd31  1  0.76408100  0.41666718  0.30640727  1
  Gd  Gd32  1  0.55514525  0.54528702  0.58884470  1
  Gd  Gd33  1  0.22172072  0.87691962  0.07632720  1
  Gd  Gd34  1  0.88972011  0.86609446  0.56625265  1
  Gd  Gd35  1  0.76527783  0.75650721  0.29618324  1
  N  N36  1  0.20585055  0.19341374  0.39411149  1
  N  N37  1  0.09948645  0.13388588  0.13451433  1
  N  N38  1  0.91768939  0.21546786  0.87717072  1
  N  N39  1  0.76537855  0.11910983  0.61596296  1
  N  N40  1  0.57208735  0.22540292  0.37407705  1
  N  N41  1  0.44235403  0.09474329  0.09724505  1
  N  N42  1  0.22480049  0.20266709  0.85541582  1
  N  N43  1  0.11001097  0.08918146  0.62021650  1
  N  N44  1  0.90432696  0.17300235  0.37835188  1
  N  N45  1  0.78082398  0.09800255  0.10273272  1
  N  N46  1  0.52343931  0.22216656  0.87352726  1
  N  N47  1  0.44777598  0.09675862  0.61530394  1
  N  N48  1  0.22581943  0.55203526  0.38363790  1
  N  N49  1  0.11257291  0.42795617  0.08169609  1
  N  N50  1  0.89577851  0.53628500  0.85436464  1
  N  N51  1  0.81417119  0.40055485  0.62831186  1
  N  N52  1  0.52225446  0.55903952  0.37423234  1
  N  N53  1  0.44320336  0.43581706  0.10658021  1
  N  N54  1  0.22262195  0.54208609  0.86349633  1
  N  N55  1  0.11346461  0.42827625  0.62155100  1
  N  N56  1  0.88226335  0.53324434  0.39357905  1
  N  N57  1  0.77771238  0.43622145  0.08816662  1
  N  N58  1  0.55569270  0.54275162  0.85174826  1
  N  N59  1  0.43015140  0.41248971  0.62949203  1
  N  N60  1  0.21850873  0.87203268  0.35604714  1
  N  N61  1  0.10120263  0.73872144  0.12422789  1
  N  N62  1  0.90969450  0.84057560  0.85951328  1
  N  N63  1  0.75776008  0.74269059  0.62849208  1
  N  N64  1  0.53700989  0.85958128  0.39154421  1
  N  N65  1  0.48037171  0.74880172  0.12546206  1
  N  N66  1  0.21945751  0.87644834  0.86075000  1
  N  N67  1  0.14357829  0.74632051  0.62314106  1
  N  N68  1  0.89461442  0.87945050  0.34975713  1
  N  N69  1  0.77860775  0.75792110  0.07798011  1
  N  N70  1  0.55208797  0.87817802  0.86126726  1
  N  N71  1  0.41957892  0.80052914  0.63139813  1
