# generated using pymatgen
data_Gd2Al7N9
_symmetry_space_group_name_H-M   'P 1'
_cell_length_a   9.82623527
_cell_length_b   9.91851937
_cell_length_c   10.79374246
_cell_angle_alpha   90.88062922
_cell_angle_beta   90.65432820
_cell_angle_gamma   59.32731928
_symmetry_Int_Tables_number   1
_chemical_formula_structural   Gd2Al7N9
_chemical_formula_sum   'Gd8 Al28 N36'
_cell_volume   904.68569536
_cell_formula_units_Z   4
loop_
 _symmetry_equiv_pos_site_id
 _symmetry_equiv_pos_as_xyz
  1  'x, y, z'
loop_
 _atom_site_type_symbol
 _atom_site_label
 _atom_site_symmetry_multiplicity
 _atom_site_fract_x
 _atom_site_fract_y
 _atom_site_fract_z
 _atom_site_occupancy
  Al  Al0  1  0.12261466  0.08157682  0.41723759  1
  Al  Al1  1  0.21655129  0.21309866  0.15297943  1
  Al  Al2  1  0.88141040  0.20722362  0.58437171  1
  Al  Al3  1  0.55538371  0.21902692  0.13906741  1
  Al  Al4  1  0.11926531  0.09755069  0.90505345  1
  Al  Al5  1  0.21817823  0.19071066  0.66548596  1
  Al  Al6  1  0.80187286  0.09122542  0.31513592  1
  Al  Al7  1  0.89343066  0.21902445  0.07181935  1
  Al  Al8  1  0.42386738  0.11381801  0.90049191  1
  Al  Al9  1  0.51789589  0.21546108  0.65680794  1
  Al  Al10  1  0.21938430  0.54233773  0.14684107  1
  Al  Al11  1  0.79395900  0.42416298  0.83107381  1
  Al  Al12  1  0.88013062  0.53448728  0.60210293  1
  Al  Al13  1  0.44410988  0.43345864  0.39078301  1
  Al  Al14  1  0.57017556  0.53409091  0.05665118  1
  Al  Al15  1  0.10461816  0.43088053  0.83105961  1
  Al  Al16  1  0.21478028  0.53746173  0.65310633  1
  Al  Al17  1  0.90029764  0.53379728  0.06389427  1
  Al  Al18  1  0.42197737  0.43489801  0.90077168  1
  Al  Al19  1  0.13404290  0.75979229  0.40830613  1
  Al  Al20  1  0.77638048  0.75437840  0.83901093  1
  Al  Al21  1  0.43912521  0.76407895  0.43751013  1
  Al  Al22  1  0.56482581  0.87484446  0.05824572  1
  Al  Al23  1  0.11736621  0.75403653  0.89583643  1
  Al  Al24  1  0.21387397  0.87835790  0.66090451  1
  Al  Al25  1  0.89083753  0.86578466  0.06171383  1
  Al  Al26  1  0.43881066  0.76788985  0.88576420  1
  Al  Al27  1  0.54917366  0.86970409  0.62675301  1
  Gd  Gd28  1  0.76342673  0.11175629  0.85522574  1
  Gd  Gd29  1  0.46445558  0.09175469  0.39858517  1
  Gd  Gd30  1  0.14803567  0.41532902  0.41161122  1
  Gd  Gd31  1  0.77321344  0.42692568  0.33497315  1
  Gd  Gd32  1  0.53862952  0.52069204  0.63273639  1
  Gd  Gd33  1  0.23315545  0.86648921  0.15988281  1
  Gd  Gd34  1  0.87050734  0.88099132  0.59114993  1
  Gd  Gd35  1  0.79841006  0.74553708  0.31329820  1
  N  N36  1  0.21756213  0.17799955  0.33058795  1
  N  N37  1  0.11684941  0.11056447  0.08245203  1
  N  N38  1  0.89934628  0.22544328  0.89626849  1
  N  N39  1  0.74168620  0.13954242  0.64167226  1
  N  N40  1  0.57584869  0.23208507  0.31266908  1
  N  N41  1  0.44550993  0.10518330  0.08645206  1
  N  N42  1  0.21478309  0.20487075  0.84202676  1
  N  N43  1  0.11047487  0.09013102  0.60107620  1
  N  N44  1  0.90025203  0.18229603  0.40408285  1
  N  N45  1  0.79521151  0.09083675  0.11685353  1
  N  N46  1  0.49873833  0.23657757  0.83352283  1
  N  N47  1  0.43497478  0.08833167  0.61327463  1
  N  N48  1  0.23803897  0.56482603  0.32130366  1
  N  N49  1  0.10822317  0.43315771  0.13078339  1
  N  N50  1  0.89179944  0.53776792  0.88691955  1
  N  N51  1  0.80307099  0.40835553  0.65473984  1
  N  N52  1  0.53719145  0.54945950  0.41928542  1
  N  N53  1  0.44371796  0.43228484  0.07649089  1
  N  N54  1  0.21842748  0.54752138  0.83039803  1
  N  N55  1  0.10304397  0.42420737  0.64616580  1
  N  N56  1  0.89643786  0.53579370  0.43003687  1
  N  N57  1  0.77959600  0.43512080  0.11818928  1
  N  N58  1  0.55819919  0.53185136  0.86920375  1
  N  N59  1  0.39752997  0.39656490  0.56003436  1
  N  N60  1  0.23345496  0.87079179  0.37244057  1
  N  N61  1  0.11265588  0.74346452  0.07247338  1
  N  N62  1  0.89448303  0.85268482  0.87712040  1
  N  N63  1  0.76320010  0.74254410  0.66473122  1
  N  N64  1  0.57057597  0.84316130  0.40949736  1
  N  N65  1  0.46855876  0.75275794  0.06597446  1
  N  N66  1  0.21275201  0.87764208  0.84366734  1
  N  N67  1  0.14061638  0.74192037  0.59138895  1
  N  N68  1  0.90508777  0.88520901  0.37862194  1
  N  N69  1  0.78044985  0.76189420  0.10028000  1
  N  N70  1  0.54892175  0.88551278  0.87569918  1
  N  N71  1  0.42554397  0.78216777  0.62069867  1
