# generated using pymatgen
data_Gd2Al7N9
_symmetry_space_group_name_H-M   'P 1'
_cell_length_a   9.87990845
_cell_length_b   9.88139171
_cell_length_c   10.40957879
_cell_angle_alpha   90.33927313
_cell_angle_beta   90.30985757
_cell_angle_gamma   60.13284043
_symmetry_Int_Tables_number   1
_chemical_formula_structural   Gd2Al7N9
_chemical_formula_sum   'Gd8 Al28 N36'
_cell_volume   881.26241967
_cell_formula_units_Z   4
loop_
 _symmetry_equiv_pos_site_id
 _symmetry_equiv_pos_as_xyz
  1  'x, y, z'
loop_
 _atom_site_type_symbol
 _atom_site_label
 _atom_site_symmetry_multiplicity
 _atom_site_fract_x
 _atom_site_fract_y
 _atom_site_fract_z
 _atom_site_occupancy
  Al  Al0  1  0.10814389  0.09150699  0.31544370  1
  Al  Al1  1  0.21926451  0.21180479  0.03812652  1
  Al  Al2  1  0.89708898  0.19832498  0.55723767  1
  Al  Al3  1  0.54307894  0.21402898  0.05345621  1
  Al  Al4  1  0.11684995  0.09348208  0.79869111  1
  Al  Al5  1  0.21801528  0.20418308  0.56847064  1
  Al  Al6  1  0.78630484  0.09234510  0.29912778  1
  Al  Al7  1  0.89549226  0.21826155  0.05029188  1
  Al  Al8  1  0.43886086  0.09980484  0.80116753  1
  Al  Al9  1  0.55412949  0.21276952  0.55536976  1
  Al  Al10  1  0.22068801  0.53654021  0.04417625  1
  Al  Al11  1  0.79333459  0.42258101  0.80499758  1
  Al  Al12  1  0.89423147  0.52964113  0.57151336  1
  Al  Al13  1  0.43986705  0.43932723  0.30110537  1
  Al  Al14  1  0.55898003  0.54149278  0.04274583  1
  Al  Al15  1  0.11479395  0.42886767  0.80379573  1
  Al  Al16  1  0.22908049  0.53235814  0.55933955  1
  Al  Al17  1  0.89131553  0.53791127  0.02881105  1
  Al  Al18  1  0.43279366  0.42834169  0.80665142  1
  Al  Al19  1  0.11345130  0.75824869  0.30506399  1
  Al  Al20  1  0.77597913  0.75286734  0.80805840  1
  Al  Al21  1  0.44001842  0.75919926  0.30676362  1
  Al  Al22  1  0.55743319  0.87415671  0.03779052  1
  Al  Al23  1  0.12548052  0.75203032  0.80033967  1
  Al  Al24  1  0.22377564  0.87631348  0.55484893  1
  Al  Al25  1  0.89619932  0.85687489  0.04354622  1
  Al  Al26  1  0.43589686  0.77388967  0.80360958  1
  Al  Al27  1  0.54660977  0.87420865  0.56769968  1
  Gd  Gd28  1  0.77401763  0.10294804  0.82464684  1
  Gd  Gd29  1  0.44181274  0.09395676  0.31570765  1
  Gd  Gd30  1  0.11346876  0.42409853  0.30087538  1
  Gd  Gd31  1  0.77438356  0.41551474  0.30211492  1
  Gd  Gd32  1  0.55220136  0.54275257  0.57314018  1
  Gd  Gd33  1  0.21860999  0.87844085  0.07003734  1
  Gd  Gd34  1  0.89101538  0.86701189  0.56287852  1
  Gd  Gd35  1  0.76805119  0.75828889  0.29146024  1
  N  N36  1  0.20532753  0.19301348  0.38990964  1
  N  N37  1  0.09666187  0.13495259  0.12980715  1
  N  N38  1  0.91495465  0.21632851  0.87098604  1
  N  N39  1  0.76346111  0.12159558  0.61060680  1
  N  N40  1  0.57168088  0.22628974  0.36465196  1
  N  N41  1  0.44023922  0.09382687  0.09463475  1
  N  N42  1  0.22330150  0.20327213  0.85111088  1
  N  N43  1  0.11018214  0.08917786  0.61574246  1
  N  N44  1  0.90543019  0.17200377  0.37471610  1
  N  N45  1  0.78009844  0.09750496  0.09784542  1
  N  N46  1  0.51992265  0.22405652  0.87289860  1
  N  N47  1  0.44820290  0.09659577  0.60973674  1
  N  N48  1  0.23368243  0.54987479  0.37437287  1
  N  N49  1  0.10999529  0.42848574  0.07824500  1
  N  N50  1  0.89430033  0.53620789  0.84878705  1
  N  N51  1  0.81040575  0.40409700  0.62140633  1
  N  N52  1  0.52804184  0.55488146  0.35726998  1
  N  N53  1  0.44052578  0.43387409  0.11004854  1
  N  N54  1  0.22250781  0.54220916  0.86123824  1
  N  N55  1  0.11465103  0.42884089  0.61631462  1
  N  N56  1  0.88666371  0.53705871  0.39032531  1
  N  N57  1  0.77630676  0.43632204  0.08367043  1
  N  N58  1  0.55382069  0.54090510  0.85025707  1
  N  N59  1  0.43031565  0.41116259  0.62594752  1
  N  N60  1  0.22095692  0.87109717  0.35112228  1
  N  N61  1  0.09963430  0.73956327  0.11975774  1
  N  N62  1  0.90937089  0.84167162  0.85375906  1
  N  N63  1  0.75901533  0.74466292  0.62444124  1
  N  N64  1  0.53937113  0.85656595  0.38681028  1
  N  N65  1  0.47677431  0.75066524  0.11751164  1
  N  N66  1  0.21929984  0.87615147  0.85448473  1
  N  N67  1  0.14636933  0.74401464  0.61701526  1
  N  N68  1  0.89659134  0.88037095  0.34658983  1
  N  N69  1  0.77719330  0.75870884  0.07227336  1
  N  N70  1  0.55079132  0.87831430  0.85565568  1
  N  N71  1  0.42257824  0.79576516  0.62538979  1
