# generated using pymatgen
data_Gd2Al7N9
_symmetry_space_group_name_H-M   'P 1'
_cell_length_a   9.90379357
_cell_length_b   9.90571076
_cell_length_c   10.58671222
_cell_angle_alpha   91.08897571
_cell_angle_beta   91.20022748
_cell_angle_gamma   59.88180707
_symmetry_Int_Tables_number   1
_chemical_formula_structural   Gd2Al7N9
_chemical_formula_sum   'Gd8 Al28 N36'
_cell_volume   898.14042002
_cell_formula_units_Z   4
loop_
 _symmetry_equiv_pos_site_id
 _symmetry_equiv_pos_as_xyz
  1  'x, y, z'
loop_
 _atom_site_type_symbol
 _atom_site_label
 _atom_site_symmetry_multiplicity
 _atom_site_fract_x
 _atom_site_fract_y
 _atom_site_fract_z
 _atom_site_occupancy
  Al  Al0  1  0.11094789  0.09294700  0.31813245  1
  Al  Al1  1  0.23035250  0.21596814  0.04922227  1
  Al  Al2  1  0.89273934  0.19761269  0.56263604  1
  Al  Al3  1  0.55955551  0.22106351  0.12003935  1
  Al  Al4  1  0.10998796  0.10239962  0.81148362  1
  Al  Al5  1  0.21076496  0.19682044  0.57279712  1
  Al  Al6  1  0.80602456  0.08404899  0.29553919  1
  Al  Al7  1  0.90455786  0.22585918  0.05716460  1
  Al  Al8  1  0.43156168  0.09469238  0.80195464  1
  Al  Al9  1  0.53370809  0.21011396  0.62973744  1
  Al  Al10  1  0.22863101  0.54303560  0.11383610  1
  Al  Al11  1  0.79745653  0.42244182  0.80568261  1
  Al  Al12  1  0.88730373  0.52688096  0.56960343  1
  Al  Al13  1  0.43123749  0.43607208  0.37060019  1
  Al  Al14  1  0.57242192  0.54023814  0.02989499  1
  Al  Al15  1  0.11018330  0.42414786  0.80954546  1
  Al  Al16  1  0.22008336  0.52385770  0.61912446  1
  Al  Al17  1  0.89424231  0.54398561  0.03562442  1
  Al  Al18  1  0.42683863  0.43100355  0.87361122  1
  Al  Al19  1  0.12921030  0.75713581  0.37265791  1
  Al  Al20  1  0.77633171  0.75409224  0.80564966  1
  Al  Al21  1  0.42126915  0.77079823  0.37119763  1
  Al  Al22  1  0.56498515  0.88429359  0.03614791  1
  Al  Al23  1  0.11624752  0.74680050  0.86824845  1
  Al  Al24  1  0.22028616  0.86615863  0.64391079  1
  Al  Al25  1  0.89281703  0.86274992  0.04126726  1
  Al  Al26  1  0.44887333  0.76760919  0.83639161  1
  Al  Al27  1  0.54864775  0.86265846  0.58125078  1
  Gd  Gd28  1  0.76635149  0.11344060  0.84250794  1
  Gd  Gd29  1  0.45415462  0.10485081  0.35353897  1
  Gd  Gd30  1  0.10522494  0.41333686  0.30243483  1
  Gd  Gd31  1  0.74988581  0.41864764  0.31149466  1
  Gd  Gd32  1  0.54073587  0.52368149  0.60767824  1
  Gd  Gd33  1  0.22755316  0.87958749  0.09136276  1
  Gd  Gd34  1  0.88691513  0.87381042  0.57828352  1
  Gd  Gd35  1  0.76846147  0.75934789  0.29996862  1
  N  N36  1  0.21216485  0.18556594  0.39750146  1
  N  N37  1  0.10270445  0.14648679  0.13674280  1
  N  N38  1  0.91328427  0.22436558  0.88009398  1
  N  N39  1  0.75224273  0.13166230  0.62052013  1
  N  N40  1  0.58723864  0.24158397  0.29536899  1
  N  N41  1  0.45134412  0.09926207  0.10942116  1
  N  N42  1  0.22464047  0.20149721  0.86518912  1
  N  N43  1  0.10397346  0.08891504  0.63052217  1
  N  N44  1  0.91033172  0.17273341  0.38153539  1
  N  N45  1  0.80001630  0.09034349  0.09407048  1
  N  N46  1  0.50870538  0.23230568  0.80949978  1
  N  N47  1  0.43746941  0.08345060  0.61571909  1
  N  N48  1  0.23142431  0.55352152  0.29553254  1
  N  N49  1  0.11528380  0.43500188  0.08212264  1
  N  N50  1  0.89178727  0.54027715  0.85733639  1
  N  N51  1  0.80446262  0.40491383  0.62461135  1
  N  N52  1  0.51570937  0.56421088  0.39178771  1
  N  N53  1  0.44709355  0.43388038  0.05326038  1
  N  N54  1  0.22368671  0.54169742  0.80331721  1
  N  N55  1  0.10342190  0.41713214  0.62446044  1
  N  N56  1  0.87918219  0.53358657  0.39130447  1
  N  N57  1  0.77916804  0.44262558  0.09633659  1
  N  N58  1  0.56722007  0.52454729  0.84490028  1
  N  N59  1  0.40947397  0.38895555  0.53929787  1
  N  N60  1  0.21970186  0.87318699  0.31511389  1
  N  N61  1  0.10952165  0.74170539  0.04706728  1
  N  N62  1  0.89578035  0.85171586  0.84633631  1
  N  N63  1  0.76402134  0.74067753  0.62617159  1
  N  N64  1  0.54054040  0.85981025  0.39939846  1
  N  N65  1  0.47700694  0.75502284  0.04579595  1
  N  N66  1  0.21170961  0.87369443  0.83535486  1
  N  N67  1  0.15535020  0.73285629  0.56041457  1
  N  N68  1  0.90132190  0.87831515  0.35729880  1
  N  N69  1  0.78187350  0.76369721  0.08351126  1
  N  N70  1  0.56043387  0.88586442  0.85603804  1
  N  N71  1  0.43311949  0.78068894  0.64534198  1
