# generated using pymatgen
data_Gd2Al7N9
_symmetry_space_group_name_H-M   'P 1'
_cell_length_a   9.81313430
_cell_length_b   9.94318452
_cell_length_c   10.75106728
_cell_angle_alpha   89.94259931
_cell_angle_beta   89.74993165
_cell_angle_gamma   58.89801998
_symmetry_Int_Tables_number   1
_chemical_formula_structural   Gd2Al7N9
_chemical_formula_sum   'Gd8 Al28 N36'
_cell_volume   898.21523270
_cell_formula_units_Z   4
loop_
 _symmetry_equiv_pos_site_id
 _symmetry_equiv_pos_as_xyz
  1  'x, y, z'
loop_
 _atom_site_type_symbol
 _atom_site_label
 _atom_site_symmetry_multiplicity
 _atom_site_fract_x
 _atom_site_fract_y
 _atom_site_fract_z
 _atom_site_occupancy
  Al  Al0  1  0.11477783  0.08678171  0.40678569  1
  Al  Al1  1  0.21444692  0.21206783  0.15670694  1
  Al  Al2  1  0.89258774  0.21278820  0.66392563  1
  Al  Al3  1  0.54629259  0.21534094  0.14044090  1
  Al  Al4  1  0.11722825  0.09858285  0.90239526  1
  Al  Al5  1  0.22428401  0.19060224  0.66434377  1
  Al  Al6  1  0.79966755  0.08857668  0.30643890  1
  Al  Al7  1  0.89673767  0.21098235  0.10810294  1
  Al  Al8  1  0.42620796  0.10167375  0.90860132  1
  Al  Al9  1  0.52076851  0.21782664  0.65982774  1
  Al  Al10  1  0.21488600  0.54132118  0.14908087  1
  Al  Al11  1  0.78346200  0.43690529  0.84041709  1
  Al  Al12  1  0.88170474  0.54147506  0.60475327  1
  Al  Al13  1  0.44599440  0.43102963  0.39193998  1
  Al  Al14  1  0.55987328  0.53475170  0.05991297  1
  Al  Al15  1  0.10677932  0.42747011  0.83121699  1
  Al  Al16  1  0.21766309  0.53914647  0.65591555  1
  Al  Al17  1  0.89578302  0.53349660  0.06235780  1
  Al  Al18  1  0.41726209  0.43418393  0.90193189  1
  Al  Al19  1  0.13734059  0.76071635  0.41481739  1
  Al  Al20  1  0.77486769  0.75544570  0.84255851  1
  Al  Al21  1  0.44915131  0.76331699  0.41621243  1
  Al  Al22  1  0.55584653  0.86184190  0.13538806  1
  Al  Al23  1  0.11642962  0.75591095  0.89263808  1
  Al  Al24  1  0.22253666  0.87996187  0.65250068  1
  Al  Al25  1  0.88325071  0.86201760  0.05455683  1
  Al  Al26  1  0.43599520  0.77291737  0.89692203  1
  Al  Al27  1  0.54232122  0.87881716  0.67068013  1
  Gd  Gd28  1  0.75318096  0.11873871  0.87462028  1
  Gd  Gd29  1  0.48209442  0.06473549  0.39471531  1
  Gd  Gd30  1  0.16190199  0.40275763  0.42228748  1
  Gd  Gd31  1  0.77760431  0.43483375  0.32977650  1
  Gd  Gd32  1  0.53696965  0.53204133  0.62740206  1
  Gd  Gd33  1  0.21363315  0.87292420  0.16161412  1
  Gd  Gd34  1  0.87414914  0.89120086  0.60452599  1
  Gd  Gd35  1  0.84252781  0.72611361  0.30613617  1
  N  N36  1  0.23061496  0.17217397  0.33335092  1
  N  N37  1  0.11420832  0.11437189  0.07643805  1
  N  N38  1  0.90389978  0.22067578  0.86341857  1
  N  N39  1  0.74283713  0.14905811  0.65318088  1
  N  N40  1  0.57000643  0.22633838  0.31470187  1
  N  N41  1  0.44315976  0.09654722  0.09324567  1
  N  N42  1  0.21846967  0.20109880  0.84128408  1
  N  N43  1  0.10320321  0.09926378  0.59600700  1
  N  N44  1  0.92330745  0.17486270  0.31620887  1
  N  N45  1  0.78493828  0.08645376  0.10852299  1
  N  N46  1  0.49195394  0.23464780  0.83791503  1
  N  N47  1  0.44307903  0.08753005  0.60873758  1
  N  N48  1  0.23209357  0.56705604  0.32478221  1
  N  N49  1  0.09967372  0.43556413  0.13790659  1
  N  N50  1  0.89289862  0.53854825  0.88765482  1
  N  N51  1  0.79577187  0.42711295  0.66244691  1
  N  N52  1  0.53920932  0.54690258  0.41302426  1
  N  N53  1  0.43705208  0.42930036  0.07890376  1
  N  N54  1  0.21484758  0.54855963  0.83257218  1
  N  N55  1  0.10705326  0.42461431  0.64836951  1
  N  N56  1  0.90542987  0.53064717  0.43341582  1
  N  N57  1  0.77388944  0.43383710  0.10880537  1
  N  N58  1  0.55034307  0.53612470  0.87360306  1
  N  N59  1  0.40138503  0.40091431  0.56409075  1
  N  N60  1  0.23378753  0.87158113  0.37223806  1
  N  N61  1  0.10517336  0.74254279  0.07149844  1
  N  N62  1  0.89137725  0.85653519  0.87219596  1
  N  N63  1  0.76568222  0.74952533  0.66256155  1
  N  N64  1  0.57197437  0.82524173  0.31582095  1
  N  N65  1  0.45723903  0.75513132  0.07219184  1
  N  N66  1  0.21590475  0.87692109  0.83938558  1
  N  N67  1  0.14820638  0.74327136  0.59530843  1
  N  N68  1  0.90212217  0.89375864  0.38924247  1
  N  N69  1  0.77653407  0.75867914  0.09595225  1
  N  N70  1  0.54027835  0.88360200  0.85081998  1
  N  N71  1  0.43313423  0.79506772  0.59757623  1
