# generated using pymatgen
data_Gd2Al7N9
_symmetry_space_group_name_H-M   'P 1'
_cell_length_a   9.85911293
_cell_length_b   9.91097150
_cell_length_c   10.76433478
_cell_angle_alpha   90.63551594
_cell_angle_beta   90.65699927
_cell_angle_gamma   59.42407405
_symmetry_Int_Tables_number   1
_chemical_formula_structural   Gd2Al7N9
_chemical_formula_sum   'Gd8 Al28 N36'
_cell_volume   905.49380515
_cell_formula_units_Z   4
loop_
 _symmetry_equiv_pos_site_id
 _symmetry_equiv_pos_as_xyz
  1  'x, y, z'
loop_
 _atom_site_type_symbol
 _atom_site_label
 _atom_site_symmetry_multiplicity
 _atom_site_fract_x
 _atom_site_fract_y
 _atom_site_fract_z
 _atom_site_occupancy
  Al  Al0  1  0.12149283  0.08244604  0.41804189  1
  Al  Al1  1  0.22177235  0.20879437  0.15493916  1
  Al  Al2  1  0.88261737  0.20624212  0.58602398  1
  Al  Al3  1  0.55599913  0.21617833  0.14141164  1
  Al  Al4  1  0.12106160  0.09672329  0.90586866  1
  Al  Al5  1  0.21546747  0.19315809  0.66179731  1
  Al  Al6  1  0.80357304  0.08890702  0.31678243  1
  Al  Al7  1  0.89663632  0.21667250  0.07313544  1
  Al  Al8  1  0.42777727  0.10569626  0.87872879  1
  Al  Al9  1  0.52305542  0.21429188  0.65739250  1
  Al  Al10  1  0.22182235  0.54067789  0.14580537  1
  Al  Al11  1  0.79602458  0.42306611  0.83218835  1
  Al  Al12  1  0.87821374  0.53576600  0.59917548  1
  Al  Al13  1  0.44358059  0.43681767  0.39033976  1
  Al  Al14  1  0.57169641  0.53207405  0.05688756  1
  Al  Al15  1  0.10352999  0.43163350  0.82814662  1
  Al  Al16  1  0.21759987  0.53363159  0.64914461  1
  Al  Al17  1  0.90151612  0.53349824  0.06745975  1
  Al  Al18  1  0.42223167  0.43350007  0.90109172  1
  Al  Al19  1  0.13292145  0.76136037  0.40798498  1
  Al  Al20  1  0.77559328  0.75352408  0.83727015  1
  Al  Al21  1  0.43271322  0.76753896  0.43906853  1
  Al  Al22  1  0.56362569  0.87751265  0.06034975  1
  Al  Al23  1  0.11778414  0.75179530  0.89417620  1
  Al  Al24  1  0.21645299  0.87710255  0.66278355  1
  Al  Al25  1  0.89230173  0.86161656  0.06272736  1
  Al  Al26  1  0.44136044  0.76613966  0.88620202  1
  Al  Al27  1  0.55200244  0.86794289  0.60958253  1
  Gd  Gd28  1  0.76444538  0.11120174  0.85998943  1
  Gd  Gd29  1  0.45534771  0.10834492  0.40436433  1
  Gd  Gd30  1  0.13260151  0.42860912  0.39574624  1
  Gd  Gd31  1  0.76946480  0.42381630  0.33361833  1
  Gd  Gd32  1  0.53993248  0.52060060  0.63358892  1
  Gd  Gd33  1  0.23424812  0.86208003  0.15792522  1
  Gd  Gd34  1  0.87606258  0.87917699  0.59662632  1
  Gd  Gd35  1  0.77830281  0.76001682  0.31812236  1
  N  N36  1  0.21395561  0.18276911  0.33549486  1
  N  N37  1  0.11939157  0.10899284  0.08411029  1
  N  N38  1  0.90217233  0.22351673  0.89695040  1
  N  N39  1  0.74472363  0.13808308  0.64431042  1
  N  N40  1  0.57959610  0.23480974  0.31450094  1
  N  N41  1  0.44809974  0.10088521  0.09940535  1
  N  N42  1  0.21339538  0.20575305  0.83961133  1
  N  N43  1  0.11084852  0.08862909  0.60177106  1
  N  N44  1  0.90099285  0.18028742  0.40561447  1
  N  N45  1  0.79740537  0.08766564  0.11761890  1
  N  N46  1  0.50195380  0.23613908  0.83344680  1
  N  N47  1  0.43605755  0.08860092  0.62313874  1
  N  N48  1  0.24098095  0.56852234  0.31910620  1
  N  N49  1  0.10900096  0.43187600  0.13864490  1
  N  N50  1  0.89365482  0.53711864  0.88840075  1
  N  N51  1  0.80402421  0.40818379  0.65497632  1
  N  N52  1  0.53571924  0.55385252  0.41876658  1
  N  N53  1  0.44461359  0.43013772  0.07677121  1
  N  N54  1  0.21988024  0.54487956  0.82824096  1
  N  N55  1  0.10090481  0.42613240  0.64112413  1
  N  N56  1  0.88324626  0.54338359  0.42530463  1
  N  N57  1  0.78106842  0.43263575  0.11780458  1
  N  N58  1  0.55997147  0.53023807  0.86979961  1
  N  N59  1  0.40123952  0.39300176  0.55794190  1
  N  N60  1  0.23081433  0.87339030  0.37065308  1
  N  N61  1  0.11295788  0.74019664  0.07029852  1
  N  N62  1  0.89510419  0.85086518  0.87528801  1
  N  N63  1  0.76253294  0.74308304  0.66249275  1
  N  N64  1  0.55709825  0.85856440  0.42465169  1
  N  N65  1  0.47083786  0.75059043  0.06808148  1
  N  N66  1  0.21465806  0.87616020  0.84565403  1
  N  N67  1  0.14507860  0.73955121  0.59101963  1
  N  N68  1  0.90480251  0.88217979  0.38113643  1
  N  N69  1  0.78047207  0.76045765  0.10403750  1
  N  N70  1  0.55229180  0.88276092  0.87987910  1
  N  N71  1  0.42656015  0.78129535  0.62342116  1
