# generated using pymatgen
data_Gd2Al7N9
_symmetry_space_group_name_H-M   'P 1'
_cell_length_a   9.87288205
_cell_length_b   9.87046331
_cell_length_c   10.41121493
_cell_angle_alpha   90.01906330
_cell_angle_beta   89.85132501
_cell_angle_gamma   60.03735492
_symmetry_Int_Tables_number   1
_chemical_formula_structural   Gd2Al7N9
_chemical_formula_sum   'Gd8 Al28 N36'
_cell_volume   878.97121462
_cell_formula_units_Z   4
loop_
 _symmetry_equiv_pos_site_id
 _symmetry_equiv_pos_as_xyz
  1  'x, y, z'
loop_
 _atom_site_type_symbol
 _atom_site_label
 _atom_site_symmetry_multiplicity
 _atom_site_fract_x
 _atom_site_fract_y
 _atom_site_fract_z
 _atom_site_occupancy
  Al  Al0  1  0.11245799  0.08624825  0.41804298  1
  Al  Al1  1  0.21399909  0.21302469  0.15007789  1
  Al  Al2  1  0.89767743  0.21503696  0.66243283  1
  Al  Al3  1  0.55871929  0.21120171  0.16078050  1
  Al  Al4  1  0.11223339  0.10242639  0.90679536  1
  Al  Al5  1  0.22376143  0.20379573  0.67883791  1
  Al  Al6  1  0.78422500  0.09937441  0.40317057  1
  Al  Al7  1  0.89484305  0.20111815  0.15973103  1
  Al  Al8  1  0.43899771  0.09981791  0.91316539  1
  Al  Al9  1  0.53914103  0.21328022  0.66086029  1
  Al  Al10  1  0.21984853  0.53920541  0.15403951  1
  Al  Al11  1  0.77989648  0.42884412  0.92118200  1
  Al  Al12  1  0.88915667  0.53518548  0.68649692  1
  Al  Al13  1  0.43518195  0.43664535  0.39940777  1
  Al  Al14  1  0.55151383  0.54119231  0.15506929  1
  Al  Al15  1  0.11502564  0.42737264  0.90828370  1
  Al  Al16  1  0.22554075  0.53139234  0.67252271  1
  Al  Al17  1  0.89392943  0.53668296  0.14273255  1
  Al  Al18  1  0.43773314  0.43203647  0.91821633  1
  Al  Al19  1  0.12611409  0.75698515  0.41462022  1
  Al  Al20  1  0.77911077  0.75869795  0.91909807  1
  Al  Al21  1  0.43074987  0.76790597  0.41474542  1
  Al  Al22  1  0.55647775  0.86886937  0.14741292  1
  Al  Al23  1  0.11396177  0.75345039  0.91328781  1
  Al  Al24  1  0.22722835  0.87518258  0.66059613  1
  Al  Al25  1  0.89223974  0.86944295  0.16437095  1
  Al  Al26  1  0.44955760  0.75843800  0.91112051  1
  Al  Al27  1  0.55062992  0.87443220  0.67656920  1
  Gd  Gd28  1  0.77568899  0.10022780  0.90710354  1
  Gd  Gd29  1  0.44309247  0.09584994  0.40403008  1
  Gd  Gd30  1  0.11581381  0.42729385  0.42189183  1
  Gd  Gd31  1  0.77604890  0.41650775  0.39355947  1
  Gd  Gd32  1  0.55164393  0.53222146  0.65572799  1
  Gd  Gd33  1  0.22374695  0.87690697  0.16274739  1
  Gd  Gd34  1  0.89335218  0.87160474  0.64945985  1
  Gd  Gd35  1  0.76651446  0.75888905  0.40241763  1
  N  N36  1  0.20366905  0.19323769  0.33350945  1
  N  N37  1  0.09606504  0.12256197  0.08618393  1
  N  N38  1  0.90340266  0.22352576  0.84516176  1
  N  N39  1  0.75871967  0.13603699  0.59990787  1
  N  N40  1  0.57242976  0.22494734  0.34145891  1
  N  N41  1  0.44550553  0.09820249  0.10443004  1
  N  N42  1  0.22539007  0.20406214  0.86083028  1
  N  N43  1  0.11388360  0.09629948  0.60750395  1
  N  N44  1  0.91632618  0.16826864  0.34011685  1
  N  N45  1  0.78142875  0.09100566  0.12044074  1
  N  N46  1  0.52333675  0.22608410  0.84657464  1
  N  N47  1  0.44376826  0.09014145  0.62481285  1
  N  N48  1  0.22804984  0.55448906  0.33542524  1
  N  N49  1  0.11608274  0.42777327  0.09569282  1
  N  N50  1  0.88611170  0.54007204  0.87410847  1
  N  N51  1  0.80743077  0.42155941  0.60816001  1
  N  N52  1  0.51990614  0.56224439  0.34665219  1
  N  N53  1  0.44340169  0.42827879  0.10162683  1
  N  N54  1  0.22711150  0.54014807  0.85736241  1
  N  N55  1  0.10744147  0.42895617  0.64516295  1
  N  N56  1  0.89757868  0.53221208  0.32033712  1
  N  N57  1  0.77563609  0.42213863  0.11048507  1
  N  N58  1  0.55853228  0.53361962  0.87108323  1
  N  N59  1  0.41748422  0.41056568  0.58248203  1
  N  N60  1  0.21949822  0.87482989  0.37909022  1
  N  N61  1  0.09962332  0.75013057  0.09584798  1
  N  N62  1  0.90229846  0.84541414  0.86161392  1
  N  N63  1  0.76287100  0.74330432  0.62273407  1
  N  N64  1  0.52891575  0.86129304  0.32605940  1
  N  N65  1  0.47025814  0.74663518  0.08868561  1
  N  N66  1  0.22259228  0.87293505  0.85561620  1
  N  N67  1  0.14958470  0.73746927  0.60114347  1
  N  N68  1  0.90565484  0.87854645  0.36007757  1
  N  N69  1  0.77758505  0.76537361  0.10780789  1
  N  N70  1  0.55625066  0.87482062  0.86278803  1
  N  N71  1  0.43619402  0.78758144  0.60118158  1
