# generated using pymatgen
data_Gd2Al7N9
_symmetry_space_group_name_H-M   'P 1'
_cell_length_a   9.90147945
_cell_length_b   9.89880641
_cell_length_c   10.62893485
_cell_angle_alpha   91.01316297
_cell_angle_beta   91.33624764
_cell_angle_gamma   59.78777983
_symmetry_Int_Tables_number   1
_chemical_formula_structural   Gd2Al7N9
_chemical_formula_sum   'Gd8 Al28 N36'
_cell_volume   899.99932334
_cell_formula_units_Z   4
loop_
 _symmetry_equiv_pos_site_id
 _symmetry_equiv_pos_as_xyz
  1  'x, y, z'
loop_
 _atom_site_type_symbol
 _atom_site_label
 _atom_site_symmetry_multiplicity
 _atom_site_fract_x
 _atom_site_fract_y
 _atom_site_fract_z
 _atom_site_occupancy
  Al  Al0  1  0.11002328  0.09335649  0.32267726  1
  Al  Al1  1  0.22975288  0.21341951  0.04937803  1
  Al  Al2  1  0.89118577  0.19944875  0.56255832  1
  Al  Al3  1  0.56066281  0.21983380  0.11879639  1
  Al  Al4  1  0.11162370  0.10064346  0.81106318  1
  Al  Al5  1  0.20991583  0.19739877  0.57274114  1
  Al  Al6  1  0.80485388  0.08549614  0.29559551  1
  Al  Al7  1  0.90645733  0.22157808  0.05743729  1
  Al  Al8  1  0.43008405  0.09570411  0.80145807  1
  Al  Al9  1  0.53181950  0.21125438  0.62920957  1
  Al  Al10  1  0.22825984  0.54221214  0.11326369  1
  Al  Al11  1  0.79913452  0.42145775  0.80510244  1
  Al  Al12  1  0.88634869  0.52798516  0.56951593  1
  Al  Al13  1  0.43223890  0.43662092  0.37011096  1
  Al  Al14  1  0.57478674  0.53595965  0.02956183  1
  Al  Al15  1  0.10993990  0.42368656  0.80867651  1
  Al  Al16  1  0.21843957  0.52443508  0.61956046  1
  Al  Al17  1  0.89488546  0.54238829  0.03528887  1
  Al  Al18  1  0.42550664  0.43068915  0.87300593  1
  Al  Al19  1  0.12953649  0.75722744  0.37490058  1
  Al  Al20  1  0.77767845  0.75332125  0.80569645  1
  Al  Al21  1  0.41824845  0.77535758  0.41022289  1
  Al  Al22  1  0.56599319  0.88437786  0.03329072  1
  Al  Al23  1  0.11863796  0.74765761  0.86787864  1
  Al  Al24  1  0.21860888  0.86744010  0.63949354  1
  Al  Al25  1  0.89392322  0.86313841  0.04010320  1
  Al  Al26  1  0.44759102  0.76551476  0.85507329  1
  Al  Al27  1  0.55179496  0.86804846  0.57973687  1
  Gd  Gd28  1  0.76679512  0.11347427  0.84064080  1
  Gd  Gd29  1  0.45169162  0.10534731  0.34776533  1
  Gd  Gd30  1  0.10517182  0.41645095  0.30509109  1
  Gd  Gd31  1  0.74827539  0.42231370  0.31157689  1
  Gd  Gd32  1  0.54025111  0.52194616  0.60775504  1
  Gd  Gd33  1  0.23661377  0.86879203  0.11135580  1
  Gd  Gd34  1  0.88408438  0.87565457  0.57516230  1
  Gd  Gd35  1  0.76831810  0.76057575  0.29723370  1
  N  N36  1  0.21025722  0.18796791  0.39851162  1
  N  N37  1  0.10604539  0.13830124  0.13666500  1
  N  N38  1  0.91475892  0.22258606  0.88051499  1
  N  N39  1  0.75043408  0.13374084  0.62015516  1
  N  N40  1  0.58593960  0.24116806  0.29378413  1
  N  N41  1  0.45249976  0.09725372  0.10632446  1
  N  N42  1  0.22416118  0.20157748  0.86568233  1
  N  N43  1  0.10160388  0.09102430  0.63101996  1
  N  N44  1  0.90774136  0.17516591  0.38203927  1
  N  N45  1  0.79930095  0.09034863  0.09339661  1
  N  N46  1  0.50875631  0.23212275  0.80930078  1
  N  N47  1  0.43537380  0.08582569  0.61750378  1
  N  N48  1  0.23197626  0.55568153  0.29401156  1
  N  N49  1  0.11533602  0.43303827  0.08446500  1
  N  N50  1  0.89257244  0.53936910  0.85774381  1
  N  N51  1  0.80396390  0.40608348  0.62530126  1
  N  N52  1  0.51710420  0.56293424  0.39164155  1
  N  N53  1  0.44741533  0.43334889  0.05184147  1
  N  N54  1  0.22260055  0.54177850  0.80360365  1
  N  N55  1  0.10261199  0.41737009  0.62489284  1
  N  N56  1  0.87868789  0.53606550  0.39218995  1
  N  N57  1  0.78066865  0.44016609  0.09536248  1
  N  N58  1  0.56553741  0.52689376  0.84295352  1
  N  N59  1  0.40745724  0.39021747  0.53868540  1
  N  N60  1  0.22359497  0.87349616  0.32798277  1
  N  N61  1  0.11182022  0.74291523  0.04628609  1
  N  N62  1  0.89675133  0.85200160  0.84702082  1
  N  N63  1  0.76444333  0.74106290  0.62801684  1
  N  N64  1  0.54534472  0.86352261  0.39760841  1
  N  N65  1  0.47801225  0.75311653  0.03916533  1
  N  N66  1  0.22011200  0.86823302  0.82728364  1
  N  N67  1  0.15087246  0.73292352  0.56142108  1
  N  N68  1  0.90188912  0.87882172  0.35572794  1
  N  N69  1  0.78209524  0.76357201  0.08022544  1
  N  N70  1  0.55785581  0.88350114  0.85130393  1
  N  N71  1  0.42423096  0.78454427  0.60090518  1
