# generated using pymatgen
data_Gd2Al7N9
_symmetry_space_group_name_H-M   'P 1'
_cell_length_a   9.78938876
_cell_length_b   9.93198981
_cell_length_c   10.77340534
_cell_angle_alpha   89.91775567
_cell_angle_beta   89.67127674
_cell_angle_gamma   58.98887805
_symmetry_Int_Tables_number   1
_chemical_formula_structural   Gd2Al7N9
_chemical_formula_sum   'Gd8 Al28 N36'
_cell_volume   897.74281798
_cell_formula_units_Z   4
loop_
 _symmetry_equiv_pos_site_id
 _symmetry_equiv_pos_as_xyz
  1  'x, y, z'
loop_
 _atom_site_type_symbol
 _atom_site_label
 _atom_site_symmetry_multiplicity
 _atom_site_fract_x
 _atom_site_fract_y
 _atom_site_fract_z
 _atom_site_occupancy
  Al  Al0  1  0.12297679  0.08319313  0.41498400  1
  Al  Al1  1  0.21418269  0.21228387  0.15752150  1
  Al  Al2  1  0.88109924  0.21435397  0.58805627  1
  Al  Al3  1  0.55072377  0.21478192  0.14111122  1
  Al  Al4  1  0.11840747  0.09768949  0.90488737  1
  Al  Al5  1  0.22302856  0.19020067  0.66644279  1
  Al  Al6  1  0.79982727  0.09474455  0.31687988  1
  Al  Al7  1  0.88921696  0.21995866  0.07187656  1
  Al  Al8  1  0.42744523  0.10192336  0.90918316  1
  Al  Al9  1  0.51957309  0.21793047  0.65751928  1
  Al  Al10  1  0.21543751  0.54043360  0.14855590  1
  Al  Al11  1  0.78890527  0.42765936  0.83314902  1
  Al  Al12  1  0.88164953  0.53915572  0.60528982  1
  Al  Al13  1  0.44591410  0.43221441  0.39186674  1
  Al  Al14  1  0.56231523  0.53373251  0.05947248  1
  Al  Al15  1  0.10646190  0.42782425  0.83195751  1
  Al  Al16  1  0.21728040  0.53945750  0.65640965  1
  Al  Al17  1  0.89479519  0.53336417  0.06132480  1
  Al  Al18  1  0.41941877  0.43294803  0.90178336  1
  Al  Al19  1  0.13730847  0.76069976  0.41397681  1
  Al  Al20  1  0.77421924  0.75465221  0.84425859  1
  Al  Al21  1  0.44895741  0.76437682  0.41555095  1
  Al  Al22  1  0.55639297  0.86254726  0.13462091  1
  Al  Al23  1  0.11648131  0.75466439  0.89339900  1
  Al  Al24  1  0.22174800  0.88116433  0.65471685  1
  Al  Al25  1  0.88238668  0.86644158  0.05478681  1
  Al  Al26  1  0.43760608  0.77169483  0.89643370  1
  Al  Al27  1  0.54163148  0.87922048  0.67089864  1
  Gd  Gd28  1  0.75886422  0.11712335  0.85925158  1
  Gd  Gd29  1  0.48162486  0.06555893  0.39410281  1
  Gd  Gd30  1  0.16178072  0.40349836  0.42378027  1
  Gd  Gd31  1  0.77869893  0.43529761  0.33135355  1
  Gd  Gd32  1  0.53513960  0.53433310  0.62812007  1
  Gd  Gd33  1  0.21724483  0.86863441  0.15924646  1
  Gd  Gd34  1  0.87432465  0.88552426  0.60133008  1
  Gd  Gd35  1  0.84428204  0.72504724  0.30256879  1
  N  N36  1  0.22799588  0.17377527  0.33372871  1
  N  N37  1  0.11321439  0.11305981  0.08391644  1
  N  N38  1  0.89809311  0.22667606  0.89610092  1
  N  N39  1  0.74327114  0.14549006  0.64630667  1
  N  N40  1  0.56933595  0.22789098  0.31567385  1
  N  N41  1  0.44448920  0.09698195  0.09354582  1
  N  N42  1  0.21770431  0.20168022  0.84340929  1
  N  N43  1  0.11085457  0.09561129  0.59894506  1
  N  N44  1  0.90020946  0.18764179  0.39724877  1
  N  N45  1  0.79060971  0.08937458  0.11532389  1
  N  N46  1  0.49467120  0.23349902  0.83700018  1
  N  N47  1  0.44209045  0.08774338  0.60840940  1
  N  N48  1  0.23234264  0.56689228  0.32434577  1
  N  N49  1  0.09911988  0.43574746  0.13712872  1
  N  N50  1  0.89144344  0.53646413  0.88601637  1
  N  N51  1  0.80042496  0.41537854  0.65685401  1
  N  N52  1  0.53914775  0.54857115  0.41319100  1
  N  N53  1  0.43827460  0.42903852  0.07848725  1
  N  N54  1  0.21603533  0.54770064  0.83264097  1
  N  N55  1  0.10695191  0.42427415  0.64926894  1
  N  N56  1  0.90478644  0.53428480  0.43417413  1
  N  N57  1  0.77364076  0.43501844  0.11524537  1
  N  N58  1  0.55282893  0.53476540  0.87178366  1
  N  N59  1  0.40071656  0.40239383  0.56391053  1
  N  N60  1  0.23258178  0.87264413  0.36934696  1
  N  N61  1  0.10483572  0.74153415  0.07117527  1
  N  N62  1  0.89160459  0.85609373  0.87232280  1
  N  N63  1  0.76504471  0.74657626  0.66430192  1
  N  N64  1  0.57187551  0.82653820  0.31492696  1
  N  N65  1  0.45984616  0.75382525  0.07076914  1
  N  N66  1  0.21550872  0.87704497  0.84108275  1
  N  N67  1  0.14839098  0.74346774  0.59499640  1
  N  N68  1  0.90326703  0.89137886  0.38690537  1
  N  N69  1  0.77649263  0.75979774  0.09309866  1
  N  N70  1  0.53940979  0.88466222  0.85054096  1
  N  N71  1  0.43248637  0.79551031  0.59703598  1
