# generated using pymatgen
data_Gd2Al7N9
_symmetry_space_group_name_H-M   'P 1'
_cell_length_a   9.85245248
_cell_length_b   9.86381019
_cell_length_c   10.74340577
_cell_angle_alpha   91.92344738
_cell_angle_beta   91.76803304
_cell_angle_gamma   59.95896764
_symmetry_Int_Tables_number   1
_chemical_formula_structural   Gd2Al7N9
_chemical_formula_sum   'Gd8 Al28 N36'
_cell_volume   903.19164014
_cell_formula_units_Z   4
loop_
 _symmetry_equiv_pos_site_id
 _symmetry_equiv_pos_as_xyz
  1  'x, y, z'
loop_
 _atom_site_type_symbol
 _atom_site_label
 _atom_site_symmetry_multiplicity
 _atom_site_fract_x
 _atom_site_fract_y
 _atom_site_fract_z
 _atom_site_occupancy
  Al  Al0  1  0.11363864  0.07280652  0.39301932  1
  Al  Al1  1  0.23183879  0.21771365  0.03049821  1
  Al  Al2  1  0.87863616  0.20543116  0.56653314  1
  Al  Al3  1  0.56298045  0.22276640  0.11505574  1
  Al  Al4  1  0.11067778  0.10206787  0.80104049  1
  Al  Al5  1  0.21765938  0.20523001  0.57385365  1
  Al  Al6  1  0.80637717  0.07900607  0.29274712  1
  Al  Al7  1  0.91213383  0.22742472  0.04815456  1
  Al  Al8  1  0.43295015  0.09431583  0.79713751  1
  Al  Al9  1  0.53094591  0.21222747  0.62830850  1
  Al  Al10  1  0.22881725  0.54598309  0.11032935  1
  Al  Al11  1  0.79470932  0.42677829  0.80145640  1
  Al  Al12  1  0.88791841  0.52551710  0.56410213  1
  Al  Al13  1  0.42846901  0.42838339  0.37053411  1
  Al  Al14  1  0.57394351  0.54288399  0.02898584  1
  Al  Al15  1  0.10886694  0.42922130  0.80836376  1
  Al  Al16  1  0.21713537  0.52526685  0.61963901  1
  Al  Al17  1  0.89518631  0.54916511  0.02630478  1
  Al  Al18  1  0.42596223  0.43403619  0.87223927  1
  Al  Al19  1  0.12982587  0.74343058  0.37363882  1
  Al  Al20  1  0.77676418  0.75562303  0.79911489  1
  Al  Al21  1  0.42411323  0.76582546  0.40711123  1
  Al  Al22  1  0.56781694  0.88766294  0.02856845  1
  Al  Al23  1  0.12074861  0.75227867  0.86756781  1
  Al  Al24  1  0.22088472  0.86303688  0.63299379  1
  Al  Al25  1  0.89710069  0.86618520  0.03820679  1
  Al  Al26  1  0.44318103  0.77031189  0.85971430  1
  Al  Al27  1  0.55213275  0.86944510  0.57062451  1
  Gd  Gd28  1  0.76531095  0.11339898  0.84050410  1
  Gd  Gd29  1  0.44801500  0.09603633  0.32367829  1
  Gd  Gd30  1  0.09854617  0.39168585  0.28055079  1
  Gd  Gd31  1  0.74594232  0.41239853  0.30568776  1
  Gd  Gd32  1  0.53621243  0.52614086  0.60598850  1
  Gd  Gd33  1  0.23128618  0.88696266  0.12518223  1
  Gd  Gd34  1  0.88217582  0.87709507  0.56875250  1
  Gd  Gd35  1  0.77551594  0.74694936  0.29205664  1
  N  N36  1  0.21428970  0.18539313  0.40166081  1
  N  N37  1  0.11264389  0.14898149  0.11491949  1
  N  N38  1  0.91255802  0.22613910  0.87067299  1
  N  N39  1  0.74911351  0.13230738  0.62355905  1
  N  N40  1  0.58503611  0.23336671  0.29145550  1
  N  N41  1  0.45286775  0.10281218  0.09363970  1
  N  N42  1  0.22387960  0.20352975  0.85108071  1
  N  N43  1  0.10184454  0.08889857  0.61357436  1
  N  N44  1  0.89993700  0.17253470  0.38946263  1
  N  N45  1  0.80296275  0.09475702  0.09253112  1
  N  N46  1  0.50745403  0.23515021  0.80734206  1
  N  N47  1  0.43902828  0.08355664  0.61699705  1
  N  N48  1  0.22740792  0.54150447  0.29053636  1
  N  N49  1  0.11803310  0.43926469  0.06400554  1
  N  N50  1  0.88877702  0.54468251  0.85205723  1
  N  N51  1  0.79955155  0.41065384  0.62438300  1
  N  N52  1  0.51688930  0.55419286  0.38766104  1
  N  N53  1  0.45133522  0.43584699  0.05077705  1
  N  N54  1  0.22376180  0.54612587  0.80203498  1
  N  N55  1  0.10059739  0.42040602  0.62659900  1
  N  N56  1  0.88410333  0.52183056  0.38741953  1
  N  N57  1  0.78331246  0.44654879  0.09235855  1
  N  N58  1  0.56244694  0.53351573  0.84248650  1
  N  N59  1  0.40712035  0.39049552  0.53980483  1
  N  N60  1  0.22162323  0.86734047  0.33812254  1
  N  N61  1  0.11712227  0.75073080  0.04619134  1
  N  N62  1  0.89819954  0.85195151  0.84775772  1
  N  N63  1  0.76421319  0.74187919  0.62197906  1
  N  N64  1  0.54852761  0.85868364  0.38848340  1
  N  N65  1  0.47182271  0.76214180  0.04036959  1
  N  N66  1  0.21980983  0.87170365  0.81576525  1
  N  N67  1  0.14900722  0.72964012  0.55810524  1
  N  N68  1  0.90280494  0.87289762  0.35168504  1
  N  N69  1  0.78311771  0.76839544  0.07813377  1
  N  N70  1  0.55806124  0.88314228  0.84890726  1
  N  N71  1  0.42361724  0.78594276  0.58786609  1
