# generated using pymatgen
data_Gd2Al7N9
_symmetry_space_group_name_H-M   'P 1'
_cell_length_a   9.87641385
_cell_length_b   9.89404549
_cell_length_c   10.77923352
_cell_angle_alpha   90.64808243
_cell_angle_beta   90.76986779
_cell_angle_gamma   59.43239310
_symmetry_Int_Tables_number   1
_chemical_formula_structural   Gd2Al7N9
_chemical_formula_sum   'Gd8 Al28 N36'
_cell_volume   906.84718141
_cell_formula_units_Z   4
loop_
 _symmetry_equiv_pos_site_id
 _symmetry_equiv_pos_as_xyz
  1  'x, y, z'
loop_
 _atom_site_type_symbol
 _atom_site_label
 _atom_site_symmetry_multiplicity
 _atom_site_fract_x
 _atom_site_fract_y
 _atom_site_fract_z
 _atom_site_occupancy
  Al  Al0  1  0.11922922  0.08293681  0.41885327  1
  Al  Al1  1  0.22387424  0.20691898  0.15997109  1
  Al  Al2  1  0.88142393  0.20581503  0.58548060  1
  Al  Al3  1  0.55872550  0.21429895  0.14666206  1
  Al  Al4  1  0.12324358  0.09691129  0.90575446  1
  Al  Al5  1  0.20449746  0.19955301  0.65620582  1
  Al  Al6  1  0.80565285  0.08768248  0.31790154  1
  Al  Al7  1  0.89900041  0.21544490  0.07310087  1
  Al  Al8  1  0.43185719  0.09438174  0.82575118  1
  Al  Al9  1  0.52772332  0.21581424  0.65280968  1
  Al  Al10  1  0.22402225  0.53897990  0.14492157  1
  Al  Al11  1  0.79711088  0.42178479  0.83214372  1
  Al  Al12  1  0.87488085  0.53743056  0.59732751  1
  Al  Al13  1  0.44344453  0.43922566  0.39062928  1
  Al  Al14  1  0.57321073  0.53094784  0.05585357  1
  Al  Al15  1  0.10388886  0.43104119  0.82707772  1
  Al  Al16  1  0.21823947  0.53254791  0.64791362  1
  Al  Al17  1  0.90252997  0.53292444  0.06753034  1
  Al  Al18  1  0.42283809  0.43011590  0.90046180  1
  Al  Al19  1  0.13293557  0.76166961  0.40691605  1
  Al  Al20  1  0.77596820  0.75291251  0.83864005  1
  Al  Al21  1  0.42988018  0.77055775  0.43952427  1
  Al  Al22  1  0.56037719  0.88480863  0.06267633  1
  Al  Al23  1  0.11885639  0.75072818  0.89362204  1
  Al  Al24  1  0.21639372  0.87677450  0.66372437  1
  Al  Al25  1  0.89422846  0.85981100  0.06276337  1
  Al  Al26  1  0.44232897  0.76610960  0.88797389  1
  Al  Al27  1  0.55264735  0.86708250  0.60635389  1
  Gd  Gd28  1  0.76393205  0.11072421  0.86148385  1
  Gd  Gd29  1  0.45300702  0.11189227  0.39250221  1
  Gd  Gd30  1  0.12535110  0.43590384  0.39196034  1
  Gd  Gd31  1  0.76599752  0.42303630  0.33289736  1
  Gd  Gd32  1  0.53886460  0.52288825  0.63431005  1
  Gd  Gd33  1  0.23620092  0.86045175  0.15700087  1
  Gd  Gd34  1  0.87793758  0.87620426  0.59662951  1
  Gd  Gd35  1  0.77059759  0.76520986  0.31601494  1
  N  N36  1  0.20659269  0.18888904  0.34151046  1
  N  N37  1  0.12223210  0.10878619  0.08416086  1
  N  N38  1  0.90385263  0.22164867  0.89701626  1
  N  N39  1  0.74724412  0.13494513  0.64356383  1
  N  N40  1  0.58509456  0.23967703  0.31757023  1
  N  N41  1  0.45661201  0.09069146  0.13984074  1
  N  N42  1  0.21222197  0.20564687  0.83429973  1
  N  N43  1  0.10864712  0.08742228  0.60130500  1
  N  N44  1  0.90079921  0.18005882  0.40640036  1
  N  N45  1  0.79948799  0.08607787  0.11831385  1
  N  N46  1  0.50347730  0.23514049  0.82913614  1
  N  N47  1  0.43596142  0.08740671  0.63633491  1
  N  N48  1  0.24264299  0.56910905  0.31764129  1
  N  N49  1  0.11051362  0.43064128  0.13962336  1
  N  N50  1  0.89515531  0.53563134  0.88817319  1
  N  N51  1  0.80349456  0.40794202  0.65482767  1
  N  N52  1  0.53426357  0.55717089  0.42017771  1
  N  N53  1  0.44648437  0.42679399  0.07594865  1
  N  N54  1  0.22059901  0.54343589  0.82698549  1
  N  N55  1  0.09793770  0.42900377  0.63788346  1
  N  N56  1  0.87618157  0.54791760  0.42340546  1
  N  N57  1  0.78230471  0.43166684  0.11747039  1
  N  N58  1  0.56094831  0.52943771  0.86980793  1
  N  N59  1  0.40111150  0.39260591  0.55613844  1
  N  N60  1  0.22946290  0.87485867  0.36946806  1
  N  N61  1  0.11477381  0.73860160  0.06919472  1
  N  N62  1  0.89643162  0.84991481  0.87456452  1
  N  N63  1  0.76069821  0.74359817  0.66345436  1
  N  N64  1  0.55234589  0.86425606  0.42721504  1
  N  N65  1  0.47275592  0.75039662  0.06821258  1
  N  N66  1  0.21612664  0.87527662  0.84606622  1
  N  N67  1  0.14661839  0.73854845  0.59017018  1
  N  N68  1  0.90501742  0.87966217  0.38079931  1
  N  N69  1  0.78105719  0.75993626  0.10199782  1
  N  N70  1  0.55154570  0.88559830  0.88169176  1
  N  N71  1  0.42537954  0.78320660  0.62376375  1
