# generated using pymatgen
data_Gd2Al7N9
_symmetry_space_group_name_H-M   'P 1'
_cell_length_a   9.83966369
_cell_length_b   9.91991826
_cell_length_c   10.78012600
_cell_angle_alpha   90.69944389
_cell_angle_beta   90.60096470
_cell_angle_gamma   59.38892170
_symmetry_Int_Tables_number   1
_chemical_formula_structural   Gd2Al7N9
_chemical_formula_sum   'Gd8 Al28 N36'
_cell_volume   905.51950285
_cell_formula_units_Z   4
loop_
 _symmetry_equiv_pos_site_id
 _symmetry_equiv_pos_as_xyz
  1  'x, y, z'
loop_
 _atom_site_type_symbol
 _atom_site_label
 _atom_site_symmetry_multiplicity
 _atom_site_fract_x
 _atom_site_fract_y
 _atom_site_fract_z
 _atom_site_occupancy
  Al  Al0  1  0.12252346  0.08161917  0.41801174  1
  Al  Al1  1  0.21742788  0.21195946  0.15350107  1
  Al  Al2  1  0.88272347  0.20686848  0.58636474  1
  Al  Al3  1  0.55609283  0.21852080  0.13956660  1
  Al  Al4  1  0.12012708  0.09742967  0.90480171  1
  Al  Al5  1  0.22032486  0.19006278  0.66481835  1
  Al  Al6  1  0.80293995  0.08959761  0.31650846  1
  Al  Al7  1  0.89497677  0.21787800  0.07189589  1
  Al  Al8  1  0.42508428  0.11223140  0.90063350  1
  Al  Al9  1  0.51994354  0.21416843  0.65793835  1
  Al  Al10  1  0.21998370  0.54149727  0.14651528  1
  Al  Al11  1  0.79468496  0.42426791  0.83200047  1
  Al  Al12  1  0.87974753  0.53489339  0.60106898  1
  Al  Al13  1  0.44368605  0.43499595  0.39072095  1
  Al  Al14  1  0.57059262  0.53311382  0.05695376  1
  Al  Al15  1  0.10386097  0.43140619  0.82963947  1
  Al  Al16  1  0.21673151  0.53537982  0.65124500  1
  Al  Al17  1  0.90048915  0.53419855  0.06592790  1
  Al  Al18  1  0.42191887  0.43467375  0.90070798  1
  Al  Al19  1  0.13293568  0.76036588  0.40848886  1
  Al  Al20  1  0.77339306  0.75570244  0.83645825  1
  Al  Al21  1  0.43441323  0.76452550  0.43746946  1
  Al  Al22  1  0.56576842  0.87364781  0.06031381  1
  Al  Al23  1  0.11717391  0.75295611  0.89479488  1
  Al  Al24  1  0.21651009  0.87743547  0.66214776  1
  Al  Al25  1  0.89108576  0.86311465  0.06225157  1
  Al  Al26  1  0.44066555  0.76809272  0.88627507  1
  Al  Al27  1  0.55239536  0.86748099  0.60736580  1
  Gd  Gd28  1  0.76313335  0.11189019  0.85830093  1
  Gd  Gd29  1  0.45963784  0.10088901  0.40003844  1
  Gd  Gd30  1  0.14076113  0.42095500  0.40521422  1
  Gd  Gd31  1  0.77224733  0.42361618  0.33385895  1
  Gd  Gd32  1  0.53968616  0.52048488  0.63328299  1
  Gd  Gd33  1  0.23220790  0.86457863  0.15820206  1
  Gd  Gd34  1  0.87462795  0.88116183  0.59612368  1
  Gd  Gd35  1  0.78782732  0.75253838  0.31853248  1
  N  N36  1  0.21585209  0.17997877  0.33196996  1
  N  N37  1  0.11788038  0.10985071  0.08276221  1
  N  N38  1  0.90061810  0.22472746  0.89618722  1
  N  N39  1  0.74295810  0.13988099  0.64425972  1
  N  N40  1  0.57785227  0.23357364  0.31287611  1
  N  N41  1  0.44581163  0.10468104  0.08930551  1
  N  N42  1  0.21554412  0.20525673  0.84196150  1
  N  N43  1  0.11183513  0.08933472  0.60194984  1
  N  N44  1  0.90102769  0.18037259  0.40573951  1
  N  N45  1  0.79645416  0.08890431  0.11712260  1
  N  N46  1  0.49946064  0.23618820  0.83463590  1
  N  N47  1  0.43614961  0.08859097  0.61392453  1
  N  N48  1  0.23890352  0.56639523  0.32056150  1
  N  N49  1  0.10824398  0.43257264  0.13435717  1
  N  N50  1  0.89173087  0.53896681  0.88760588  1
  N  N51  1  0.80377104  0.40855041  0.65528063  1
  N  N52  1  0.53700529  0.55088872  0.41808898  1
  N  N53  1  0.44376105  0.43162019  0.07654409  1
  N  N54  1  0.21900812  0.54650363  0.82924741  1
  N  N55  1  0.10265382  0.42472502  0.64380519  1
  N  N56  1  0.89021924  0.53785782  0.42777271  1
  N  N57  1  0.78029177  0.43349868  0.11770136  1
  N  N58  1  0.55886143  0.53184637  0.86973329  1
  N  N59  1  0.39993382  0.39470349  0.55926306  1
  N  N60  1  0.23122039  0.87206711  0.37077332  1
  N  N61  1  0.11218722  0.74145180  0.07115981  1
  N  N62  1  0.89405532  0.85176173  0.87600428  1
  N  N63  1  0.76255377  0.74369971  0.66181861  1
  N  N64  1  0.56251933  0.85127465  0.42055972  1
  N  N65  1  0.46942195  0.75123340  0.06851550  1
  N  N66  1  0.21400356  0.87693830  0.84493480  1
  N  N67  1  0.14396892  0.74045263  0.59142131  1
  N  N68  1  0.90426795  0.88383278  0.38147578  1
  N  N69  1  0.78075142  0.76082752  0.10545105  1
  N  N70  1  0.55101335  0.88498262  0.88118488  1
  N  N71  1  0.42681207  0.78116221  0.62120528  1
