# generated using pymatgen
data_Gd2Al7N9
_symmetry_space_group_name_H-M   'P 1'
_cell_length_a   9.88762354
_cell_length_b   9.88791042
_cell_length_c   10.45568220
_cell_angle_alpha   90.19071032
_cell_angle_beta   90.36792682
_cell_angle_gamma   60.33136708
_symmetry_Int_Tables_number   1
_chemical_formula_structural   Gd2Al7N9
_chemical_formula_sum   'Gd8 Al28 N36'
_cell_volume   888.20041149
_cell_formula_units_Z   4
loop_
 _symmetry_equiv_pos_site_id
 _symmetry_equiv_pos_as_xyz
  1  'x, y, z'
loop_
 _atom_site_type_symbol
 _atom_site_label
 _atom_site_symmetry_multiplicity
 _atom_site_fract_x
 _atom_site_fract_y
 _atom_site_fract_z
 _atom_site_occupancy
  Al  Al0  1  0.10716217  0.09298993  0.31952436  1
  Al  Al1  1  0.22108966  0.21195378  0.04139006  1
  Al  Al2  1  0.89807442  0.19709430  0.56066825  1
  Al  Al3  1  0.54642414  0.21380782  0.05162064  1
  Al  Al4  1  0.11797426  0.09345453  0.80316301  1
  Al  Al5  1  0.21815559  0.20378429  0.57206805  1
  Al  Al6  1  0.78656203  0.09072276  0.30215969  1
  Al  Al7  1  0.89779294  0.21830279  0.05598893  1
  Al  Al8  1  0.43993096  0.09779529  0.80398162  1
  Al  Al9  1  0.55841220  0.20310843  0.56444878  1
  Al  Al10  1  0.21968334  0.53913884  0.04483018  1
  Al  Al11  1  0.80071353  0.41968040  0.81051271  1
  Al  Al12  1  0.89371221  0.52704911  0.57382573  1
  Al  Al13  1  0.43485082  0.43643940  0.38921516  1
  Al  Al14  1  0.56283750  0.54433347  0.04341917  1
  Al  Al15  1  0.11459467  0.42779975  0.80753579  1
  Al  Al16  1  0.21783145  0.53756550  0.57057006  1
  Al  Al17  1  0.89324338  0.53806913  0.03397670  1
  Al  Al18  1  0.43740036  0.43305603  0.85366791  1
  Al  Al19  1  0.11119690  0.75859901  0.30812456  1
  Al  Al20  1  0.77664649  0.75181981  0.81201320  1
  Al  Al21  1  0.43794262  0.75845673  0.31639019  1
  Al  Al22  1  0.55985104  0.87435281  0.04297478  1
  Al  Al23  1  0.12355568  0.75412559  0.80486004  1
  Al  Al24  1  0.22206686  0.87724347  0.55929124  1
  Al  Al25  1  0.89689847  0.85656831  0.04876446  1
  Al  Al26  1  0.43371200  0.78063046  0.80856554  1
  Al  Al27  1  0.54477041  0.87556520  0.57096442  1
  Gd  Gd28  1  0.77991182  0.09974406  0.82810602  1
  Gd  Gd29  1  0.44087869  0.09529496  0.31645692  1
  Gd  Gd30  1  0.10861644  0.42443533  0.30358123  1
  Gd  Gd31  1  0.76076674  0.41700633  0.30698332  1
  Gd  Gd32  1  0.55647587  0.54620303  0.59743585  1
  Gd  Gd33  1  0.22243912  0.87682451  0.07658841  1
  Gd  Gd34  1  0.88976979  0.86553442  0.56455184  1
  Gd  Gd35  1  0.76521181  0.75605454  0.29613818  1
  N  N36  1  0.20599301  0.19366127  0.39405229  1
  N  N37  1  0.09987151  0.13384966  0.13425458  1
  N  N38  1  0.91811404  0.21579446  0.87751669  1
  N  N39  1  0.76708350  0.11731353  0.61559465  1
  N  N40  1  0.57567137  0.21867184  0.37224754  1
  N  N41  1  0.44260920  0.09555989  0.09594585  1
  N  N42  1  0.22504619  0.20252974  0.85529678  1
  N  N43  1  0.10992014  0.08917948  0.62022535  1
  N  N44  1  0.90422023  0.17301610  0.37794932  1
  N  N45  1  0.78095728  0.09805654  0.10168886  1
  N  N46  1  0.52656889  0.21697529  0.86793305  1
  N  N47  1  0.44764844  0.09506003  0.61556221  1
  N  N48  1  0.21742480  0.55673444  0.38450593  1
  N  N49  1  0.11284562  0.42821177  0.08128926  1
  N  N50  1  0.89616216  0.53650780  0.85484772  1
  N  N51  1  0.81575803  0.39908501  0.62866080  1
  N  N52  1  0.52217002  0.55953941  0.37809891  1
  N  N53  1  0.44455004  0.43852923  0.06313022  1
  N  N54  1  0.21884388  0.54339115  0.85896712  1
  N  N55  1  0.11199829  0.42759089  0.62221474  1
  N  N56  1  0.88147201  0.53261311  0.39320285  1
  N  N57  1  0.77845574  0.43641648  0.08869172  1
  N  N58  1  0.55887359  0.54607973  0.84872107  1
  N  N59  1  0.43001096  0.41269265  0.59262580  1
  N  N60  1  0.21834728  0.87219926  0.35549901  1
  N  N61  1  0.10083241  0.73962901  0.12320790  1
  N  N62  1  0.90943416  0.84051834  0.85972318  1
  N  N63  1  0.75760266  0.74220715  0.62844181  1
  N  N64  1  0.53701814  0.85947068  0.39119079  1
  N  N65  1  0.48108456  0.74917872  0.12602585  1
  N  N66  1  0.21939939  0.87642719  0.86105925  1
  N  N67  1  0.14215813  0.74798611  0.62360840  1
  N  N68  1  0.89464624  0.87933200  0.34869443  1
  N  N69  1  0.77870901  0.75804731  0.07808406  1
  N  N70  1  0.55223605  0.87821339  0.86156236  1
  N  N71  1  0.41813643  0.80252640  0.63155428  1
