# generated using pymatgen
data_Gd2Al7N9
_symmetry_space_group_name_H-M   'P 1'
_cell_length_a   9.86608892
_cell_length_b   9.95011251
_cell_length_c   10.67180614
_cell_angle_alpha   90.05230143
_cell_angle_beta   90.31954514
_cell_angle_gamma   58.90163671
_symmetry_Int_Tables_number   1
_chemical_formula_structural   Gd2Al7N9
_chemical_formula_sum   'Gd8 Al28 N36'
_cell_volume   897.05645726
_cell_formula_units_Z   4
loop_
 _symmetry_equiv_pos_site_id
 _symmetry_equiv_pos_as_xyz
  1  'x, y, z'
loop_
 _atom_site_type_symbol
 _atom_site_label
 _atom_site_symmetry_multiplicity
 _atom_site_fract_x
 _atom_site_fract_y
 _atom_site_fract_z
 _atom_site_occupancy
  Al  Al0  1  0.11461037  0.08631068  0.40403406  1
  Al  Al1  1  0.21614140  0.20992299  0.15138863  1
  Al  Al2  1  0.89072759  0.21676748  0.65683139  1
  Al  Al3  1  0.54703272  0.21341581  0.14017370  1
  Al  Al4  1  0.11526654  0.10071487  0.89930261  1
  Al  Al5  1  0.22250180  0.19034585  0.66322242  1
  Al  Al6  1  0.79564201  0.08916595  0.31012489  1
  Al  Al7  1  0.90233480  0.20888280  0.13590066  1
  Al  Al8  1  0.43012180  0.09891209  0.90744012  1
  Al  Al9  1  0.52171379  0.21631075  0.65897224  1
  Al  Al10  1  0.21488453  0.54072392  0.14632282  1
  Al  Al11  1  0.78423483  0.43416543  0.85442604  1
  Al  Al12  1  0.88258198  0.54462975  0.60152988  1
  Al  Al13  1  0.44137209  0.43232503  0.39011126  1
  Al  Al14  1  0.56304433  0.53099860  0.06458935  1
  Al  Al15  1  0.10818858  0.42542174  0.83320483  1
  Al  Al16  1  0.21729901  0.53842880  0.65581333  1
  Al  Al17  1  0.89879753  0.53110131  0.06329015  1
  Al  Al18  1  0.41842633  0.43152287  0.90241506  1
  Al  Al19  1  0.13519917  0.76179166  0.41433447  1
  Al  Al20  1  0.77398950  0.75662175  0.84277912  1
  Al  Al21  1  0.44372516  0.76649502  0.41479104  1
  Al  Al22  1  0.55771952  0.85935110  0.13355359  1
  Al  Al23  1  0.11596451  0.75622792  0.89092373  1
  Al  Al24  1  0.22209485  0.88061151  0.65063523  1
  Al  Al25  1  0.88310862  0.86320281  0.05337845  1
  Al  Al26  1  0.43773099  0.77114933  0.89537975  1
  Al  Al27  1  0.54157604  0.87907178  0.66908684  1
  Gd  Gd28  1  0.75836733  0.12543275  0.87604983  1
  Gd  Gd29  1  0.47753386  0.06572566  0.39323505  1
  Gd  Gd30  1  0.16432859  0.40226309  0.42106515  1
  Gd  Gd31  1  0.77550355  0.43636512  0.35803607  1
  Gd  Gd32  1  0.53388563  0.53244856  0.62804085  1
  Gd  Gd33  1  0.21819223  0.86888003  0.15675823  1
  Gd  Gd34  1  0.87532313  0.89181160  0.60930327  1
  Gd  Gd35  1  0.83801826  0.73564233  0.30570356  1
  N  N36  1  0.22706693  0.17310339  0.32948877  1
  N  N37  1  0.10855653  0.11503479  0.07461912  1
  N  N38  1  0.91223015  0.22177244  0.83568636  1
  N  N39  1  0.74031697  0.15022444  0.65118761  1
  N  N40  1  0.56808522  0.22583853  0.31629893  1
  N  N41  1  0.44460469  0.09331433  0.09319505  1
  N  N42  1  0.22198325  0.19901552  0.84205077  1
  N  N43  1  0.10325728  0.09857702  0.59110032  1
  N  N44  1  0.92043374  0.17635683  0.31361146  1
  N  N45  1  0.78410042  0.08563207  0.11134215  1
  N  N46  1  0.49817605  0.23081179  0.83956492  1
  N  N47  1  0.44001769  0.08879994  0.60832497  1
  N  N48  1  0.22809323  0.56817822  0.32286843  1
  N  N49  1  0.10754454  0.43044567  0.12662286  1
  N  N50  1  0.89288377  0.53798166  0.88503556  1
  N  N51  1  0.79068678  0.42640768  0.62087323  1
  N  N52  1  0.52761647  0.55298486  0.40827203  1
  N  N53  1  0.43831007  0.42909360  0.08006811  1
  N  N54  1  0.21576934  0.54709507  0.83358526  1
  N  N55  1  0.10544934  0.42463993  0.64880449  1
  N  N56  1  0.91232547  0.54015827  0.42902436  1
  N  N57  1  0.77926456  0.42831799  0.10555794  1
  N  N58  1  0.55508021  0.53081892  0.87222787  1
  N  N59  1  0.39860967  0.40084638  0.56328209  1
  N  N60  1  0.22998364  0.87286016  0.36842017  1
  N  N61  1  0.10406913  0.74297615  0.07010091  1
  N  N62  1  0.88969620  0.86118180  0.86961407  1
  N  N63  1  0.76389078  0.75081247  0.66144084  1
  N  N64  1  0.57077412  0.82479823  0.31583749  1
  N  N65  1  0.46110227  0.75088203  0.07107553  1
  N  N66  1  0.21700147  0.87597070  0.83931136  1
  N  N67  1  0.14929698  0.74249102  0.59570988  1
  N  N68  1  0.90279153  0.89723930  0.39319687  1
  N  N69  1  0.77784750  0.75750701  0.09263962  1
  N  N70  1  0.54146258  0.88140907  0.85045063  1
  N  N71  1  0.43136839  0.79602835  0.59672726  1
