# generated using pymatgen
data_Gd2Al7N9
_symmetry_space_group_name_H-M   'P 1'
_cell_length_a   9.87267778
_cell_length_b   9.87323161
_cell_length_c   10.50464421
_cell_angle_alpha   90.24261842
_cell_angle_beta   90.42276332
_cell_angle_gamma   60.40396481
_symmetry_Int_Tables_number   1
_chemical_formula_structural   Gd2Al7N9
_chemical_formula_sum   'Gd8 Al28 N36'
_cell_volume   890.32350119
_cell_formula_units_Z   4
loop_
 _symmetry_equiv_pos_site_id
 _symmetry_equiv_pos_as_xyz
  1  'x, y, z'
loop_
 _atom_site_type_symbol
 _atom_site_label
 _atom_site_symmetry_multiplicity
 _atom_site_fract_x
 _atom_site_fract_y
 _atom_site_fract_z
 _atom_site_occupancy
  Al  Al0  1  0.10708226  0.09267556  0.31995831  1
  Al  Al1  1  0.22138107  0.21284473  0.04098977  1
  Al  Al2  1  0.89793967  0.19701726  0.56017132  1
  Al  Al3  1  0.54949254  0.21125675  0.05328584  1
  Al  Al4  1  0.11810785  0.09391013  0.80332378  1
  Al  Al5  1  0.21857250  0.20355117  0.57224533  1
  Al  Al6  1  0.78677430  0.08969891  0.30124721  1
  Al  Al7  1  0.89808612  0.21872131  0.05613215  1
  Al  Al8  1  0.44044767  0.09878621  0.80423747  1
  Al  Al9  1  0.55853582  0.20012735  0.56012865  1
  Al  Al10  1  0.21684116  0.54173789  0.04648325  1
  Al  Al11  1  0.80087721  0.42024965  0.81053877  1
  Al  Al12  1  0.89221094  0.52736030  0.57406015  1
  Al  Al13  1  0.43339568  0.43527782  0.39030739  1
  Al  Al14  1  0.56511656  0.54686549  0.04561972  1
  Al  Al15  1  0.11544608  0.42837577  0.80715167  1
  Al  Al16  1  0.21587045  0.53716300  0.56695031  1
  Al  Al17  1  0.89371534  0.53885186  0.03368956  1
  Al  Al18  1  0.43850825  0.43456387  0.86960054  1
  Al  Al19  1  0.11027662  0.75930289  0.30660045  1
  Al  Al20  1  0.77742272  0.75235630  0.81173308  1
  Al  Al21  1  0.43785194  0.75803921  0.31809378  1
  Al  Al22  1  0.56077349  0.87490824  0.04231224  1
  Al  Al23  1  0.12443018  0.75365826  0.80459643  1
  Al  Al24  1  0.22247977  0.87667221  0.55975401  1
  Al  Al25  1  0.89658599  0.85854254  0.04780273  1
  Al  Al26  1  0.43442951  0.78082079  0.80828143  1
  Al  Al27  1  0.54546529  0.87427690  0.57125483  1
  Gd  Gd28  1  0.77951580  0.10086823  0.82535971  1
  Gd  Gd29  1  0.43960360  0.09398803  0.31462686  1
  Gd  Gd30  1  0.10646593  0.42343933  0.30330773  1
  Gd  Gd31  1  0.75939491  0.41660191  0.30809993  1
  Gd  Gd32  1  0.55322305  0.54290707  0.59938264  1
  Gd  Gd33  1  0.22372373  0.87774740  0.07586671  1
  Gd  Gd34  1  0.89066594  0.86464279  0.56268712  1
  Gd  Gd35  1  0.76441095  0.75525685  0.29504355  1
  N  N36  1  0.20581405  0.19343875  0.39522773  1
  N  N37  1  0.10047783  0.13438664  0.13486532  1
  N  N38  1  0.91808730  0.21638183  0.87820501  1
  N  N39  1  0.76618261  0.11699690  0.61364295  1
  N  N40  1  0.57612091  0.21602375  0.36753751  1
  N  N41  1  0.44297271  0.09551556  0.09536620  1
  N  N42  1  0.22531881  0.20332270  0.85562701  1
  N  N43  1  0.10968185  0.08896205  0.62091833  1
  N  N44  1  0.90424419  0.17236104  0.37829075  1
  N  N45  1  0.78199832  0.09810134  0.10167909  1
  N  N46  1  0.52742978  0.21759872  0.87010548  1
  N  N47  1  0.44789420  0.09403165  0.61659237  1
  N  N48  1  0.21427801  0.55780777  0.38116124  1
  N  N49  1  0.11269316  0.42887667  0.08209305  1
  N  N50  1  0.89680134  0.53685363  0.85522299  1
  N  N51  1  0.81392156  0.39924175  0.62927762  1
  N  N52  1  0.52134047  0.55916815  0.37905967  1
  N  N53  1  0.44528658  0.43976621  0.06210046  1
  N  N54  1  0.21968930  0.54363618  0.86097405  1
  N  N55  1  0.11113598  0.42771320  0.62265500  1
  N  N56  1  0.87991935  0.53293565  0.39431336  1
  N  N57  1  0.77988747  0.43691857  0.09053804  1
  N  N58  1  0.55964615  0.54669369  0.85088612  1
  N  N59  1  0.42789122  0.40961368  0.57857161  1
  N  N60  1  0.21813630  0.87222080  0.35593903  1
  N  N61  1  0.10039395  0.74243495  0.12242169  1
  N  N62  1  0.90978294  0.84173153  0.85963275  1
  N  N63  1  0.75838101  0.74252309  0.62920886  1
  N  N64  1  0.53755025  0.85920878  0.39226896  1
  N  N65  1  0.48224582  0.75039455  0.12768402  1
  N  N66  1  0.22013744  0.87670972  0.86093624  1
  N  N67  1  0.14329171  0.74615498  0.62371823  1
  N  N68  1  0.89413969  0.87860202  0.34768494  1
  N  N69  1  0.77933611  0.75882416  0.07754348  1
  N  N70  1  0.55270766  0.87872176  0.86163353  1
  N  N71  1  0.41909282  0.80046280  0.63172453  1
