# generated using pymatgen
data_Gd2Al7N9
_symmetry_space_group_name_H-M   'P 1'
_cell_length_a   9.89540257
_cell_length_b   9.90467288
_cell_length_c   10.43372749
_cell_angle_alpha   89.93770259
_cell_angle_beta   90.62387922
_cell_angle_gamma   59.91317037
_symmetry_Int_Tables_number   1
_chemical_formula_structural   Gd2Al7N9
_chemical_formula_sum   'Gd8 Al28 N36'
_cell_volume   884.75881144
_cell_formula_units_Z   4
loop_
 _symmetry_equiv_pos_site_id
 _symmetry_equiv_pos_as_xyz
  1  'x, y, z'
loop_
 _atom_site_type_symbol
 _atom_site_label
 _atom_site_symmetry_multiplicity
 _atom_site_fract_x
 _atom_site_fract_y
 _atom_site_fract_z
 _atom_site_occupancy
  Al  Al0  1  0.11161891  0.08835039  0.40645391  1
  Al  Al1  1  0.21656730  0.21079551  0.13959510  1
  Al  Al2  1  0.89454008  0.21657772  0.64804908  1
  Al  Al3  1  0.55986965  0.21225398  0.14878957  1
  Al  Al4  1  0.11418816  0.10075236  0.89624720  1
  Al  Al5  1  0.22072250  0.20477892  0.66578274  1
  Al  Al6  1  0.78605958  0.09828077  0.38434780  1
  Al  Al7  1  0.89969830  0.19794707  0.14702590  1
  Al  Al8  1  0.43888385  0.09892940  0.90405584  1
  Al  Al9  1  0.53657422  0.21057768  0.65157004  1
  Al  Al10  1  0.22316931  0.53860422  0.14216339  1
  Al  Al11  1  0.79362917  0.42249017  0.89984901  1
  Al  Al12  1  0.88539109  0.53692381  0.66914341  1
  Al  Al13  1  0.43438722  0.43574510  0.39911219  1
  Al  Al14  1  0.56288077  0.53243293  0.06941979  1
  Al  Al15  1  0.11415404  0.42718752  0.89598778  1
  Al  Al16  1  0.21997704  0.53151692  0.66071065  1
  Al  Al17  1  0.89757659  0.53586305  0.13069925  1
  Al  Al18  1  0.43183715  0.42593789  0.90029296  1
  Al  Al19  1  0.12986302  0.75607347  0.40408607  1
  Al  Al20  1  0.77935160  0.75970592  0.90668465  1
  Al  Al21  1  0.42789806  0.77358585  0.41992118  1
  Al  Al22  1  0.55892044  0.86606150  0.13711011  1
  Al  Al23  1  0.11277889  0.75429004  0.90218886  1
  Al  Al24  1  0.22109920  0.87998742  0.65208564  1
  Al  Al25  1  0.89499120  0.86805918  0.15172479  1
  Al  Al26  1  0.44466151  0.76849030  0.89168251  1
  Al  Al27  1  0.54894609  0.87897916  0.66660050  1
  Gd  Gd28  1  0.77667146  0.10117120  0.89399046  1
  Gd  Gd29  1  0.44751940  0.09352346  0.39155179  1
  Gd  Gd30  1  0.11941494  0.42632429  0.40800732  1
  Gd  Gd31  1  0.76763040  0.42213761  0.37487870  1
  Gd  Gd32  1  0.54454596  0.53451901  0.63500936  1
  Gd  Gd33  1  0.23312053  0.86987073  0.15482833  1
  Gd  Gd34  1  0.89210130  0.87206256  0.63684341  1
  Gd  Gd35  1  0.76869809  0.75701002  0.38913359  1
  N  N36  1  0.20687313  0.19193958  0.32271198  1
  N  N37  1  0.10138143  0.11686666  0.07600101  1
  N  N38  1  0.90717600  0.22079240  0.83100593  1
  N  N39  1  0.75573644  0.13556375  0.59341859  1
  N  N40  1  0.57191262  0.22900581  0.32911221  1
  N  N41  1  0.44716452  0.09676202  0.09498395  1
  N  N42  1  0.22489686  0.20399973  0.84898119  1
  N  N43  1  0.10947960  0.09891494  0.59507784  1
  N  N44  1  0.91551852  0.17034834  0.32746795  1
  N  N45  1  0.78219072  0.09115627  0.10853683  1
  N  N46  1  0.52294037  0.22175351  0.83650349  1
  N  N47  1  0.43967322  0.09170351  0.61157187  1
  N  N48  1  0.23268604  0.55457199  0.32245731  1
  N  N49  1  0.11861638  0.42640568  0.08366525  1
  N  N50  1  0.88715786  0.54222004  0.85752613  1
  N  N51  1  0.80312590  0.42268143  0.59412327  1
  N  N52  1  0.51748430  0.56280223  0.40631142  1
  N  N53  1  0.44426001  0.42686833  0.08369134  1
  N  N54  1  0.22215400  0.54145205  0.84459312  1
  N  N55  1  0.10206486  0.43047691  0.63023883  1
  N  N56  1  0.89900072  0.53195787  0.30737464  1
  N  N57  1  0.78497278  0.41792454  0.08990967  1
  N  N58  1  0.55995324  0.53021319  0.87282415  1
  N  N59  1  0.40907009  0.40505437  0.57777292  1
  N  N60  1  0.21977815  0.87688085  0.37012192  1
  N  N61  1  0.10218882  0.74994735  0.08405472  1
  N  N62  1  0.90072152  0.84731986  0.84992161  1
  N  N63  1  0.75826600  0.74737595  0.60883439  1
  N  N64  1  0.52754992  0.85655060  0.31595963  1
  N  N65  1  0.47274024  0.74834248  0.07024943  1
  N  N66  1  0.21876221  0.87485186  0.84464983  1
  N  N67  1  0.14897530  0.73771705  0.59031559  1
  N  N68  1  0.90736141  0.87731556  0.34624984  1
  N  N69  1  0.77941040  0.76424672  0.09546909  1
  N  N70  1  0.55706714  0.87784353  0.85144238  1
  N  N71  1  0.42852393  0.79729350  0.60533666  1
