# generated using pymatgen
data_Gd2Al7N9
_symmetry_space_group_name_H-M   'P 1'
_cell_length_a   9.79094690
_cell_length_b   9.90416404
_cell_length_c   10.79268552
_cell_angle_alpha   90.52972872
_cell_angle_beta   90.30824833
_cell_angle_gamma   59.21721730
_symmetry_Int_Tables_number   1
_chemical_formula_structural   Gd2Al7N9
_chemical_formula_sum   'Gd8 Al28 N36'
_cell_volume   899.09175494
_cell_formula_units_Z   4
loop_
 _symmetry_equiv_pos_site_id
 _symmetry_equiv_pos_as_xyz
  1  'x, y, z'
loop_
 _atom_site_type_symbol
 _atom_site_label
 _atom_site_symmetry_multiplicity
 _atom_site_fract_x
 _atom_site_fract_y
 _atom_site_fract_z
 _atom_site_occupancy
  Al  Al0  1  0.12065982  0.08436497  0.41712113  1
  Al  Al1  1  0.21486168  0.21380725  0.15575845  1
  Al  Al2  1  0.87880149  0.21076385  0.58352281  1
  Al  Al3  1  0.55379979  0.21702216  0.14061504  1
  Al  Al4  1  0.12006084  0.09671443  0.90517459  1
  Al  Al5  1  0.22064887  0.18968816  0.66603797  1
  Al  Al6  1  0.79886530  0.09487240  0.31796396  1
  Al  Al7  1  0.89195586  0.21901689  0.07219704  1
  Al  Al8  1  0.42789441  0.10458009  0.90738763  1
  Al  Al9  1  0.51793537  0.21592691  0.65570247  1
  Al  Al10  1  0.21829261  0.54194195  0.14757155  1
  Al  Al11  1  0.79204873  0.42460860  0.83067515  1
  Al  Al12  1  0.87958638  0.53700945  0.60550646  1
  Al  Al13  1  0.44366883  0.43302156  0.39204175  1
  Al  Al14  1  0.56831066  0.53313043  0.05721177  1
  Al  Al15  1  0.10695607  0.42803412  0.83213462  1
  Al  Al16  1  0.21580567  0.53859018  0.65610182  1
  Al  Al17  1  0.89841867  0.53251771  0.06099880  1
  Al  Al18  1  0.42240420  0.43234887  0.90104970  1
  Al  Al19  1  0.13495470  0.76096412  0.41213949  1
  Al  Al20  1  0.77601169  0.75409575  0.84611594  1
  Al  Al21  1  0.44597790  0.76630344  0.42040044  1
  Al  Al22  1  0.55792005  0.86765261  0.12563791  1
  Al  Al23  1  0.11878555  0.75434536  0.89477338  1
  Al  Al24  1  0.21872453  0.88004945  0.65563756  1
  Al  Al25  1  0.88738156  0.86887133  0.05736595  1
  Al  Al26  1  0.43938427  0.77056314  0.89363012  1
  Al  Al27  1  0.54051316  0.87844468  0.67316629  1
  Gd  Gd28  1  0.76264429  0.11435902  0.85301489  1
  Gd  Gd29  1  0.47511351  0.07181419  0.39340677  1
  Gd  Gd30  1  0.15546354  0.40912137  0.42152311  1
  Gd  Gd31  1  0.77397422  0.43482767  0.33371401  1
  Gd  Gd32  1  0.53426346  0.53182270  0.62976371  1
  Gd  Gd33  1  0.22804853  0.86712894  0.16116234  1
  Gd  Gd34  1  0.87185096  0.88009670  0.59661840  1
  Gd  Gd35  1  0.83183587  0.72986109  0.30265974  1
  N  N36  1  0.22130742  0.17785952  0.33279698  1
  N  N37  1  0.11608426  0.11091993  0.08352940  1
  N  N38  1  0.89966215  0.22568530  0.89692432  1
  N  N39  1  0.74186392  0.14016342  0.64135090  1
  N  N40  1  0.56945104  0.22934822  0.31539860  1
  N  N41  1  0.44561013  0.10001512  0.09156727  1
  N  N42  1  0.21790712  0.20204038  0.84306359  1
  N  N43  1  0.10886402  0.09383637  0.60013190  1
  N  N44  1  0.89702710  0.18834800  0.40276204  1
  N  N45  1  0.79311513  0.09149756  0.11856317  1
  N  N46  1  0.49777418  0.23286346  0.83513665  1
  N  N47  1  0.43933701  0.08540671  0.60823998  1
  N  N48  1  0.23334554  0.56641340  0.32326912  1
  N  N49  1  0.10424005  0.43518147  0.13241153  1
  N  N50  1  0.89278458  0.53529767  0.88586436  1
  N  N51  1  0.80003148  0.41111072  0.65480920  1
  N  N52  1  0.53631668  0.55042424  0.41584522  1
  N  N53  1  0.44220858  0.43048852  0.07757450  1
  N  N54  1  0.21819523  0.54703511  0.83231913  1
  N  N55  1  0.10481072  0.42366000  0.64870322  1
  N  N56  1  0.89894704  0.53835365  0.43431299  1
  N  N57  1  0.77807438  0.43492894  0.11744691  1
  N  N58  1  0.55665543  0.53243406  0.86994763  1
  N  N59  1  0.39794653  0.40051799  0.56255703  1
  N  N60  1  0.23048167  0.87380862  0.37206227  1
  N  N61  1  0.11020219  0.74396701  0.07221752  1
  N  N62  1  0.89459067  0.85488185  0.87490750  1
  N  N63  1  0.76300799  0.74387348  0.66678271  1
  N  N64  1  0.56374335  0.83252871  0.31517013  1
  N  N65  1  0.46564730  0.75288967  0.06680365  1
  N  N66  1  0.21637532  0.87623949  0.84083291  1
  N  N67  1  0.14462001  0.74219878  0.59349208  1
  N  N68  1  0.90212144  0.89033948  0.38399840  1
  N  N69  1  0.77977691  0.76146762  0.09215352  1
  N  N70  1  0.54103828  0.88575020  0.85260271  1
  N  N71  1  0.42999965  0.79310125  0.60227321  1
