# generated using pymatgen
data_Gd2Al7N9
_symmetry_space_group_name_H-M   'P 1'
_cell_length_a   9.93707492
_cell_length_b   9.90281098
_cell_length_c   10.54924316
_cell_angle_alpha   89.79126315
_cell_angle_beta   90.49178597
_cell_angle_gamma   59.67221951
_symmetry_Int_Tables_number   1
_chemical_formula_structural   Gd2Al7N9
_chemical_formula_sum   'Gd8 Al28 N36'
_cell_volume   895.96387236
_cell_formula_units_Z   4
loop_
 _symmetry_equiv_pos_site_id
 _symmetry_equiv_pos_as_xyz
  1  'x, y, z'
loop_
 _atom_site_type_symbol
 _atom_site_label
 _atom_site_symmetry_multiplicity
 _atom_site_fract_x
 _atom_site_fract_y
 _atom_site_fract_z
 _atom_site_occupancy
  Al  Al0  1  0.11438795  0.08503400  0.40431762  1
  Al  Al1  1  0.22027838  0.20714209  0.14245342  1
  Al  Al2  1  0.89365404  0.22112398  0.65871361  1
  Al  Al3  1  0.55117878  0.21277389  0.14190159  1
  Al  Al4  1  0.11767413  0.10052264  0.89671652  1
  Al  Al5  1  0.21829299  0.20562529  0.66514212  1
  Al  Al6  1  0.80081048  0.07862294  0.30997631  1
  Al  Al7  1  0.90706950  0.20252756  0.13572395  1
  Al  Al8  1  0.43333464  0.09963866  0.90534734  1
  Al  Al9  1  0.52786763  0.21570282  0.66190002  1
  Al  Al10  1  0.22039796  0.53972028  0.14227268  1
  Al  Al11  1  0.79301744  0.42873741  0.89933234  1
  Al  Al12  1  0.88980776  0.53232060  0.66608240  1
  Al  Al13  1  0.43715606  0.43223751  0.39561181  1
  Al  Al14  1  0.56130627  0.53262544  0.06845353  1
  Al  Al15  1  0.11405211  0.42662712  0.89706415  1
  Al  Al16  1  0.21839228  0.53115668  0.65852129  1
  Al  Al17  1  0.89839627  0.53133229  0.13013303  1
  Al  Al18  1  0.42366199  0.43147195  0.90210761  1
  Al  Al19  1  0.13395886  0.75654162  0.41414273  1
  Al  Al20  1  0.77282573  0.76121368  0.84090497  1
  Al  Al21  1  0.43443582  0.76937265  0.41786246  1
  Al  Al22  1  0.55426954  0.86576585  0.13667717  1
  Al  Al23  1  0.11788282  0.75453508  0.89293641  1
  Al  Al24  1  0.22397698  0.87938087  0.65128868  1
  Al  Al25  1  0.88743796  0.85730694  0.06496936  1
  Al  Al26  1  0.44158975  0.76921659  0.89416970  1
  Al  Al27  1  0.54043156  0.88313356  0.66601541  1
  Gd  Gd28  1  0.76347406  0.12306953  0.87955693  1
  Gd  Gd29  1  0.45590914  0.08960094  0.39641973  1
  Gd  Gd30  1  0.12517251  0.42143327  0.40698363  1
  Gd  Gd31  1  0.77322127  0.41066887  0.38048790  1
  Gd  Gd32  1  0.54295429  0.53062301  0.63397832  1
  Gd  Gd33  1  0.22544324  0.86735245  0.15769539  1
  Gd  Gd34  1  0.88490671  0.89337165  0.61492470  1
  Gd  Gd35  1  0.78561704  0.75860574  0.34589449  1
  N  N36  1  0.21583554  0.18554541  0.32406671  1
  N  N37  1  0.10986766  0.11279597  0.07386038  1
  N  N38  1  0.91330146  0.22691901  0.83787171  1
  N  N39  1  0.74440977  0.15229314  0.65192318  1
  N  N40  1  0.57685683  0.22403082  0.31990902  1
  N  N41  1  0.44541680  0.09480594  0.09295982  1
  N  N42  1  0.22289861  0.20541958  0.84631033  1
  N  N43  1  0.10516858  0.09974397  0.59373675  1
  N  N44  1  0.92613558  0.16482074  0.31113368  1
  N  N45  1  0.78537600  0.08314537  0.11253105  1
  N  N46  1  0.50693117  0.22898016  0.84371728  1
  N  N47  1  0.43698425  0.09414386  0.61354391  1
  N  N48  1  0.23127863  0.55813327  0.32162997  1
  N  N49  1  0.11952612  0.42429129  0.08348238  1
  N  N50  1  0.89111392  0.54031278  0.85363423  1
  N  N51  1  0.80164040  0.42410330  0.59519946  1
  N  N52  1  0.52184697  0.55701094  0.40640647  1
  N  N53  1  0.44110504  0.42893977  0.08276454  1
  N  N54  1  0.21787919  0.54266869  0.84003171  1
  N  N55  1  0.10256462  0.42930749  0.62528214  1
  N  N56  1  0.90603299  0.51483165  0.30745357  1
  N  N57  1  0.78388472  0.42007166  0.08471141  1
  N  N58  1  0.55799996  0.53065457  0.87352163  1
  N  N59  1  0.40692704  0.40254598  0.57282923  1
  N  N60  1  0.22514089  0.87259668  0.37124621  1
  N  N61  1  0.10670972  0.74426272  0.07319565  1
  N  N62  1  0.89224982  0.85787675  0.87367717  1
  N  N63  1  0.76173135  0.75522510  0.64593210  1
  N  N64  1  0.53215458  0.85470911  0.31861705  1
  N  N65  1  0.46618224  0.74994763  0.07188409  1
  N  N66  1  0.21968986  0.87584966  0.84133761  1
  N  N67  1  0.15243925  0.73805559  0.59882181  1
  N  N68  1  0.90969383  0.88730626  0.39591979  1
  N  N69  1  0.77783638  0.76027645  0.11721744  1
  N  N70  1  0.54699170  0.88084521  0.84995708  1
  N  N71  1  0.43085259  0.79512618  0.60092228  1
