# generated using pymatgen
data_Gd2Al7N9
_symmetry_space_group_name_H-M   'P 1'
_cell_length_a   9.87783111
_cell_length_b   9.87665792
_cell_length_c   10.80673221
_cell_angle_alpha   91.41743265
_cell_angle_beta   91.34269831
_cell_angle_gamma   59.77565749
_symmetry_Int_Tables_number   1
_chemical_formula_structural   Gd2Al7N9
_chemical_formula_sum   'Gd8 Al28 N36'
_cell_volume   910.63094851
_cell_formula_units_Z   4
loop_
 _symmetry_equiv_pos_site_id
 _symmetry_equiv_pos_as_xyz
  1  'x, y, z'
loop_
 _atom_site_type_symbol
 _atom_site_label
 _atom_site_symmetry_multiplicity
 _atom_site_fract_x
 _atom_site_fract_y
 _atom_site_fract_z
 _atom_site_occupancy
  Al  Al0  1  0.11317624  0.07289356  0.41072260  1
  Al  Al1  1  0.23680498  0.21766731  0.03849534  1
  Al  Al2  1  0.87848327  0.20665298  0.56863219  1
  Al  Al3  1  0.56335864  0.22008747  0.11982839  1
  Al  Al4  1  0.11863258  0.09553275  0.87331383  1
  Al  Al5  1  0.21443852  0.20291812  0.57610333  1
  Al  Al6  1  0.80538324  0.08409814  0.29723464  1
  Al  Al7  1  0.90005354  0.22128548  0.04813322  1
  Al  Al8  1  0.43067948  0.09572896  0.79958135  1
  Al  Al9  1  0.52879674  0.21325399  0.62962268  1
  Al  Al10  1  0.22975950  0.54328335  0.11670631  1
  Al  Al11  1  0.79511797  0.42519589  0.80414024  1
  Al  Al12  1  0.88381826  0.53026515  0.57008388  1
  Al  Al13  1  0.43450870  0.43188084  0.37450547  1
  Al  Al14  1  0.57510876  0.53676978  0.03162120  1
  Al  Al15  1  0.10796317  0.42666424  0.80460492  1
  Al  Al16  1  0.21702146  0.52802872  0.62291343  1
  Al  Al17  1  0.89730514  0.54102995  0.03554460  1
  Al  Al18  1  0.42499672  0.43227064  0.87488885  1
  Al  Al19  1  0.13263736  0.75160623  0.38192582  1
  Al  Al20  1  0.77753967  0.75340982  0.80694406  1
  Al  Al21  1  0.42437214  0.76960844  0.41548012  1
  Al  Al22  1  0.56720984  0.88420191  0.03378936  1
  Al  Al23  1  0.12048996  0.74986722  0.87128491  1
  Al  Al24  1  0.21678262  0.87461004  0.64228651  1
  Al  Al25  1  0.89607835  0.86303632  0.04031190  1
  Al  Al26  1  0.44422615  0.76796241  0.86435546  1
  Al  Al27  1  0.55189144  0.86993750  0.57817657  1
  Gd  Gd28  1  0.76399242  0.11008135  0.83743914  1
  Gd  Gd29  1  0.44854136  0.09833326  0.33196417  1
  Gd  Gd30  1  0.10738394  0.41510123  0.30849510  1
  Gd  Gd31  1  0.75066663  0.42037018  0.31200987  1
  Gd  Gd32  1  0.53457214  0.52765574  0.61122333  1
  Gd  Gd33  1  0.23600921  0.87260974  0.13171769  1
  Gd  Gd34  1  0.88212841  0.87615012  0.57201583  1
  Gd  Gd35  1  0.77296722  0.75685993  0.29617927  1
  N  N36  1  0.21275516  0.18862188  0.40014587  1
  N  N37  1  0.11978360  0.11530698  0.05940579  1
  N  N38  1  0.90150311  0.22673325  0.87126547  1
  N  N39  1  0.74754427  0.13228679  0.62258867  1
  N  N40  1  0.58369652  0.23650696  0.29421012  1
  N  N41  1  0.45361030  0.09883853  0.10214752  1
  N  N42  1  0.22480143  0.21016527  0.85771317  1
  N  N43  1  0.10208277  0.08588186  0.59295420  1
  N  N44  1  0.89817296  0.17910407  0.38733501  1
  N  N45  1  0.80006921  0.09133704  0.09511240  1
  N  N46  1  0.50657190  0.23531365  0.80758466  1
  N  N47  1  0.43601626  0.08543597  0.62047700  1
  N  N48  1  0.23521413  0.55421731  0.29592824  1
  N  N49  1  0.11640173  0.43153622  0.09063370  1
  N  N50  1  0.89266967  0.53940982  0.85991469  1
  N  N51  1  0.79870017  0.41209075  0.62811937  1
  N  N52  1  0.52122139  0.55729585  0.39540422  1
  N  N53  1  0.44917353  0.43203270  0.05249830  1
  N  N54  1  0.22245028  0.54437389  0.80479017  1
  N  N55  1  0.09988631  0.42212703  0.62541290  1
  N  N56  1  0.87980800  0.53560752  0.39496552  1
  N  N57  1  0.78393908  0.43757745  0.09644496  1
  N  N58  1  0.56173015  0.53275434  0.84649371  1
  N  N59  1  0.40558492  0.39250560  0.54123518  1
  N  N60  1  0.22406416  0.87274685  0.34395381  1
  N  N61  1  0.11678617  0.74472583  0.04861483  1
  N  N62  1  0.89862196  0.84889973  0.85305401  1
  N  N63  1  0.76315466  0.74308755  0.63142400  1
  N  N64  1  0.54986983  0.86091560  0.39755368  1
  N  N65  1  0.47438114  0.75577232  0.04462464  1
  N  N66  1  0.21896864  0.87318790  0.82362722  1
  N  N67  1  0.14915923  0.73407446  0.56545418  1
  N  N68  1  0.90479786  0.87653572  0.35678414  1
  N  N69  1  0.78351077  0.76341988  0.08207251  1
  N  N70  1  0.55640477  0.88412554  0.85511458  1
  N  N71  1  0.42281745  0.78742304  0.59656281  1
