# generated using pymatgen
data_Gd2Al7N9
_symmetry_space_group_name_H-M   'P 1'
_cell_length_a   9.82710101
_cell_length_b   9.92106860
_cell_length_c   10.79391906
_cell_angle_alpha   90.84194218
_cell_angle_beta   90.60923986
_cell_angle_gamma   59.32992533
_symmetry_Int_Tables_number   1
_chemical_formula_structural   Gd2Al7N9
_chemical_formula_sum   'Gd8 Al28 N36'
_cell_volume   905.04816642
_cell_formula_units_Z   4
loop_
 _symmetry_equiv_pos_site_id
 _symmetry_equiv_pos_as_xyz
  1  'x, y, z'
loop_
 _atom_site_type_symbol
 _atom_site_label
 _atom_site_symmetry_multiplicity
 _atom_site_fract_x
 _atom_site_fract_y
 _atom_site_fract_z
 _atom_site_occupancy
  Al  Al0  1  0.12286477  0.08127753  0.41749615  1
  Al  Al1  1  0.21641626  0.21330338  0.15278145  1
  Al  Al2  1  0.88183363  0.20718100  0.58496634  1
  Al  Al3  1  0.55547579  0.21919112  0.13916884  1
  Al  Al4  1  0.11934443  0.09774257  0.90481587  1
  Al  Al5  1  0.21965174  0.18984455  0.66531458  1
  Al  Al6  1  0.80233733  0.09063565  0.31518743  1
  Al  Al7  1  0.89351512  0.21907649  0.07153217  1
  Al  Al8  1  0.42457991  0.11285899  0.90071745  1
  Al  Al9  1  0.51826308  0.21498088  0.65668268  1
  Al  Al10  1  0.21923290  0.54212456  0.14671202  1
  Al  Al11  1  0.79388376  0.42452446  0.83132617  1
  Al  Al12  1  0.88036100  0.53455712  0.60219853  1
  Al  Al13  1  0.44419548  0.43372554  0.39072076  1
  Al  Al14  1  0.56993331  0.53409878  0.05687420  1
  Al  Al15  1  0.10430545  0.43108313  0.83092749  1
  Al  Al16  1  0.21522252  0.53714826  0.65289164  1
  Al  Al17  1  0.89988912  0.53446823  0.06429248  1
  Al  Al18  1  0.42185965  0.43489102  0.90072539  1
  Al  Al19  1  0.13373688  0.75963266  0.40819842  1
  Al  Al20  1  0.77399890  0.75578774  0.83734362  1
  Al  Al21  1  0.43710618  0.76299130  0.43716555  1
  Al  Al22  1  0.56515871  0.87449444  0.05923684  1
  Al  Al23  1  0.11700846  0.75393456  0.89563403  1
  Al  Al24  1  0.21498045  0.87806631  0.66139022  1
  Al  Al25  1  0.89044858  0.86508045  0.06194650  1
  Al  Al26  1  0.43964283  0.76854594  0.88595927  1
  Al  Al27  1  0.55213347  0.86723760  0.61090139  1
  Gd  Gd28  1  0.76309833  0.11190118  0.85587816  1
  Gd  Gd29  1  0.46304172  0.09451628  0.39734020  1
  Gd  Gd30  1  0.14702393  0.41607404  0.41133527  1
  Gd  Gd31  1  0.77421010  0.42509171  0.33448711  1
  Gd  Gd32  1  0.53887423  0.52075646  0.63309995  1
  Gd  Gd33  1  0.23188989  0.86662399  0.15885320  1
  Gd  Gd34  1  0.87191131  0.88140955  0.59268471  1
  Gd  Gd35  1  0.79547578  0.74713061  0.31581479  1
  N  N36  1  0.21700405  0.17844455  0.33065855  1
  N  N37  1  0.11677847  0.11089770  0.08227895  1
  N  N38  1  0.89939337  0.22550744  0.89605299  1
  N  N39  1  0.74196048  0.13994316  0.64233833  1
  N  N40  1  0.57655180  0.23246926  0.31267762  1
  N  N41  1  0.44542491  0.10539178  0.08811251  1
  N  N42  1  0.21524575  0.20481068  0.84195196  1
  N  N43  1  0.11104952  0.08980585  0.60118596  1
  N  N44  1  0.90074433  0.18122818  0.40452694  1
  N  N45  1  0.79554143  0.09044399  0.11696699  1
  N  N46  1  0.49860732  0.23650731  0.83357513  1
  N  N47  1  0.43539384  0.08851838  0.61171093  1
  N  N48  1  0.23813740  0.56472556  0.32122569  1
  N  N49  1  0.10806637  0.43313056  0.13080053  1
  N  N50  1  0.89107110  0.53889194  0.88690503  1
  N  N51  1  0.80328969  0.40851122  0.65483809  1
  N  N52  1  0.53797763  0.54909844  0.41837516  1
  N  N53  1  0.44363062  0.43214489  0.07644276  1
  N  N54  1  0.21845817  0.54747799  0.83016794  1
  N  N55  1  0.10320564  0.42419291  0.64584313  1
  N  N56  1  0.89560520  0.53576419  0.42961293  1
  N  N57  1  0.77956546  0.43488171  0.11804911  1
  N  N58  1  0.55816310  0.53222416  0.86943035  1
  N  N59  1  0.39803467  0.39642569  0.55972526  1
  N  N60  1  0.23287115  0.87087161  0.37138000  1
  N  N61  1  0.11218555  0.74296086  0.07213708  1
  N  N62  1  0.89387378  0.85250034  0.87695245  1
  N  N63  1  0.76281188  0.74333555  0.66318703  1
  N  N64  1  0.56917279  0.84499812  0.41842932  1
  N  N65  1  0.46849312  0.75245061  0.06741669  1
  N  N66  1  0.21304713  0.87760383  0.84411817  1
  N  N67  1  0.14160315  0.74159134  0.59130474  1
  N  N68  1  0.90479168  0.88461591  0.37920535  1
  N  N69  1  0.78041351  0.76172548  0.10327985  1
  N  N70  1  0.54991439  0.88552095  0.87962595  1
  N  N71  1  0.42600427  0.78155879  0.62041141  1
