# generated using pymatgen
data_Gd2Al7N9
_symmetry_space_group_name_H-M   'P 1'
_cell_length_a   9.90912482
_cell_length_b   9.93004743
_cell_length_c   10.62160601
_cell_angle_alpha   89.92602581
_cell_angle_beta   90.59008676
_cell_angle_gamma   59.21894065
_symmetry_Int_Tables_number   1
_chemical_formula_structural   Gd2Al7N9
_chemical_formula_sum   'Gd8 Al28 N36'
_cell_volume   897.84123724
_cell_formula_units_Z   4
loop_
 _symmetry_equiv_pos_site_id
 _symmetry_equiv_pos_as_xyz
  1  'x, y, z'
loop_
 _atom_site_type_symbol
 _atom_site_label
 _atom_site_symmetry_multiplicity
 _atom_site_fract_x
 _atom_site_fract_y
 _atom_site_fract_z
 _atom_site_occupancy
  Al  Al0  1  0.11218011  0.08913688  0.40426880  1
  Al  Al1  1  0.21789920  0.20920945  0.14405063  1
  Al  Al2  1  0.88947739  0.21994601  0.65832028  1
  Al  Al3  1  0.54982806  0.21175442  0.14169007  1
  Al  Al4  1  0.11617900  0.09828917  0.89928270  1
  Al  Al5  1  0.21762853  0.19783112  0.66907506  1
  Al  Al6  1  0.79664465  0.08809424  0.31199942  1
  Al  Al7  1  0.90477716  0.20582428  0.13674061  1
  Al  Al8  1  0.43380322  0.09606579  0.90782032  1
  Al  Al9  1  0.52209159  0.21579798  0.66040827  1
  Al  Al10  1  0.21769906  0.53916020  0.14211401  1
  Al  Al11  1  0.78742093  0.42779755  0.89004025  1
  Al  Al12  1  0.88413427  0.54105166  0.60284706  1
  Al  Al13  1  0.43945056  0.43243138  0.39113979  1
  Al  Al14  1  0.56129214  0.53177683  0.06832356  1
  Al  Al15  1  0.11414862  0.42355605  0.86677855  1
  Al  Al16  1  0.21638283  0.53543818  0.66213923  1
  Al  Al17  1  0.89899395  0.53807339  0.06580668  1
  Al  Al18  1  0.42286385  0.43046180  0.90399447  1
  Al  Al19  1  0.13421102  0.76033563  0.41516708  1
  Al  Al20  1  0.77561210  0.75441895  0.83617394  1
  Al  Al21  1  0.43872890  0.76831178  0.41801321  1
  Al  Al22  1  0.55718524  0.86097293  0.13625389  1
  Al  Al23  1  0.11748986  0.75586357  0.89280760  1
  Al  Al24  1  0.22238216  0.88014734  0.65124897  1
  Al  Al25  1  0.88628936  0.86028535  0.05870072  1
  Al  Al26  1  0.44070708  0.76929717  0.89491818  1
  Al  Al27  1  0.53959676  0.88132534  0.66763782  1
  Gd  Gd28  1  0.76021387  0.12262800  0.87703108  1
  Gd  Gd29  1  0.46471267  0.07646298  0.39349966  1
  Gd  Gd30  1  0.16089526  0.40626250  0.42713403  1
  Gd  Gd31  1  0.77481663  0.42935930  0.37467235  1
  Gd  Gd32  1  0.53699434  0.52981989  0.63190336  1
  Gd  Gd33  1  0.22351335  0.86644925  0.15858017  1
  Gd  Gd34  1  0.87954066  0.89209927  0.61249809  1
  Gd  Gd35  1  0.81495118  0.75167439  0.32245324  1
  N  N36  1  0.21687138  0.18496758  0.32462479  1
  N  N37  1  0.10886800  0.11190510  0.07529471  1
  N  N38  1  0.91179141  0.22421484  0.83703383  1
  N  N39  1  0.73998765  0.15015167  0.65324583  1
  N  N40  1  0.57074119  0.22444229  0.31883658  1
  N  N41  1  0.44762540  0.09091928  0.09439204  1
  N  N42  1  0.22457464  0.19691813  0.84766494  1
  N  N43  1  0.10269438  0.09993648  0.59360797  1
  N  N44  1  0.91981738  0.17659395  0.31303529  1
  N  N45  1  0.78456077  0.08408389  0.11293982  1
  N  N46  1  0.50108868  0.22953379  0.84221927  1
  N  N47  1  0.43456204  0.09252377  0.61031077  1
  N  N48  1  0.22702543  0.56465043  0.32058085  1
  N  N49  1  0.12152766  0.42294241  0.08823357  1
  N  N50  1  0.88878116  0.54216690  0.88652081  1
  N  N51  1  0.79049857  0.42130856  0.59928160  1
  N  N52  1  0.52257713  0.55596427  0.40665258  1
  N  N53  1  0.44149361  0.42804632  0.08295647  1
  N  N54  1  0.21924837  0.54569761  0.83965281  1
  N  N55  1  0.10259305  0.42634804  0.65180496  1
  N  N56  1  0.91230262  0.53982466  0.42508754  1
  N  N57  1  0.78340561  0.42313047  0.08899434  1
  N  N58  1  0.55642706  0.52948149  0.87401271  1
  N  N59  1  0.39786374  0.40211260  0.56660585  1
  N  N60  1  0.22657764  0.87521304  0.37119553  1
  N  N61  1  0.10593678  0.74444497  0.07184644  1
  N  N62  1  0.89096153  0.85772932  0.87180648  1
  N  N63  1  0.76168333  0.75212777  0.65463083  1
  N  N64  1  0.55421678  0.83709100  0.31914986  1
  N  N65  1  0.46501866  0.74971876  0.07198121  1
  N  N66  1  0.21878370  0.87512691  0.84075541  1
  N  N67  1  0.15084285  0.73938584  0.59817724  1
  N  N68  1  0.90653456  0.89808875  0.39721259  1
  N  N69  1  0.78205361  0.75572336  0.10787904  1
  N  N70  1  0.54592750  0.87928412  0.85031990  1
  N  N71  1  0.43069858  0.79451975  0.59984062  1
