# generated using pymatgen
data_Gd2Al7N9
_symmetry_space_group_name_H-M   'P 1'
_cell_length_a   9.91064644
_cell_length_b   9.89310982
_cell_length_c   10.49467331
_cell_angle_alpha   89.66683700
_cell_angle_beta   90.75037743
_cell_angle_gamma   59.87582161
_symmetry_Int_Tables_number   1
_chemical_formula_structural   Gd2Al7N9
_chemical_formula_sum   'Gd8 Al28 N36'
_cell_volume   889.83150064
_cell_formula_units_Z   4
loop_
 _symmetry_equiv_pos_site_id
 _symmetry_equiv_pos_as_xyz
  1  'x, y, z'
loop_
 _atom_site_type_symbol
 _atom_site_label
 _atom_site_symmetry_multiplicity
 _atom_site_fract_x
 _atom_site_fract_y
 _atom_site_fract_z
 _atom_site_occupancy
  Al  Al0  1  0.11328084  0.08697020  0.40733985  1
  Al  Al1  1  0.21991009  0.20883428  0.14281790  1
  Al  Al2  1  0.89261916  0.21790525  0.65981331  1
  Al  Al3  1  0.54940309  0.21590800  0.14370247  1
  Al  Al4  1  0.11720600  0.09989359  0.89814588  1
  Al  Al5  1  0.21834578  0.20601877  0.66655310  1
  Al  Al6  1  0.79297706  0.08779917  0.31277275  1
  Al  Al7  1  0.90689180  0.20392915  0.14079722  1
  Al  Al8  1  0.43580104  0.09885795  0.90566705  1
  Al  Al9  1  0.53214435  0.21336155  0.66331888  1
  Al  Al10  1  0.22351164  0.53802103  0.14257583  1
  Al  Al11  1  0.79358654  0.42616004  0.90014969  1
  Al  Al12  1  0.88464750  0.53939481  0.66913614  1
  Al  Al13  1  0.43665557  0.43399346  0.39930360  1
  Al  Al14  1  0.56334877  0.53275431  0.06951283  1
  Al  Al15  1  0.11352593  0.42762123  0.89693603  1
  Al  Al16  1  0.21736347  0.53300995  0.65910499  1
  Al  Al17  1  0.89728689  0.53447711  0.13281346  1
  Al  Al18  1  0.42726060  0.42994348  0.90214300  1
  Al  Al19  1  0.13119163  0.75524323  0.40403002  1
  Al  Al20  1  0.77841553  0.76053881  0.90480760  1
  Al  Al21  1  0.43068830  0.77197583  0.42142460  1
  Al  Al22  1  0.55897000  0.86515575  0.13918804  1
  Al  Al23  1  0.11184717  0.75546687  0.89920424  1
  Al  Al24  1  0.22069818  0.87990306  0.65175952  1
  Al  Al25  1  0.90058486  0.85517552  0.14253498  1
  Al  Al26  1  0.44378251  0.76895327  0.89309293  1
  Al  Al27  1  0.54761980  0.87915654  0.66805529  1
  Gd  Gd28  1  0.77234408  0.10741337  0.89020208  1
  Gd  Gd29  1  0.45204532  0.09327687  0.39779820  1
  Gd  Gd30  1  0.12073151  0.42583735  0.40756948  1
  Gd  Gd31  1  0.77162080  0.41429512  0.38312115  1
  Gd  Gd32  1  0.54433393  0.53136588  0.63742707  1
  Gd  Gd33  1  0.23288300  0.86704969  0.15674129  1
  Gd  Gd34  1  0.88600796  0.88216557  0.63655332  1
  Gd  Gd35  1  0.77222788  0.75474521  0.39002166  1
  N  N36  1  0.21165941  0.19007363  0.32562567  1
  N  N37  1  0.10863274  0.11366663  0.07672181  1
  N  N38  1  0.91104099  0.22346500  0.84054540  1
  N  N39  1  0.74846322  0.14378218  0.64642730  1
  N  N40  1  0.57301635  0.22797457  0.32395725  1
  N  N41  1  0.44606500  0.09552561  0.09517293  1
  N  N42  1  0.22343508  0.20531409  0.84869830  1
  N  N43  1  0.10531160  0.10013188  0.59604493  1
  N  N44  1  0.92242285  0.16865312  0.31901983  1
  N  N45  1  0.78245123  0.08976254  0.11877164  1
  N  N46  1  0.51413925  0.22587329  0.84647189  1
  N  N47  1  0.43773591  0.09340302  0.61606902  1
  N  N48  1  0.23472570  0.55403963  0.32189544  1
  N  N49  1  0.11878273  0.42563755  0.08511608  1
  N  N50  1  0.88752863  0.54433182  0.85600640  1
  N  N51  1  0.80218865  0.42267883  0.59923362  1
  N  N52  1  0.52084966  0.56023181  0.40787818  1
  N  N53  1  0.44182021  0.43021975  0.08386423  1
  N  N54  1  0.21957737  0.54321320  0.84241711  1
  N  N55  1  0.10014036  0.43161799  0.62786847  1
  N  N56  1  0.89725452  0.52834397  0.30893507  1
  N  N57  1  0.78542779  0.42011994  0.08767882  1
  N  N58  1  0.55897791  0.53114454  0.87448163  1
  N  N59  1  0.40769971  0.40362208  0.57709472  1
  N  N60  1  0.22223632  0.87554672  0.37113614  1
  N  N61  1  0.10501807  0.74671674  0.07964099  1
  N  N62  1  0.89847032  0.85074191  0.85062144  1
  N  N63  1  0.75640172  0.75141700  0.60901162  1
  N  N64  1  0.53075438  0.85682964  0.31820851  1
  N  N65  1  0.47156602  0.74906377  0.07180960  1
  N  N66  1  0.21899842  0.87498982  0.84405021  1
  N  N67  1  0.14541583  0.74032238  0.58936802  1
  N  N68  1  0.91362626  0.86900409  0.33372833  1
  N  N69  1  0.77891970  0.76106370  0.09302321  1
  N  N70  1  0.55573885  0.87779559  0.85214938  1
  N  N71  1  0.42850481  0.79630374  0.60570770  1
