# generated using pymatgen
data_Gd2Al7N9
_symmetry_space_group_name_H-M   'P 1'
_cell_length_a   9.93237179
_cell_length_b   9.89841005
_cell_length_c   10.53292572
_cell_angle_alpha   89.75774424
_cell_angle_beta   90.47725465
_cell_angle_gamma   59.81833622
_symmetry_Int_Tables_number   1
_chemical_formula_structural   Gd2Al7N9
_chemical_formula_sum   'Gd8 Al28 N36'
_cell_volume   895.08544074
_cell_formula_units_Z   4
loop_
 _symmetry_equiv_pos_site_id
 _symmetry_equiv_pos_as_xyz
  1  'x, y, z'
loop_
 _atom_site_type_symbol
 _atom_site_label
 _atom_site_symmetry_multiplicity
 _atom_site_fract_x
 _atom_site_fract_y
 _atom_site_fract_z
 _atom_site_occupancy
  Al  Al0  1  0.11465373  0.08425192  0.40392056  1
  Al  Al1  1  0.22004463  0.20761211  0.14185991  1
  Al  Al2  1  0.89403175  0.22129871  0.65881037  1
  Al  Al3  1  0.55125630  0.21367829  0.14151213  1
  Al  Al4  1  0.11797452  0.10074022  0.89618890  1
  Al  Al5  1  0.21870649  0.20599244  0.66463759  1
  Al  Al6  1  0.80143255  0.07541078  0.30835917  1
  Al  Al7  1  0.90757964  0.20180940  0.13509209  1
  Al  Al8  1  0.43379290  0.10000906  0.90535378  1
  Al  Al9  1  0.52851419  0.21621769  0.66161924  1
  Al  Al10  1  0.22036771  0.54013236  0.14210481  1
  Al  Al11  1  0.79328382  0.42895345  0.89954451  1
  Al  Al12  1  0.89060253  0.53176697  0.66514106  1
  Al  Al13  1  0.43700808  0.43325171  0.39544533  1
  Al  Al14  1  0.56157841  0.53324818  0.06868452  1
  Al  Al15  1  0.11365374  0.42732888  0.89737236  1
  Al  Al16  1  0.21877005  0.53140527  0.65807010  1
  Al  Al17  1  0.89690124  0.53314018  0.13282909  1
  Al  Al18  1  0.42398967  0.43193313  0.90177024  1
  Al  Al19  1  0.13260121  0.75600677  0.41296338  1
  Al  Al20  1  0.77304189  0.76121843  0.83992177  1
  Al  Al21  1  0.43283385  0.77013288  0.41786585  1
  Al  Al22  1  0.55629394  0.86543993  0.13850398  1
  Al  Al23  1  0.11784487  0.75460883  0.89321255  1
  Al  Al24  1  0.22410603  0.87932825  0.65121083  1
  Al  Al25  1  0.88729993  0.85604927  0.06706347  1
  Al  Al26  1  0.44233138  0.76954510  0.89406325  1
  Al  Al27  1  0.54017185  0.88417942  0.66488035  1
  Gd  Gd28  1  0.76402956  0.12232159  0.88003907  1
  Gd  Gd29  1  0.45497919  0.09215747  0.39513056  1
  Gd  Gd30  1  0.12407167  0.42133765  0.40568861  1
  Gd  Gd31  1  0.77278963  0.40564851  0.38004639  1
  Gd  Gd32  1  0.54378079  0.53127793  0.63401588  1
  Gd  Gd33  1  0.22619249  0.86791430  0.15711192  1
  Gd  Gd34  1  0.88609371  0.89426962  0.61540961  1
  Gd  Gd35  1  0.78080575  0.75411412  0.35999689  1
  N  N36  1  0.21513251  0.18564735  0.32353577  1
  N  N37  1  0.11004608  0.11300414  0.07323873  1
  N  N38  1  0.91343289  0.22720024  0.83806046  1
  N  N39  1  0.74488633  0.15247724  0.65144928  1
  N  N40  1  0.57809115  0.22532921  0.31961526  1
  N  N41  1  0.44559077  0.09532449  0.09316228  1
  N  N42  1  0.22331401  0.20601287  0.84610654  1
  N  N43  1  0.10532281  0.09961215  0.59365966  1
  N  N44  1  0.92771895  0.16090668  0.31015888  1
  N  N45  1  0.78521312  0.08264609  0.11192419  1
  N  N46  1  0.50764745  0.22935534  0.84365573  1
  N  N47  1  0.43711478  0.09495210  0.61268985  1
  N  N48  1  0.23170292  0.55747092  0.32156532  1
  N  N49  1  0.11829909  0.42529904  0.08415567  1
  N  N50  1  0.89097603  0.54084128  0.85210190  1
  N  N51  1  0.80219277  0.42366907  0.59445103  1
  N  N52  1  0.52231775  0.55792475  0.40578261  1
  N  N53  1  0.44091550  0.42968989  0.08258444  1
  N  N54  1  0.21805738  0.54286455  0.84000229  1
  N  N55  1  0.10306020  0.42931305  0.62426871  1
  N  N56  1  0.90333558  0.51357195  0.30941917  1
  N  N57  1  0.78401039  0.41981759  0.08496035  1
  N  N58  1  0.55833368  0.53135647  0.87325024  1
  N  N59  1  0.40776490  0.40331802  0.57315808  1
  N  N60  1  0.22428437  0.87213715  0.37097721  1
  N  N61  1  0.10666561  0.74475130  0.07351145  1
  N  N62  1  0.89253148  0.85724953  0.87330462  1
  N  N63  1  0.76185712  0.75524524  0.64165907  1
  N  N64  1  0.52940725  0.85748267  0.31922927  1
  N  N65  1  0.46733699  0.75035945  0.07193216  1
  N  N66  1  0.22006445  0.87601187  0.84137236  1
  N  N67  1  0.15226143  0.73827950  0.59822858  1
  N  N68  1  0.90800151  0.88419297  0.39469108  1
  N  N69  1  0.77807938  0.75987269  0.12102325  1
  N  N70  1  0.54794856  0.88122308  0.84872346  1
  N  N71  1  0.43057313  0.79558743  0.60086916  1
