# generated using pymatgen
data_Gd2Al7N9
_symmetry_space_group_name_H-M   'P 1'
_cell_length_a   9.87978309
_cell_length_b   9.88466202
_cell_length_c   10.39566700
_cell_angle_alpha   90.05322331
_cell_angle_beta   90.08761538
_cell_angle_gamma   59.99268135
_symmetry_Int_Tables_number   1
_chemical_formula_structural   Gd2Al7N9
_chemical_formula_sum   'Gd8 Al28 N36'
_cell_volume   879.14331267
_cell_formula_units_Z   4
loop_
 _symmetry_equiv_pos_site_id
 _symmetry_equiv_pos_as_xyz
  1  'x, y, z'
loop_
 _atom_site_type_symbol
 _atom_site_label
 _atom_site_symmetry_multiplicity
 _atom_site_fract_x
 _atom_site_fract_y
 _atom_site_fract_z
 _atom_site_occupancy
  Al  Al0  1  0.11208454  0.08644774  0.40682766  1
  Al  Al1  1  0.21402856  0.21282996  0.13894731  1
  Al  Al2  1  0.89655286  0.21529767  0.65082909  1
  Al  Al3  1  0.55916490  0.21079568  0.14932819  1
  Al  Al4  1  0.11233229  0.10211377  0.89566097  1
  Al  Al5  1  0.22265511  0.20398741  0.66721793  1
  Al  Al6  1  0.78382168  0.09972192  0.39216084  1
  Al  Al7  1  0.89568300  0.19991578  0.14832196  1
  Al  Al8  1  0.43875969  0.09963354  0.90233564  1
  Al  Al9  1  0.53825329  0.21284928  0.64996329  1
  Al  Al10  1  0.22075400  0.53913580  0.14237586  1
  Al  Al11  1  0.78055206  0.42830555  0.90841946  1
  Al  Al12  1  0.88784669  0.53563260  0.67430947  1
  Al  Al13  1  0.43603609  0.43604930  0.38906383  1
  Al  Al14  1  0.55365354  0.53960554  0.14053334  1
  Al  Al15  1  0.11493315  0.42715400  0.89645311  1
  Al  Al16  1  0.22462387  0.53137750  0.66162469  1
  Al  Al17  1  0.89520415  0.53679101  0.13076653  1
  Al  Al18  1  0.43792983  0.43140737  0.90594934  1
  Al  Al19  1  0.12669901  0.75703623  0.40329287  1
  Al  Al20  1  0.77905492  0.75881183  0.90747074  1
  Al  Al21  1  0.43041911  0.76862371  0.40546175  1
  Al  Al22  1  0.55694803  0.86828782  0.13575311  1
  Al  Al23  1  0.11376712  0.75337114  0.90214185  1
  Al  Al24  1  0.22585621  0.87606814  0.65014107  1
  Al  Al25  1  0.89282344  0.86944189  0.15338657  1
  Al  Al26  1  0.44971774  0.75803674  0.89848187  1
  Al  Al27  1  0.54982596  0.87536389  0.66552724  1
  Gd  Gd28  1  0.77610619  0.09973819  0.89502313  1
  Gd  Gd29  1  0.44314438  0.09547303  0.39213023  1
  Gd  Gd30  1  0.11784855  0.42773140  0.41029807  1
  Gd  Gd31  1  0.77844238  0.41681728  0.38110266  1
  Gd  Gd32  1  0.54997283  0.53292100  0.64217413  1
  Gd  Gd33  1  0.22606158  0.87549519  0.15161888  1
  Gd  Gd34  1  0.89331812  0.87091497  0.63731746  1
  Gd  Gd35  1  0.76625366  0.75926982  0.39022322  1
  N  N36  1  0.20292144  0.19382322  0.32269807  1
  N  N37  1  0.09692255  0.12136795  0.07537352  1
  N  N38  1  0.90353776  0.22320971  0.83372459  1
  N  N39  1  0.75797391  0.13548267  0.58937944  1
  N  N40  1  0.57206587  0.22487683  0.33023306  1
  N  N41  1  0.44550124  0.09790178  0.09372129  1
  N  N42  1  0.22503507  0.20388994  0.84957151  1
  N  N43  1  0.11250505  0.09679864  0.59634988  1
  N  N44  1  0.91572713  0.16808950  0.32901839  1
  N  N45  1  0.78151969  0.09075315  0.10880568  1
  N  N46  1  0.52312487  0.22527137  0.83582108  1
  N  N47  1  0.44242589  0.09064003  0.61324605  1
  N  N48  1  0.22945039  0.55492539  0.32366414  1
  N  N49  1  0.11701587  0.42740859  0.08412717  1
  N  N50  1  0.88581278  0.54029545  0.86236572  1
  N  N51  1  0.80598255  0.42176491  0.59661972  1
  N  N52  1  0.52146866  0.56169618  0.34080639  1
  N  N53  1  0.44434053  0.42791736  0.08979427  1
  N  N54  1  0.22661381  0.54008817  0.84637883  1
  N  N55  1  0.10603803  0.42950727  0.63376312  1
  N  N56  1  0.89938153  0.53332835  0.30856854  1
  N  N57  1  0.77740653  0.42121980  0.09859169  1
  N  N58  1  0.55860852  0.53288108  0.85891929  1
  N  N59  1  0.41582085  0.40978037  0.57185877  1
  N  N60  1  0.21936593  0.87523571  0.36816168  1
  N  N61  1  0.10003811  0.75034563  0.08487626  1
  N  N62  1  0.90216313  0.84508356  0.84988051  1
  N  N63  1  0.76142373  0.74394240  0.61081816  1
  N  N64  1  0.52776599  0.86100996  0.31447919  1
  N  N65  1  0.47184581  0.74533308  0.07638550  1
  N  N66  1  0.22193168  0.87304050  0.84478377  1
  N  N67  1  0.14989344  0.73712727  0.59011754  1
  N  N68  1  0.90561151  0.87869786  0.34939230  1
  N  N69  1  0.77797992  0.76552914  0.09647823  1
  N  N70  1  0.55604982  0.87513630  0.85178006  1
  N  N71  1  0.43434959  0.78937624  0.59196049  1
