# generated using pymatgen
data_Gd2Al7N9
_symmetry_space_group_name_H-M   'P 1'
_cell_length_a   9.85066221
_cell_length_b   9.86229529
_cell_length_c   10.74417993
_cell_angle_alpha   92.03370240
_cell_angle_beta   91.79665237
_cell_angle_gamma   59.96329309
_symmetry_Int_Tables_number   1
_chemical_formula_structural   Gd2Al7N9
_chemical_formula_sum   'Gd8 Al28 N36'
_cell_volume   902.94097244
_cell_formula_units_Z   4
loop_
 _symmetry_equiv_pos_site_id
 _symmetry_equiv_pos_as_xyz
  1  'x, y, z'
loop_
 _atom_site_type_symbol
 _atom_site_label
 _atom_site_symmetry_multiplicity
 _atom_site_fract_x
 _atom_site_fract_y
 _atom_site_fract_z
 _atom_site_occupancy
  Al  Al0  1  0.11418187  0.07115126  0.40224172  1
  Al  Al1  1  0.23221071  0.21818600  0.03087417  1
  Al  Al2  1  0.87705204  0.20610689  0.56851346  1
  Al  Al3  1  0.56302087  0.22308700  0.11707887  1
  Al  Al4  1  0.11056953  0.10220329  0.80199135  1
  Al  Al5  1  0.21899513  0.20632680  0.57557582  1
  Al  Al6  1  0.80682387  0.07845772  0.29497203  1
  Al  Al7  1  0.91232716  0.22823328  0.04917231  1
  Al  Al8  1  0.43326678  0.09411903  0.79872977  1
  Al  Al9  1  0.53106365  0.21225325  0.63040362  1
  Al  Al10  1  0.22871941  0.54642147  0.11231337  1
  Al  Al11  1  0.79423627  0.42734323  0.80322290  1
  Al  Al12  1  0.88817192  0.52511586  0.56561497  1
  Al  Al13  1  0.42804067  0.42771131  0.37248154  1
  Al  Al14  1  0.57358936  0.54386567  0.03114415  1
  Al  Al15  1  0.10875104  0.42983058  0.81066306  1
  Al  Al16  1  0.21707169  0.52530124  0.62180355  1
  Al  Al17  1  0.89510896  0.54993817  0.02773911  1
  Al  Al18  1  0.42595481  0.43440941  0.87440536  1
  Al  Al19  1  0.12991503  0.74249752  0.37556262  1
  Al  Al20  1  0.77671832  0.75581206  0.80075921  1
  Al  Al21  1  0.42439025  0.76498708  0.40893570  1
  Al  Al22  1  0.56766217  0.88817598  0.03040487  1
  Al  Al23  1  0.12079585  0.75284509  0.86975859  1
  Al  Al24  1  0.22137480  0.86194215  0.63467965  1
  Al  Al25  1  0.89722851  0.86663755  0.04034114  1
  Al  Al26  1  0.44267523  0.77089461  0.86183723  1
  Al  Al27  1  0.55254732  0.86899320  0.57206580  1
  Gd  Gd28  1  0.76501132  0.11350586  0.84293550  1
  Gd  Gd29  1  0.44827285  0.09510174  0.32506818  1
  Gd  Gd30  1  0.09818118  0.38882287  0.28069983  1
  Gd  Gd31  1  0.74575882  0.41130529  0.30728339  1
  Gd  Gd32  1  0.53600168  0.52608740  0.60788852  1
  Gd  Gd33  1  0.23043019  0.88897475  0.12889817  1
  Gd  Gd34  1  0.88222855  0.87706887  0.57062636  1
  Gd  Gd35  1  0.77631755  0.74551009  0.29385570  1
  N  N36  1  0.21481805  0.18451587  0.40359638  1
  N  N37  1  0.11280663  0.15033148  0.11498963  1
  N  N38  1  0.91235992  0.22642010  0.87153591  1
  N  N39  1  0.74896772  0.13222871  0.62596953  1
  N  N40  1  0.58523145  0.23265913  0.29350606  1
  N  N41  1  0.45264681  0.10356690  0.09484909  1
  N  N42  1  0.22382957  0.20360168  0.85157383  1
  N  N43  1  0.10213628  0.08806315  0.61297586  1
  N  N44  1  0.89999373  0.17219364  0.39187837  1
  N  N45  1  0.80319352  0.09534802  0.09433164  1
  N  N46  1  0.50720406  0.23543653  0.80935001  1
  N  N47  1  0.43980639  0.08312241  0.61868612  1
  N  N48  1  0.22696965  0.54036184  0.29229951  1
  N  N49  1  0.11823329  0.43991154  0.06417288  1
  N  N50  1  0.88838715  0.54518096  0.85365491  1
  N  N51  1  0.79925312  0.41097095  0.62629308  1
  N  N52  1  0.51678386  0.55336557  0.38954447  1
  N  N53  1  0.45162659  0.43622017  0.05298588  1
  N  N54  1  0.22387392  0.54658190  0.80411925  1
  N  N55  1  0.10046697  0.42070992  0.62879065  1
  N  N56  1  0.88470630  0.52023314  0.38897169  1
  N  N57  1  0.78340304  0.44732547  0.09408033  1
  N  N58  1  0.56212337  0.53408171  0.84456671  1
  N  N59  1  0.40698922  0.39015486  0.54187032  1
  N  N60  1  0.22121371  0.86729691  0.34157765  1
  N  N61  1  0.11743000  0.75165035  0.04852985  1
  N  N62  1  0.89827916  0.85203831  0.84986825  1
  N  N63  1  0.76449187  0.74172391  0.62354060  1
  N  N64  1  0.54894260  0.85768640  0.38993452  1
  N  N65  1  0.47080185  0.76333835  0.04254171  1
  N  N66  1  0.21943613  0.87229744  0.81692962  1
  N  N67  1  0.14899186  0.72910795  0.56005003  1
  N  N68  1  0.90284780  0.87236554  0.35363473  1
  N  N69  1  0.78295519  0.76906875  0.08007252  1
  N  N70  1  0.55803638  0.88320126  0.85073590  1
  N  N71  1  0.42398909  0.78563259  0.58967924  1
