# generated using pymatgen
data_Gd2Al7N9
_symmetry_space_group_name_H-M   'P 1'
_cell_length_a   9.81719675
_cell_length_b   9.93817924
_cell_length_c   10.75355141
_cell_angle_alpha   89.97296439
_cell_angle_beta   89.83809702
_cell_angle_gamma   58.86993944
_symmetry_Int_Tables_number   1
_chemical_formula_structural   Gd2Al7N9
_chemical_formula_sum   'Gd8 Al28 N36'
_cell_volume   898.08187047
_cell_formula_units_Z   4
loop_
 _symmetry_equiv_pos_site_id
 _symmetry_equiv_pos_as_xyz
  1  'x, y, z'
loop_
 _atom_site_type_symbol
 _atom_site_label
 _atom_site_symmetry_multiplicity
 _atom_site_fract_x
 _atom_site_fract_y
 _atom_site_fract_z
 _atom_site_occupancy
  Al  Al0  1  0.11423296  0.08708326  0.40573379  1
  Al  Al1  1  0.21498624  0.21173691  0.15578778  1
  Al  Al2  1  0.89307330  0.21341596  0.66686190  1
  Al  Al3  1  0.54616687  0.21509150  0.14060800  1
  Al  Al4  1  0.11580368  0.09968645  0.90200295  1
  Al  Al5  1  0.22371329  0.19062461  0.66414478  1
  Al  Al6  1  0.79841510  0.08773081  0.30696024  1
  Al  Al7  1  0.90026736  0.20809364  0.12372748  1
  Al  Al8  1  0.42686903  0.10129128  0.90833663  1
  Al  Al9  1  0.52124418  0.21745457  0.66007774  1
  Al  Al10  1  0.21490842  0.54114119  0.14892935  1
  Al  Al11  1  0.78396333  0.43705210  0.83830310  1
  Al  Al12  1  0.88116405  0.54254832  0.60429399  1
  Al  Al13  1  0.44499955  0.43113676  0.39227059  1
  Al  Al14  1  0.56150975  0.53322872  0.05991056  1
  Al  Al15  1  0.10683696  0.42723376  0.83126087  1
  Al  Al16  1  0.21732429  0.53917399  0.65588420  1
  Al  Al17  1  0.89596692  0.53227043  0.06264422  1
  Al  Al18  1  0.41716899  0.43393985  0.90207271  1
  Al  Al19  1  0.13719999  0.76085568  0.41511755  1
  Al  Al20  1  0.77488267  0.75582573  0.84246749  1
  Al  Al21  1  0.44806353  0.76409349  0.41659479  1
  Al  Al22  1  0.55644833  0.86124729  0.13535934  1
  Al  Al23  1  0.11632269  0.75630219  0.89248937  1
  Al  Al24  1  0.22214338  0.88069690  0.65216778  1
  Al  Al25  1  0.88328496  0.86177677  0.05456761  1
  Al  Al26  1  0.43633897  0.77263135  0.89684600  1
  Al  Al27  1  0.54225450  0.87901884  0.67066635  1
  Gd  Gd28  1  0.75419560  0.12119095  0.87683665  1
  Gd  Gd29  1  0.48167312  0.06442648  0.39498448  1
  Gd  Gd30  1  0.16209096  0.40231417  0.42241391  1
  Gd  Gd31  1  0.77504252  0.43747660  0.33226968  1
  Gd  Gd32  1  0.53563755  0.53232124  0.62791988  1
  Gd  Gd33  1  0.21527643  0.87162767  0.16078427  1
  Gd  Gd34  1  0.87417144  0.89250695  0.60591085  1
  Gd  Gd35  1  0.84309557  0.72679866  0.30619793  1
  N  N36  1  0.23025031  0.17199370  0.33259061  1
  N  N37  1  0.11288539  0.11471538  0.07579068  1
  N  N38  1  0.90736805  0.21909534  0.85152151  1
  N  N39  1  0.74190984  0.15007071  0.65313837  1
  N  N40  1  0.56965045  0.22629921  0.31516237  1
  N  N41  1  0.44331230  0.09604633  0.09330186  1
  N  N42  1  0.21910862  0.20077444  0.84139227  1
  N  N43  1  0.10212106  0.10008983  0.59407133  1
  N  N44  1  0.92388688  0.17411975  0.31001150  1
  N  N45  1  0.78466450  0.08578779  0.10966081  1
  N  N46  1  0.49306926  0.23404297  0.83829138  1
  N  N47  1  0.44245290  0.08784877  0.60872459  1
  N  N48  1  0.23124211  0.56719325  0.32480081  1
  N  N49  1  0.10035411  0.43507717  0.13724699  1
  N  N50  1  0.89279625  0.53835881  0.88772886  1
  N  N51  1  0.79352965  0.42939160  0.65959994  1
  N  N52  1  0.53725569  0.54779782  0.41309871  1
  N  N53  1  0.43719622  0.42916244  0.07906355  1
  N  N54  1  0.21471659  0.54859657  0.83257684  1
  N  N55  1  0.10641056  0.42493922  0.64838786  1
  N  N56  1  0.90572629  0.53112678  0.43292620  1
  N  N57  1  0.77509926  0.43181902  0.11048490  1
  N  N58  1  0.55141187  0.53488864  0.87369000  1
  N  N59  1  0.40059607  0.40065963  0.56388957  1
  N  N60  1  0.23301047  0.87194618  0.37157807  1
  N  N61  1  0.10529700  0.74250890  0.07138811  1
  N  N62  1  0.89073463  0.85795174  0.87236800  1
  N  N63  1  0.76564318  0.75047741  0.66245226  1
  N  N64  1  0.57246276  0.82423457  0.31605253  1
  N  N65  1  0.45846400  0.75404980  0.07199147  1
  N  N66  1  0.21630578  0.87669780  0.83931598  1
  N  N67  1  0.14860249  0.74328112  0.59534497  1
  N  N68  1  0.90225524  0.89454674  0.39029815  1
  N  N69  1  0.77704440  0.75803392  0.09622118  1
  N  N70  1  0.54061092  0.88311768  0.85079237  1
  N  N71  1  0.43276545  0.79556973  0.59746666  1
