# generated using pymatgen
data_Gd2Al7N9
_symmetry_space_group_name_H-M   'P 1'
_cell_length_a   9.87991027
_cell_length_b   9.88139667
_cell_length_c   10.40958165
_cell_angle_alpha   90.33924155
_cell_angle_beta   90.30989566
_cell_angle_gamma   60.13279867
_symmetry_Int_Tables_number   1
_chemical_formula_structural   Gd2Al7N9
_chemical_formula_sum   'Gd8 Al28 N36'
_cell_volume   881.26289721
_cell_formula_units_Z   4
loop_
 _symmetry_equiv_pos_site_id
 _symmetry_equiv_pos_as_xyz
  1  'x, y, z'
loop_
 _atom_site_type_symbol
 _atom_site_label
 _atom_site_symmetry_multiplicity
 _atom_site_fract_x
 _atom_site_fract_y
 _atom_site_fract_z
 _atom_site_occupancy
  Al  Al0  1  0.10814981  0.09146901  0.31047521  1
  Al  Al1  1  0.21927007  0.21176702  0.03316152  1
  Al  Al2  1  0.89709442  0.19828703  0.55226900  1
  Al  Al3  1  0.54308411  0.21399156  0.04848934  1
  Al  Al4  1  0.11685467  0.09344595  0.79372451  1
  Al  Al5  1  0.21802038  0.20414602  0.56350364  1
  Al  Al6  1  0.78630988  0.09230774  0.29415990  1
  Al  Al7  1  0.89549751  0.21822445  0.04532784  1
  Al  Al8  1  0.43886578  0.09976820  0.79620231  1
  Al  Al9  1  0.55413504  0.21273177  0.55040403  1
  Al  Al10  1  0.22069424  0.53650191  0.03921351  1
  Al  Al11  1  0.79334155  0.42254303  0.80002668  1
  Al  Al12  1  0.89423705  0.52960474  0.56654225  1
  Al  Al13  1  0.43987241  0.43929013  0.29614132  1
  Al  Al14  1  0.55898641  0.54145491  0.03777866  1
  Al  Al15  1  0.11479893  0.42883035  0.79883122  1
  Al  Al16  1  0.22908521  0.53232140  0.55437772  1
  Al  Al17  1  0.89132085  0.53787272  0.02384615  1
  Al  Al18  1  0.43279922  0.42830445  0.80168579  1
  Al  Al19  1  0.11345708  0.75821181  0.30009725  1
  Al  Al20  1  0.77598593  0.75282906  0.80309432  1
  Al  Al21  1  0.44002375  0.75916272  0.30179614  1
  Al  Al22  1  0.55743846  0.87411934  0.03282242  1
  Al  Al23  1  0.12548543  0.75199287  0.79537748  1
  Al  Al24  1  0.22378026  0.87627630  0.54988629  1
  Al  Al25  1  0.89620444  0.85683772  0.03858225  1
  Al  Al26  1  0.43590238  0.77385193  0.79864183  1
  Al  Al27  1  0.54661563  0.87417138  0.56273694  1
  Gd  Gd28  1  0.77402398  0.10291045  0.81968117  1
  Gd  Gd29  1  0.44181807  0.09391906  0.31074204  1
  Gd  Gd30  1  0.11347588  0.42406237  0.29591009  1
  Gd  Gd31  1  0.77438886  0.41547808  0.29714979  1
  Gd  Gd32  1  0.55220540  0.54271542  0.56817317  1
  Gd  Gd33  1  0.21861604  0.87840278  0.06507043  1
  Gd  Gd34  1  0.89102122  0.86697425  0.55791221  1
  Gd  Gd35  1  0.76805443  0.75825376  0.28649310  1
  N  N36  1  0.20533212  0.19297663  0.38494264  1
  N  N37  1  0.09666825  0.13491395  0.12484007  1
  N  N38  1  0.91495948  0.21629233  0.86602086  1
  N  N39  1  0.76346721  0.12155802  0.60564077  1
  N  N40  1  0.57168608  0.22625231  0.35968678  1
  N  N41  1  0.44024536  0.09378880  0.08966858  1
  N  N42  1  0.22330670  0.20323502  0.84614605  1
  N  N43  1  0.11018700  0.08914135  0.61077580  1
  N  N44  1  0.90543593  0.17196559  0.36974789  1
  N  N45  1  0.78010370  0.09746741  0.09287996  1
  N  N46  1  0.51992883  0.22401885  0.86793230  1
  N  N47  1  0.44820769  0.09655890  0.60477160  1
  N  N48  1  0.23368798  0.54983906  0.36940999  1
  N  N49  1  0.11000087  0.42844781  0.07328050  1
  N  N50  1  0.89430578  0.53616947  0.84382223  1
  N  N51  1  0.81041143  0.40406016  0.61643570  1
  N  N52  1  0.52804707  0.55484504  0.35230340  1
  N  N53  1  0.44053157  0.43383609  0.10508375  1
  N  N54  1  0.22251376  0.54217105  0.85627494  1
  N  N55  1  0.11465567  0.42880377  0.61134927  1
  N  N56  1  0.88666958  0.53702343  0.38535579  1
  N  N57  1  0.77631210  0.43628432  0.07870627  1
  N  N58  1  0.55382678  0.54086744  0.84528983  1
  N  N59  1  0.43032133  0.41112457  0.62098245  1
  N  N60  1  0.22096240  0.87105994  0.34615589  1
  N  N61  1  0.09964018  0.73952559  0.11479199  1
  N  N62  1  0.90937630  0.84163442  0.84879531  1
  N  N63  1  0.75902200  0.74462499  0.61947625  1
  N  N64  1  0.53937609  0.85652889  0.38184649  1
  N  N65  1  0.47678035  0.75062786  0.11254443  1
  N  N66  1  0.21930551  0.87611473  0.84951824  1
  N  N67  1  0.14637425  0.74397762  0.61205291  1
  N  N68  1  0.89659658  0.88033362  0.34162299  1
  N  N69  1  0.77719840  0.75867119  0.06730636  1
  N  N70  1  0.55079668  0.87827690  0.85068825  1
  N  N71  1  0.42258372  0.79572732  0.62042341  1
