# generated using pymatgen
data_Gd2Al7N9
_symmetry_space_group_name_H-M   'P 1'
_cell_length_a   9.90923356
_cell_length_b   9.90562961
_cell_length_c   10.59788865
_cell_angle_alpha   91.03220618
_cell_angle_beta   91.30106725
_cell_angle_gamma   59.79915350
_symmetry_Int_Tables_number   1
_chemical_formula_structural   Gd2Al7N9
_chemical_formula_sum   'Gd8 Al28 N36'
_cell_volume   898.80399782
_cell_formula_units_Z   4
loop_
 _symmetry_equiv_pos_site_id
 _symmetry_equiv_pos_as_xyz
  1  'x, y, z'
loop_
 _atom_site_type_symbol
 _atom_site_label
 _atom_site_symmetry_multiplicity
 _atom_site_fract_x
 _atom_site_fract_y
 _atom_site_fract_z
 _atom_site_occupancy
  Al  Al0  1  0.11045419  0.09305744  0.32113372  1
  Al  Al1  1  0.22994804  0.21395997  0.04937130  1
  Al  Al2  1  0.89199122  0.19882573  0.56226288  1
  Al  Al3  1  0.55986121  0.22021678  0.11918947  1
  Al  Al4  1  0.11109255  0.10110615  0.81133014  1
  Al  Al5  1  0.20990705  0.19739397  0.57276384  1
  Al  Al6  1  0.80493302  0.08530510  0.29535942  1
  Al  Al7  1  0.90581047  0.22284480  0.05745295  1
  Al  Al8  1  0.43023162  0.09599874  0.80141443  1
  Al  Al9  1  0.53242120  0.21083927  0.62933047  1
  Al  Al10  1  0.22824005  0.54246893  0.11338708  1
  Al  Al11  1  0.79918449  0.42137120  0.80503921  1
  Al  Al12  1  0.88687164  0.52775445  0.56927008  1
  Al  Al13  1  0.43178468  0.43668694  0.37019110  1
  Al  Al14  1  0.57403591  0.53740606  0.02858484  1
  Al  Al15  1  0.10995829  0.42391849  0.80900139  1
  Al  Al16  1  0.21888077  0.52428681  0.61927423  1
  Al  Al17  1  0.89441425  0.54292258  0.03553170  1
  Al  Al18  1  0.42565673  0.43073688  0.87305824  1
  Al  Al19  1  0.12931544  0.75741781  0.37390541  1
  Al  Al20  1  0.77806695  0.75345476  0.80562061  1
  Al  Al21  1  0.41786853  0.77472169  0.40644906  1
  Al  Al22  1  0.56550791  0.88431050  0.03289351  1
  Al  Al23  1  0.11784632  0.74759819  0.86819650  1
  Al  Al24  1  0.21855429  0.86702925  0.64118414  1
  Al  Al25  1  0.89339550  0.86310351  0.04084962  1
  Al  Al26  1  0.44820275  0.76594353  0.84755635  1
  Al  Al27  1  0.55203252  0.86664460  0.58169960  1
  Gd  Gd28  1  0.76640109  0.11373970  0.84166635  1
  Gd  Gd29  1  0.45245946  0.10525256  0.35109748  1
  Gd  Gd30  1  0.10516229  0.41590730  0.30452125  1
  Gd  Gd31  1  0.74807209  0.42179561  0.31169186  1
  Gd  Gd32  1  0.54159723  0.51987724  0.60827749  1
  Gd  Gd33  1  0.23535091  0.87097500  0.10590629  1
  Gd  Gd34  1  0.88535949  0.87550075  0.57630221  1
  Gd  Gd35  1  0.76722498  0.76093742  0.29849875  1
  N  N36  1  0.21058533  0.18739277  0.39797138  1
  N  N37  1  0.10524002  0.14005136  0.13619656  1
  N  N38  1  0.91433760  0.22300407  0.88027561  1
  N  N39  1  0.75072404  0.13383336  0.62015775  1
  N  N40  1  0.58608315  0.24137969  0.29437612  1
  N  N41  1  0.45215491  0.09751382  0.10693034  1
  N  N42  1  0.22418287  0.20160979  0.86529059  1
  N  N43  1  0.10242098  0.09026746  0.63067562  1
  N  N44  1  0.90847733  0.17458505  0.38134156  1
  N  N45  1  0.79912579  0.09050115  0.09351773  1
  N  N46  1  0.50864732  0.23222465  0.80946235  1
  N  N47  1  0.43583427  0.08557288  0.61664491  1
  N  N48  1  0.23172689  0.55516426  0.29451437  1
  N  N49  1  0.11521939  0.43356399  0.08368106  1
  N  N50  1  0.89234256  0.53961604  0.85752138  1
  N  N51  1  0.80486391  0.40550912  0.62467659  1
  N  N52  1  0.51650599  0.56326817  0.39252740  1
  N  N53  1  0.44711613  0.43383108  0.05223279  1
  N  N54  1  0.22270456  0.54190170  0.80364069  1
  N  N55  1  0.10289988  0.41739658  0.62451215  1
  N  N56  1  0.87853819  0.53559519  0.39142805  1
  N  N57  1  0.77980162  0.44109828  0.09541557  1
  N  N58  1  0.56656276  0.52498696  0.84252317  1
  N  N59  1  0.40771635  0.38939971  0.53869353  1
  N  N60  1  0.22357069  0.87311071  0.32541399  1
  N  N61  1  0.11089008  0.74287208  0.04697119  1
  N  N62  1  0.89658046  0.85216892  0.84687485  1
  N  N63  1  0.76558341  0.74083075  0.62729840  1
  N  N64  1  0.54363864  0.86255312  0.39960233  1
  N  N65  1  0.47742917  0.75382748  0.03655949  1
  N  N66  1  0.21736466  0.86995221  0.82962435  1
  N  N67  1  0.15225842  0.73284954  0.56106869  1
  N  N68  1  0.90158330  0.87878858  0.35597556  1
  N  N69  1  0.78151761  0.76375057  0.08106620  1
  N  N70  1  0.55906341  0.88450658  0.85084147  1
  N  N71  1  0.42757315  0.78215921  0.61374979  1
