# generated using pymatgen
data_Gd2Al7N9
_symmetry_space_group_name_H-M   'P 1'
_cell_length_a   9.87183919
_cell_length_b   9.86822703
_cell_length_c   10.83732904
_cell_angle_alpha   91.20209229
_cell_angle_beta   91.24833319
_cell_angle_gamma   59.74537573
_symmetry_Int_Tables_number   1
_chemical_formula_structural   Gd2Al7N9
_chemical_formula_sum   'Gd8 Al28 N36'
_cell_volume   911.67039568
_cell_formula_units_Z   4
loop_
 _symmetry_equiv_pos_site_id
 _symmetry_equiv_pos_as_xyz
  1  'x, y, z'
loop_
 _atom_site_type_symbol
 _atom_site_label
 _atom_site_symmetry_multiplicity
 _atom_site_fract_x
 _atom_site_fract_y
 _atom_site_fract_z
 _atom_site_occupancy
  Al  Al0  1  0.11299509  0.07452152  0.41485728  1
  Al  Al1  1  0.23639030  0.21683773  0.04611189  1
  Al  Al2  1  0.87796137  0.20703932  0.57232185  1
  Al  Al3  1  0.56369050  0.21905132  0.12453603  1
  Al  Al4  1  0.11928678  0.09474626  0.88132462  1
  Al  Al5  1  0.21370297  0.20313340  0.58089991  1
  Al  Al6  1  0.80527082  0.08535014  0.30132880  1
  Al  Al7  1  0.89938772  0.21945521  0.05366587  1
  Al  Al8  1  0.43009834  0.09613147  0.80559535  1
  Al  Al9  1  0.52778762  0.21325716  0.63411872  1
  Al  Al10  1  0.23023103  0.54236837  0.12191590  1
  Al  Al11  1  0.79570668  0.42435240  0.80978480  1
  Al  Al12  1  0.88268650  0.53122024  0.57615182  1
  Al  Al13  1  0.43596556  0.43289482  0.37929866  1
  Al  Al14  1  0.57520144  0.53511273  0.03608283  1
  Al  Al15  1  0.10802691  0.42600728  0.80952910  1
  Al  Al16  1  0.21664995  0.52847509  0.62801618  1
  Al  Al17  1  0.89772213  0.53922531  0.04194822  1
  Al  Al18  1  0.42510964  0.43157795  0.87952720  1
  Al  Al19  1  0.13369692  0.75333928  0.38724631  1
  Al  Al20  1  0.77765197  0.75286879  0.81308035  1
  Al  Al21  1  0.42532579  0.77072152  0.42176373  1
  Al  Al22  1  0.56716664  0.88286333  0.03897410  1
  Al  Al23  1  0.12042184  0.74940595  0.87627404  1
  Al  Al24  1  0.21599471  0.87565608  0.64757904  1
  Al  Al25  1  0.89590177  0.86214782  0.04487512  1
  Al  Al26  1  0.44403237  0.76754469  0.86959783  1
  Al  Al27  1  0.55130545  0.87074968  0.58481610  1
  Gd  Gd28  1  0.76507283  0.10916340  0.83989044  1
  Gd  Gd29  1  0.44759391  0.09950237  0.33610794  1
  Gd  Gd30  1  0.10852950  0.41986930  0.31806096  1
  Gd  Gd31  1  0.75178124  0.42267612  0.31687949  1
  Gd  Gd32  1  0.53434338  0.52751980  0.61677971  1
  Gd  Gd33  1  0.23664260  0.86969570  0.13750138  1
  Gd  Gd34  1  0.88124034  0.87568501  0.57514867  1
  Gd  Gd35  1  0.77218629  0.75951589  0.30086896  1
  N  N36  1  0.21212538  0.19084103  0.40543050  1
  N  N37  1  0.11994573  0.11291592  0.06507372  1
  N  N38  1  0.90185987  0.22568823  0.87730550  1
  N  N39  1  0.74710485  0.13184596  0.62585774  1
  N  N40  1  0.58318820  0.23737419  0.29849062  1
  N  N41  1  0.45424801  0.09704463  0.10808028  1
  N  N42  1  0.22480992  0.21055048  0.86535786  1
  N  N43  1  0.10142282  0.08621217  0.59624374  1
  N  N44  1  0.89766479  0.18068773  0.39125667  1
  N  N45  1  0.79988842  0.09003681  0.10052715  1
  N  N46  1  0.50712401  0.23505800  0.81174500  1
  N  N47  1  0.43427412  0.08607214  0.62708563  1
  N  N48  1  0.23748828  0.55732632  0.30016163  1
  N  N49  1  0.11623001  0.43011942  0.10025249  1
  N  N50  1  0.89349511  0.53820470  0.86629382  1
  N  N51  1  0.79878166  0.41162769  0.63402001  1
  N  N52  1  0.52294106  0.55796426  0.40172832  1
  N  N53  1  0.44882464  0.43059612  0.05652411  1
  N  N54  1  0.22241197  0.54412754  0.80928694  1
  N  N55  1  0.09942721  0.42232218  0.63073932  1
  N  N56  1  0.87879283  0.53915867  0.40138085  1
  N  N57  1  0.78354929  0.43586123  0.10136972  1
  N  N58  1  0.56186088  0.53223962  0.85153718  1
  N  N59  1  0.40471166  0.39293252  0.54530309  1
  N  N60  1  0.22543757  0.87424182  0.34930660  1
  N  N61  1  0.11687451  0.74331688  0.05284528  1
  N  N62  1  0.89840382  0.84837866  0.85885487  1
  N  N63  1  0.76262261  0.74326084  0.63831394  1
  N  N64  1  0.55059849  0.86282163  0.40474289  1
  N  N65  1  0.47426694  0.75428622  0.04946037  1
  N  N66  1  0.21859895  0.87343129  0.82854855  1
  N  N67  1  0.14859734  0.73490691  0.57034276  1
  N  N68  1  0.90583134  0.87722087  0.36098610  1
  N  N69  1  0.78362626  0.76196514  0.08728637  1
  N  N70  1  0.55613713  0.88392800  0.86090554  1
  N  N71  1  0.42249885  0.78756047  0.60222379  1
