# generated using pymatgen
data_Gd2Al7N9
_symmetry_space_group_name_H-M   'P 1'
_cell_length_a   9.90638289
_cell_length_b   9.91580319
_cell_length_c   10.75904582
_cell_angle_alpha   90.84539669
_cell_angle_beta   90.94543951
_cell_angle_gamma   59.41488399
_symmetry_Int_Tables_number   1
_chemical_formula_structural   Gd2Al7N9
_chemical_formula_sum   'Gd8 Al28 N36'
_cell_volume   909.67339955
_cell_formula_units_Z   4
loop_
 _symmetry_equiv_pos_site_id
 _symmetry_equiv_pos_as_xyz
  1  'x, y, z'
loop_
 _atom_site_type_symbol
 _atom_site_label
 _atom_site_symmetry_multiplicity
 _atom_site_fract_x
 _atom_site_fract_y
 _atom_site_fract_z
 _atom_site_occupancy
  Al  Al0  1  0.11553176  0.07791867  0.43172904  1
  Al  Al1  1  0.23449714  0.21214331  0.11736674  1
  Al  Al2  1  0.87855733  0.20572054  0.59009745  1
  Al  Al3  1  0.56041498  0.21654083  0.14640597  1
  Al  Al4  1  0.12095672  0.09658751  0.89688872  1
  Al  Al5  1  0.20652706  0.20005105  0.63469073  1
  Al  Al6  1  0.80563468  0.08678752  0.31959996  1
  Al  Al7  1  0.90023773  0.21702954  0.07183022  1
  Al  Al8  1  0.43051534  0.09370282  0.82192763  1
  Al  Al9  1  0.52914761  0.21597563  0.65576914  1
  Al  Al10  1  0.22774349  0.54072429  0.14522182  1
  Al  Al11  1  0.79656813  0.42220470  0.83130069  1
  Al  Al12  1  0.87521097  0.53662056  0.59530289  1
  Al  Al13  1  0.44242732  0.43902379  0.39176344  1
  Al  Al14  1  0.57377573  0.53204211  0.05585095  1
  Al  Al15  1  0.10366306  0.42888589  0.82137888  1
  Al  Al16  1  0.21841770  0.53125105  0.64625551  1
  Al  Al17  1  0.90076847  0.53433020  0.06636118  1
  Al  Al18  1  0.42267757  0.43007804  0.90002326  1
  Al  Al19  1  0.13316472  0.76073192  0.40634357  1
  Al  Al20  1  0.77693972  0.75164347  0.83703483  1
  Al  Al21  1  0.42733508  0.77249424  0.43972065  1
  Al  Al22  1  0.56264684  0.88299789  0.05977899  1
  Al  Al23  1  0.11925135  0.74848307  0.89407948  1
  Al  Al24  1  0.21600650  0.87392727  0.66683805  1
  Al  Al25  1  0.89528067  0.85930144  0.06354028  1
  Al  Al26  1  0.44261196  0.76561189  0.88751089  1
  Al  Al27  1  0.55397735  0.86529133  0.60671933  1
  Gd  Gd28  1  0.76313825  0.10961606  0.86365591  1
  Gd  Gd29  1  0.45477706  0.11344775  0.40288636  1
  Gd  Gd30  1  0.11875981  0.43765749  0.38167302  1
  Gd  Gd31  1  0.76201852  0.42146744  0.33457039  1
  Gd  Gd32  1  0.53722342  0.52489937  0.63443830  1
  Gd  Gd33  1  0.23542440  0.86455139  0.15548880  1
  Gd  Gd34  1  0.88017103  0.87542917  0.59826576  1
  Gd  Gd35  1  0.76695968  0.76658495  0.31772508  1
  N  N36  1  0.21002570  0.19175693  0.40892337  1
  N  N37  1  0.12393218  0.11200272  0.08021365  1
  N  N38  1  0.90229951  0.22207638  0.89586645  1
  N  N39  1  0.74667504  0.13367762  0.64607153  1
  N  N40  1  0.58554193  0.24070956  0.31691289  1
  N  N41  1  0.45599859  0.09457420  0.13024032  1
  N  N42  1  0.21247963  0.20525369  0.83142677  1
  N  N43  1  0.10149579  0.08310715  0.61252452  1
  N  N44  1  0.89913216  0.17916807  0.40942951  1
  N  N45  1  0.80149623  0.08634276  0.11830760  1
  N  N46  1  0.50364919  0.23392684  0.83168795  1
  N  N47  1  0.44187415  0.08462238  0.63742673  1
  N  N48  1  0.24406366  0.56851048  0.31771730  1
  N  N49  1  0.11396625  0.42935602  0.13748904  1
  N  N50  1  0.89591200  0.53480779  0.88764850  1
  N  N51  1  0.80147737  0.40973029  0.65416073  1
  N  N52  1  0.53105039  0.55905067  0.42064080  1
  N  N53  1  0.44709343  0.42831449  0.07618713  1
  N  N54  1  0.22101082  0.54222559  0.82674370  1
  N  N55  1  0.09553850  0.43247144  0.63737057  1
  N  N56  1  0.87184313  0.54804146  0.42077502  1
  N  N57  1  0.78328196  0.43237235  0.11792699  1
  N  N58  1  0.56112477  0.52962458  0.87028648  1
  N  N59  1  0.40388597  0.39095173  0.55790357  1
  N  N60  1  0.22703817  0.87653916  0.36826651  1
  N  N61  1  0.11522533  0.73913363  0.07046752  1
  N  N62  1  0.89702299  0.84854718  0.87513067  1
  N  N63  1  0.76210034  0.74268574  0.66171791  1
  N  N64  1  0.55034535  0.86415590  0.42693471  1
  N  N65  1  0.47333072  0.75136678  0.06900004  1
  N  N66  1  0.21694031  0.87203877  0.84853168  1
  N  N67  1  0.14856753  0.73650011  0.58967163  1
  N  N68  1  0.90483346  0.87841162  0.38146011  1
  N  N69  1  0.78166642  0.76018879  0.10265792  1
  N  N70  1  0.55228903  0.88403141  0.87989154  1
  N  N71  1  0.42380573  0.78515058  0.62488720  1
