# generated using pymatgen
data_Gd2Al7N9
_symmetry_space_group_name_H-M   'P 1'
_cell_length_a   9.90519264
_cell_length_b   9.89759693
_cell_length_c   10.76375332
_cell_angle_alpha   90.98130861
_cell_angle_beta   91.07182211
_cell_angle_gamma   59.49715763
_symmetry_Int_Tables_number   1
_chemical_formula_structural   Gd2Al7N9
_chemical_formula_sum   'Gd8 Al28 N36'
_cell_volume   909.01507706
_cell_formula_units_Z   4
loop_
 _symmetry_equiv_pos_site_id
 _symmetry_equiv_pos_as_xyz
  1  'x, y, z'
loop_
 _atom_site_type_symbol
 _atom_site_label
 _atom_site_symmetry_multiplicity
 _atom_site_fract_x
 _atom_site_fract_y
 _atom_site_fract_z
 _atom_site_occupancy
  Al  Al0  1  0.11393050  0.07630099  0.43417392  1
  Al  Al1  1  0.23624808  0.21464199  0.07311288  1
  Al  Al2  1  0.87796620  0.20645595  0.59226680  1
  Al  Al3  1  0.56089078  0.21659934  0.14568751  1
  Al  Al4  1  0.11924729  0.09423088  0.89953145  1
  Al  Al5  1  0.20944782  0.20312898  0.60570724  1
  Al  Al6  1  0.80617287  0.08694930  0.31968085  1
  Al  Al7  1  0.89994486  0.21705626  0.07283884  1
  Al  Al8  1  0.42927762  0.09586851  0.82480960  1
  Al  Al9  1  0.52845179  0.21495403  0.65556047  1
  Al  Al10  1  0.22895956  0.54139727  0.14263210  1
  Al  Al11  1  0.79598582  0.42322472  0.83042265  1
  Al  Al12  1  0.87979161  0.53372374  0.59548298  1
  Al  Al13  1  0.43975050  0.43799825  0.39405470  1
  Al  Al14  1  0.57401643  0.53296449  0.05609341  1
  Al  Al15  1  0.10673189  0.42634125  0.82708420  1
  Al  Al16  1  0.21759896  0.52857982  0.64609757  1
  Al  Al17  1  0.89893088  0.53578527  0.06488474  1
  Al  Al18  1  0.42343652  0.43093676  0.89956902  1
  Al  Al19  1  0.13309766  0.75839128  0.40716468  1
  Al  Al20  1  0.77734189  0.75150749  0.83581425  1
  Al  Al21  1  0.42646551  0.77286922  0.44116306  1
  Al  Al22  1  0.56392838  0.88345243  0.06005280  1
  Al  Al23  1  0.11967951  0.74840147  0.89464109  1
  Al  Al24  1  0.21625171  0.87420271  0.66805566  1
  Al  Al25  1  0.89548976  0.85980630  0.06390052  1
  Al  Al26  1  0.44363008  0.76599812  0.88832377  1
  Al  Al27  1  0.55280212  0.86737986  0.60800699  1
  Gd  Gd28  1  0.76298994  0.10956367  0.86359228  1
  Gd  Gd29  1  0.45322527  0.11052384  0.38839441  1
  Gd  Gd30  1  0.11411523  0.42795730  0.35272886  1
  Gd  Gd31  1  0.75753697  0.42296593  0.33593267  1
  Gd  Gd32  1  0.53562741  0.52555787  0.63547096  1
  Gd  Gd33  1  0.23592823  0.86677132  0.15620213  1
  Gd  Gd34  1  0.88154336  0.87507723  0.59863951  1
  Gd  Gd35  1  0.76828733  0.76597515  0.31920957  1
  N  N36  1  0.21011243  0.19321756  0.42835613  1
  N  N37  1  0.12030642  0.11080042  0.08365695  1
  N  N38  1  0.90174941  0.22323840  0.89534822  1
  N  N39  1  0.74632342  0.13294430  0.64589915  1
  N  N40  1  0.58592664  0.24088358  0.31736959  1
  N  N41  1  0.45468665  0.09596068  0.13020785  1
  N  N42  1  0.22242945  0.21045796  0.88054047  1
  N  N43  1  0.10086742  0.08532062  0.61805098  1
  N  N44  1  0.89925046  0.18034613  0.41052019  1
  N  N45  1  0.80030311  0.08726388  0.11858895  1
  N  N46  1  0.50511701  0.23470542  0.83148356  1
  N  N47  1  0.43630102  0.08649160  0.64260500  1
  N  N48  1  0.24081129  0.56491245  0.31877498  1
  N  N49  1  0.11532914  0.42794538  0.12981187  1
  N  N50  1  0.89476194  0.53571879  0.88735169  1
  N  N51  1  0.79941485  0.41153297  0.65315039  1
  N  N52  1  0.52750123  0.55998574  0.42066179  1
  N  N53  1  0.44723730  0.42914791  0.07631916  1
  N  N54  1  0.22182507  0.54287062  0.82754686  1
  N  N55  1  0.09795500  0.42549402  0.64662597  1
  N  N56  1  0.87647076  0.54528939  0.42012135  1
  N  N57  1  0.78286208  0.43308839  0.11937689  1
  N  N58  1  0.56142689  0.53026720  0.87054313  1
  N  N59  1  0.40457593  0.39047064  0.55958190  1
  N  N60  1  0.22636681  0.87653353  0.36954912  1
  N  N61  1  0.11533516  0.74078573  0.07123590  1
  N  N62  1  0.89763377  0.84816943  0.87560693  1
  N  N63  1  0.76286274  0.74250752  0.66015981  1
  N  N64  1  0.55017445  0.86488452  0.42729089  1
  N  N65  1  0.47407840  0.75220519  0.06928067  1
  N  N66  1  0.21812171  0.87170835  0.84911845  1
  N  N67  1  0.14934436  0.73521937  0.59020981  1
  N  N68  1  0.90506702  0.87914668  0.38168249  1
  N  N69  1  0.78241030  0.76044759  0.10450887  1
  N  N70  1  0.55393814  0.88371730  0.87978527  1
  N  N71  1  0.42337480  0.78596083  0.62462711  1
