# generated using pymatgen
data_Gd2Al7N9
_symmetry_space_group_name_H-M   'P 1'
_cell_length_a   9.88803816
_cell_length_b   9.88768928
_cell_length_c   10.44636095
_cell_angle_alpha   90.19931412
_cell_angle_beta   90.37395022
_cell_angle_gamma   60.32150081
_symmetry_Int_Tables_number   1
_chemical_formula_structural   Gd2Al7N9
_chemical_formula_sum   'Gd8 Al28 N36'
_cell_volume   887.33825266
_cell_formula_units_Z   4
loop_
 _symmetry_equiv_pos_site_id
 _symmetry_equiv_pos_as_xyz
  1  'x, y, z'
loop_
 _atom_site_type_symbol
 _atom_site_label
 _atom_site_symmetry_multiplicity
 _atom_site_fract_x
 _atom_site_fract_y
 _atom_site_fract_z
 _atom_site_occupancy
  Al  Al0  1  0.10714608  0.09295709  0.31946973  1
  Al  Al1  1  0.22112697  0.21189850  0.04145795  1
  Al  Al2  1  0.89803591  0.19710418  0.56078407  1
  Al  Al3  1  0.54538480  0.21527822  0.05140232  1
  Al  Al4  1  0.11796284  0.09341351  0.80317336  1
  Al  Al5  1  0.21808214  0.20379175  0.57214025  1
  Al  Al6  1  0.78663989  0.09079708  0.30214218  1
  Al  Al7  1  0.89778611  0.21827956  0.05600457  1
  Al  Al8  1  0.43989953  0.09770257  0.80410594  1
  Al  Al9  1  0.55799189  0.20414696  0.56532063  1
  Al  Al10  1  0.22133646  0.53815945  0.04467200  1
  Al  Al11  1  0.80046709  0.41971106  0.81060280  1
  Al  Al12  1  0.89390451  0.52699551  0.57388317  1
  Al  Al13  1  0.43499230  0.43694281  0.38441504  1
  Al  Al14  1  0.56201083  0.54328520  0.04306678  1
  Al  Al15  1  0.11443487  0.42782169  0.80771067  1
  Al  Al16  1  0.21865019  0.53729500  0.57123403  1
  Al  Al17  1  0.89325098  0.53798734  0.03398299  1
  Al  Al18  1  0.43681108  0.43222495  0.84345909  1
  Al  Al19  1  0.11128352  0.75856389  0.30825540  1
  Al  Al20  1  0.77656656  0.75179880  0.81211185  1
  Al  Al21  1  0.43786775  0.75870554  0.31605190  1
  Al  Al22  1  0.55974385  0.87431783  0.04306469  1
  Al  Al23  1  0.12347229  0.75417690  0.80499195  1
  Al  Al24  1  0.22202390  0.87725931  0.55932468  1
  Al  Al25  1  0.89705893  0.85632728  0.04893606  1
  Al  Al26  1  0.43375650  0.78036239  0.80864274  1
  Al  Al27  1  0.54470090  0.87575980  0.57102490  1
  Gd  Gd28  1  0.77986307  0.09968982  0.82856044  1
  Gd  Gd29  1  0.44097475  0.09541773  0.31664971  1
  Gd  Gd30  1  0.10882183  0.42443895  0.30349600  1
  Gd  Gd31  1  0.76102994  0.41701612  0.30661962  1
  Gd  Gd32  1  0.55700225  0.54668415  0.59659599  1
  Gd  Gd33  1  0.22239198  0.87665536  0.07660649  1
  Gd  Gd34  1  0.88964618  0.86562704  0.56486877  1
  Gd  Gd35  1  0.76521859  0.75608357  0.29612633  1
  N  N36  1  0.20601702  0.19362995  0.39389892  1
  N  N37  1  0.09984724  0.13380333  0.13427065  1
  N  N38  1  0.91812922  0.21571346  0.87743022  1
  N  N39  1  0.76708383  0.11739887  0.61579023  1
  N  N40  1  0.57504246  0.21967693  0.37357039  1
  N  N41  1  0.44260006  0.09557451  0.09601065  1
  N  N42  1  0.22500854  0.20247679  0.85522918  1
  N  N43  1  0.10993162  0.08918581  0.62012666  1
  N  N44  1  0.90412420  0.17313727  0.37789390  1
  N  N45  1  0.78088357  0.09808192  0.10187422  1
  N  N46  1  0.52628026  0.21728529  0.86790903  1
  N  N47  1  0.44758392  0.09524644  0.61540517  1
  N  N48  1  0.21842997  0.55607481  0.38531672  1
  N  N49  1  0.11291506  0.42819508  0.08115972  1
  N  N50  1  0.89605200  0.53650610  0.85473704  1
  N  N51  1  0.81592229  0.39908784  0.62860402  1
  N  N52  1  0.52221106  0.55969457  0.37811149  1
  N  N53  1  0.44447717  0.43818759  0.06756926  1
  N  N54  1  0.21898811  0.54331562  0.85896344  1
  N  N55  1  0.11210279  0.42760255  0.62208586  1
  N  N56  1  0.88163504  0.53252483  0.39304259  1
  N  N57  1  0.77827029  0.43643216  0.08839231  1
  N  N58  1  0.55853476  0.54571102  0.84846873  1
  N  N59  1  0.43024265  0.41306808  0.60085663  1
  N  N60  1  0.21835661  0.87211231  0.35557601  1
  N  N61  1  0.10102503  0.73919322  0.12337597  1
  N  N62  1  0.90942555  0.84044862  0.85970880  1
  N  N63  1  0.75751851  0.74217870  0.62835064  1
  N  N64  1  0.53693692  0.85951086  0.39110331  1
  N  N65  1  0.48104521  0.74896786  0.12593448  1
  N  N66  1  0.21935796  0.87642146  0.86101498  1
  N  N67  1  0.14207297  0.74810768  0.62355612  1
  N  N68  1  0.89463309  0.87936439  0.34882513  1
  N  N69  1  0.77868263  0.75801448  0.07806866  1
  N  N70  1  0.55221063  0.87813549  0.86151582  1
  N  N71  1  0.41811423  0.80265640  0.63152955  1
