# generated using pymatgen
data_Gd2Al7N9
_symmetry_space_group_name_H-M   'P 1'
_cell_length_a   9.85718551
_cell_length_b   9.86136528
_cell_length_c   10.57309174
_cell_angle_alpha   91.10345429
_cell_angle_beta   90.67062209
_cell_angle_gamma   60.24771491
_symmetry_Int_Tables_number   1
_chemical_formula_structural   Gd2Al7N9
_chemical_formula_sum   'Gd8 Al28 N36'
_cell_volume   892.11201733
_cell_formula_units_Z   4
loop_
 _symmetry_equiv_pos_site_id
 _symmetry_equiv_pos_as_xyz
  1  'x, y, z'
loop_
 _atom_site_type_symbol
 _atom_site_label
 _atom_site_symmetry_multiplicity
 _atom_site_fract_x
 _atom_site_fract_y
 _atom_site_fract_z
 _atom_site_occupancy
  Al  Al0  1  0.11086500  0.09036044  0.32010446  1
  Al  Al1  1  0.22821436  0.21351167  0.04642532  1
  Al  Al2  1  0.89347690  0.19580973  0.56313647  1
  Al  Al3  1  0.55705251  0.22472277  0.11809614  1
  Al  Al4  1  0.11594012  0.09482914  0.80773847  1
  Al  Al5  1  0.21356122  0.20136454  0.57268639  1
  Al  Al6  1  0.80038806  0.08647979  0.29117488  1
  Al  Al7  1  0.90409824  0.22257127  0.05449932  1
  Al  Al8  1  0.43304033  0.09385015  0.80464717  1
  Al  Al9  1  0.54105356  0.20880342  0.63335286  1
  Al  Al10  1  0.21602058  0.54187631  0.04535528  1
  Al  Al11  1  0.79797969  0.42226563  0.80725473  1
  Al  Al12  1  0.88967122  0.52756835  0.57202691  1
  Al  Al13  1  0.43454819  0.43588586  0.37461292  1
  Al  Al14  1  0.56822095  0.54902802  0.04373114  1
  Al  Al15  1  0.11579729  0.42776394  0.80741552  1
  Al  Al16  1  0.21448742  0.52986748  0.55490464  1
  Al  Al17  1  0.89363843  0.54096769  0.03165726  1
  Al  Al18  1  0.43892497  0.43106586  0.87466198  1
  Al  Al19  1  0.10843729  0.75879145  0.30001419  1
  Al  Al20  1  0.77799128  0.75275173  0.81104840  1
  Al  Al21  1  0.43611736  0.76191252  0.31589607  1
  Al  Al22  1  0.56071406  0.88222929  0.04677266  1
  Al  Al23  1  0.12437982  0.74993002  0.80511187  1
  Al  Al24  1  0.22266310  0.87298454  0.57938716  1
  Al  Al25  1  0.90045234  0.85602697  0.04537845  1
  Al  Al26  1  0.43766741  0.77635393  0.81206865  1
  Al  Al27  1  0.54740501  0.86593558  0.57140249  1
  Gd  Gd28  1  0.77559682  0.10134242  0.84233203  1
  Gd  Gd29  1  0.45286505  0.10410737  0.34709794  1
  Gd  Gd30  1  0.10376697  0.41590294  0.29857131  1
  Gd  Gd31  1  0.75480564  0.41286656  0.30863982  1
  Gd  Gd32  1  0.54593111  0.53301803  0.59780804  1
  Gd  Gd33  1  0.22378799  0.88064562  0.07844622  1
  Gd  Gd34  1  0.88810093  0.86907971  0.56149094  1
  Gd  Gd35  1  0.76358152  0.75106658  0.29165935  1
  N  N36  1  0.20938987  0.18983962  0.39672665  1
  N  N37  1  0.10226443  0.14063010  0.13645481  1
  N  N38  1  0.91487037  0.22097114  0.87691068  1
  N  N39  1  0.76139241  0.11928500  0.62199490  1
  N  N40  1  0.58299546  0.24358662  0.29407860  1
  N  N41  1  0.44766337  0.10208706  0.10850611  1
  N  N42  1  0.22413939  0.20282282  0.86169265  1
  N  N43  1  0.10681652  0.08828376  0.62561459  1
  N  N44  1  0.90798300  0.16949507  0.38227822  1
  N  N45  1  0.79893272  0.09160541  0.09342128  1
  N  N46  1  0.51576551  0.22998112  0.81364496  1
  N  N47  1  0.44016578  0.08531210  0.61658192  1
  N  N48  1  0.21078053  0.55640357  0.37091911  1
  N  N49  1  0.11172003  0.43170896  0.08064177  1
  N  N50  1  0.89544522  0.53740741  0.85407861  1
  N  N51  1  0.80794979  0.40237825  0.62690283  1
  N  N52  1  0.51746941  0.56601680  0.38230020  1
  N  N53  1  0.44979415  0.43623253  0.05658713  1
  N  N54  1  0.21995540  0.54255560  0.86241501  1
  N  N55  1  0.11042272  0.42487852  0.62294063  1
  N  N56  1  0.87894227  0.53088424  0.39382704  1
  N  N57  1  0.78129508  0.43982769  0.09314214  1
  N  N58  1  0.56006661  0.54503268  0.85166960  1
  N  N59  1  0.42822808  0.38992063  0.54864811  1
  N  N60  1  0.21674626  0.87113143  0.33793553  1
  N  N61  1  0.10207169  0.74266363  0.11794128  1
  N  N62  1  0.91006759  0.84039954  0.85806874  1
  N  N63  1  0.75986242  0.74417151  0.62944835  1
  N  N64  1  0.53812204  0.86040359  0.39257938  1
  N  N65  1  0.48437146  0.75233995  0.12601977  1
  N  N66  1  0.21945900  0.87589773  0.85966923  1
  N  N67  1  0.14636951  0.73697754  0.62353555  1
  N  N68  1  0.88950476  0.88002909  0.34471867  1
  N  N69  1  0.78031610  0.76112251  0.07613733  1
  N  N70  1  0.55183198  0.88064852  0.86560407  1
  N  N71  1  0.42461659  0.79092691  0.63578238  1
