# generated using pymatgen
data_Gd2Al7N9
_symmetry_space_group_name_H-M   'P 1'
_cell_length_a   9.94797835
_cell_length_b   9.93136303
_cell_length_c   10.57154082
_cell_angle_alpha   89.83436520
_cell_angle_beta   90.50233988
_cell_angle_gamma   59.37105574
_symmetry_Int_Tables_number   1
_chemical_formula_structural   Gd2Al7N9
_chemical_formula_sum   'Gd8 Al28 N36'
_cell_volume   898.65417115
_cell_formula_units_Z   4
loop_
 _symmetry_equiv_pos_site_id
 _symmetry_equiv_pos_as_xyz
  1  'x, y, z'
loop_
 _atom_site_type_symbol
 _atom_site_label
 _atom_site_symmetry_multiplicity
 _atom_site_fract_x
 _atom_site_fract_y
 _atom_site_fract_z
 _atom_site_occupancy
  Al  Al0  1  0.11382818  0.08751625  0.40390874  1
  Al  Al1  1  0.21941616  0.20735563  0.14368832  1
  Al  Al2  1  0.89181720  0.21917905  0.65854873  1
  Al  Al3  1  0.55094451  0.21194945  0.14228843  1
  Al  Al4  1  0.11696376  0.09956947  0.89769627  1
  Al  Al5  1  0.21808186  0.20235513  0.66699403  1
  Al  Al6  1  0.79967647  0.08378152  0.31270608  1
  Al  Al7  1  0.90614628  0.20446860  0.13637338  1
  Al  Al8  1  0.43372526  0.09790113  0.90662536  1
  Al  Al9  1  0.52561187  0.21521154  0.66111477  1
  Al  Al10  1  0.21963169  0.54001345  0.14263111  1
  Al  Al11  1  0.78818722  0.42671441  0.89510065  1
  Al  Al12  1  0.88570082  0.53508988  0.64244752  1
  Al  Al13  1  0.43804051  0.43231256  0.39416288  1
  Al  Al14  1  0.55996765  0.53241387  0.06912422  1
  Al  Al15  1  0.11970543  0.42242365  0.89269976  1
  Al  Al16  1  0.21730313  0.53224199  0.66076176  1
  Al  Al17  1  0.89556223  0.53815909  0.07938585  1
  Al  Al18  1  0.42402500  0.43047390  0.90300663  1
  Al  Al19  1  0.13503857  0.75838790  0.41544864  1
  Al  Al20  1  0.77363999  0.75839331  0.84317472  1
  Al  Al21  1  0.43710236  0.76909908  0.41766803  1
  Al  Al22  1  0.55208845  0.86496855  0.13510787  1
  Al  Al23  1  0.11804280  0.75501807  0.89208117  1
  Al  Al24  1  0.22295092  0.88040133  0.65077285  1
  Al  Al25  1  0.88722125  0.86067343  0.06003232  1
  Al  Al26  1  0.43993731  0.76955928  0.89461501  1
  Al  Al27  1  0.53984332  0.88184923  0.66855415  1
  Gd  Gd28  1  0.76187226  0.12273265  0.87771068  1
  Gd  Gd29  1  0.46087575  0.08203556  0.39526159  1
  Gd  Gd30  1  0.14353259  0.41408546  0.41482223  1
  Gd  Gd31  1  0.77255296  0.41966550  0.37806287  1
  Gd  Gd32  1  0.53717893  0.53187896  0.63258456  1
  Gd  Gd33  1  0.22282875  0.86756932  0.15926951  1
  Gd  Gd34  1  0.88255867  0.89062704  0.61379404  1
  Gd  Gd35  1  0.79888197  0.76220135  0.32357442  1
  N  N36  1  0.21899133  0.18215295  0.32337965  1
  N  N37  1  0.10920794  0.11291487  0.07420376  1
  N  N38  1  0.91254814  0.22514086  0.83743543  1
  N  N39  1  0.74324593  0.14952113  0.65242328  1
  N  N40  1  0.57449763  0.22394043  0.31993511  1
  N  N41  1  0.44605930  0.09346855  0.09342306  1
  N  N42  1  0.22368684  0.20192747  0.84707224  1
  N  N43  1  0.10399563  0.10073531  0.59391732  1
  N  N44  1  0.92423439  0.17005148  0.31155886  1
  N  N45  1  0.78506641  0.08348967  0.11268238  1
  N  N46  1  0.50445772  0.22880944  0.84323806  1
  N  N47  1  0.43688213  0.09243059  0.61305179  1
  N  N48  1  0.23141040  0.56262195  0.32031617  1
  N  N49  1  0.12286859  0.42266574  0.08320128  1
  N  N50  1  0.89049805  0.54113977  0.88335640  1
  N  N51  1  0.79505154  0.42245247  0.59933591  1
  N  N52  1  0.51984424  0.55760737  0.40895700  1
  N  N53  1  0.44141592  0.42809032  0.08289306  1
  N  N54  1  0.21880986  0.54291802  0.84049626  1
  N  N55  1  0.10193449  0.42827018  0.63461027  1
  N  N56  1  0.91187596  0.52412898  0.35397152  1
  N  N57  1  0.78216853  0.42141354  0.08661771  1
  N  N58  1  0.55668931  0.52997066  0.87389417  1
  N  N59  1  0.40273972  0.40194576  0.57103292  1
  N  N60  1  0.22617598  0.87417080  0.37241888  1
  N  N61  1  0.10590745  0.74439158  0.07211084  1
  N  N62  1  0.89212340  0.85820339  0.87213716  1
  N  N63  1  0.76222027  0.75145502  0.65591397  1
  N  N64  1  0.54230895  0.84580511  0.31801799  1
  N  N65  1  0.46363975  0.74993099  0.07207592  1
  N  N66  1  0.21898282  0.87574786  0.84090244  1
  N  N67  1  0.15235589  0.73812226  0.60003647  1
  N  N68  1  0.91072820  0.89360070  0.39884098  1
  N  N69  1  0.77751171  0.76025512  0.10581343  1
  N  N70  1  0.54566511  0.88017787  0.85176984  1
  N  N71  1  0.43061640  0.79578336  0.60107757  1
