# generated using pymatgen
data_Gd2Al7N9
_symmetry_space_group_name_H-M   'P 1'
_cell_length_a   9.93125814
_cell_length_b   9.89529631
_cell_length_c   10.51560224
_cell_angle_alpha   89.71018755
_cell_angle_beta   90.44876276
_cell_angle_gamma   59.86484279
_symmetry_Int_Tables_number   1
_chemical_formula_structural   Gd2Al7N9
_chemical_formula_sum   'Gd8 Al28 N36'
_cell_volume   893.65105786
_cell_formula_units_Z   4
loop_
 _symmetry_equiv_pos_site_id
 _symmetry_equiv_pos_as_xyz
  1  'x, y, z'
loop_
 _atom_site_type_symbol
 _atom_site_label
 _atom_site_symmetry_multiplicity
 _atom_site_fract_x
 _atom_site_fract_y
 _atom_site_fract_z
 _atom_site_occupancy
  Al  Al0  1  0.11452981  0.08403440  0.40378951  1
  Al  Al1  1  0.21982722  0.20779549  0.14136691  1
  Al  Al2  1  0.89426065  0.22178531  0.65836374  1
  Al  Al3  1  0.55122160  0.21388561  0.14131170  1
  Al  Al4  1  0.11810393  0.10086306  0.89575364  1
  Al  Al5  1  0.21910138  0.20616592  0.66413370  1
  Al  Al6  1  0.80142358  0.07330623  0.30809309  1
  Al  Al7  1  0.90774765  0.20113362  0.13497744  1
  Al  Al8  1  0.43404129  0.10007290  0.90552746  1
  Al  Al9  1  0.52890556  0.21638412  0.66121811  1
  Al  Al10  1  0.22035524  0.54023630  0.14186600  1
  Al  Al11  1  0.79346689  0.42897636  0.90002368  1
  Al  Al12  1  0.89105658  0.53177905  0.66518176  1
  Al  Al13  1  0.43708714  0.43371778  0.39515017  1
  Al  Al14  1  0.56161978  0.53334565  0.06909178  1
  Al  Al15  1  0.11375285  0.42746701  0.89752685  1
  Al  Al16  1  0.21909728  0.53152645  0.65762512  1
  Al  Al17  1  0.89563331  0.53549814  0.13377950  1
  Al  Al18  1  0.42418438  0.43204915  0.90151008  1
  Al  Al19  1  0.13115948  0.75595070  0.41218914  1
  Al  Al20  1  0.77294918  0.76114734  0.84459851  1
  Al  Al21  1  0.43178766  0.77049713  0.41764901  1
  Al  Al22  1  0.55868192  0.86406098  0.13948217  1
  Al  Al23  1  0.11810032  0.75468505  0.89298360  1
  Al  Al24  1  0.22452338  0.87920629  0.65098386  1
  Al  Al25  1  0.88745510  0.85574354  0.06796297  1
  Al  Al26  1  0.44267504  0.76948589  0.89413368  1
  Al  Al27  1  0.54058133  0.88439830  0.66455268  1
  Gd  Gd28  1  0.76408090  0.12275865  0.88039349  1
  Gd  Gd29  1  0.45430837  0.09345933  0.39390141  1
  Gd  Gd30  1  0.12317170  0.42190403  0.40442973  1
  Gd  Gd31  1  0.77270125  0.40402032  0.37844448  1
  Gd  Gd32  1  0.54472728  0.53111658  0.63373177  1
  Gd  Gd33  1  0.22643964  0.86803831  0.15658495  1
  Gd  Gd34  1  0.88722278  0.89481087  0.61773323  1
  Gd  Gd35  1  0.77660689  0.75056163  0.37704759  1
  N  N36  1  0.21425109  0.18592238  0.32318439  1
  N  N37  1  0.10992763  0.11309431  0.07289122  1
  N  N38  1  0.91353217  0.22764330  0.83783250  1
  N  N39  1  0.74502586  0.15321216  0.65100509  1
  N  N40  1  0.57848037  0.22592512  0.31950685  1
  N  N41  1  0.44568839  0.09536652  0.09348522  1
  N  N42  1  0.22363004  0.20619493  0.84592115  1
  N  N43  1  0.10560251  0.09952398  0.59360399  1
  N  N44  1  0.92797661  0.15889755  0.31012943  1
  N  N45  1  0.78521560  0.08218780  0.11170639  1
  N  N46  1  0.50797295  0.22937323  0.84351818  1
  N  N47  1  0.43748097  0.09512722  0.61199125  1
  N  N48  1  0.23219916  0.55725980  0.32138804  1
  N  N49  1  0.11780160  0.42571345  0.08446473  1
  N  N50  1  0.89099679  0.54092683  0.85133494  1
  N  N51  1  0.80287359  0.42391174  0.59318430  1
  N  N52  1  0.52282974  0.55830132  0.40508135  1
  N  N53  1  0.44084732  0.42984118  0.08245656  1
  N  N54  1  0.21821712  0.54290317  0.83987167  1
  N  N55  1  0.10332319  0.42952286  0.62352643  1
  N  N56  1  0.90094649  0.51616675  0.31000384  1
  N  N57  1  0.78401123  0.41948115  0.08560314  1
  N  N58  1  0.55869366  0.53146452  0.87308977  1
  N  N59  1  0.40826308  0.40375267  0.57316803  1
  N  N60  1  0.22360042  0.87200906  0.37079681  1
  N  N61  1  0.10663886  0.74494326  0.07335033  1
  N  N62  1  0.89311169  0.85773497  0.87171055  1
  N  N63  1  0.76204787  0.75518169  0.63741008  1
  N  N64  1  0.52984494  0.85782880  0.31960059  1
  N  N65  1  0.46771866  0.75034245  0.07223053  1
  N  N66  1  0.22046357  0.87604362  0.84130451  1
  N  N67  1  0.15232366  0.73852138  0.59784392  1
  N  N68  1  0.90608991  0.88161891  0.39406298  1
  N  N69  1  0.77747179  0.75909652  0.11578617  1
  N  N70  1  0.54833386  0.88121444  0.84806029  1
  N  N71  1  0.43087725  0.79561166  0.60072051  1
