# generated using pymatgen
data_Gd2Al7N9
_symmetry_space_group_name_H-M   'P 1'
_cell_length_a   9.89957534
_cell_length_b   9.90057123
_cell_length_c   10.58868761
_cell_angle_alpha   91.08317839
_cell_angle_beta   91.18673140
_cell_angle_gamma   59.91242081
_symmetry_Int_Tables_number   1
_chemical_formula_structural   Gd2Al7N9
_chemical_formula_sum   'Gd8 Al28 N36'
_cell_volume   897.74172036
_cell_formula_units_Z   4
loop_
 _symmetry_equiv_pos_site_id
 _symmetry_equiv_pos_as_xyz
  1  'x, y, z'
loop_
 _atom_site_type_symbol
 _atom_site_label
 _atom_site_symmetry_multiplicity
 _atom_site_fract_x
 _atom_site_fract_y
 _atom_site_fract_z
 _atom_site_occupancy
  Al  Al0  1  0.11105910  0.09283266  0.31815441  1
  Al  Al1  1  0.23055350  0.21633911  0.04935094  1
  Al  Al2  1  0.89252019  0.19758010  0.56274704  1
  Al  Al3  1  0.55990196  0.22123656  0.11996941  1
  Al  Al4  1  0.11002621  0.10259066  0.81128646  1
  Al  Al5  1  0.21105302  0.19672194  0.57282752  1
  Al  Al6  1  0.80629815  0.08375895  0.29562519  1
  Al  Al7  1  0.90477773  0.22601098  0.05706874  1
  Al  Al8  1  0.43184824  0.09398330  0.80267362  1
  Al  Al9  1  0.53365962  0.20991048  0.62987719  1
  Al  Al10  1  0.22885625  0.54321394  0.11394499  1
  Al  Al11  1  0.79697519  0.42317772  0.80612984  1
  Al  Al12  1  0.88708329  0.52676163  0.56985658  1
  Al  Al13  1  0.43124861  0.43591643  0.37028575  1
  Al  Al14  1  0.57187410  0.54193780  0.03202302  1
  Al  Al15  1  0.11040111  0.42409372  0.80964672  1
  Al  Al16  1  0.22014587  0.52378361  0.61904080  1
  Al  Al17  1  0.89476145  0.54393110  0.03559626  1
  Al  Al18  1  0.42695505  0.43151018  0.87408326  1
  Al  Al19  1  0.12918068  0.75717935  0.37254848  1
  Al  Al20  1  0.77560371  0.75398638  0.80616941  1
  Al  Al21  1  0.42338978  0.76933953  0.36142997  1
  Al  Al22  1  0.56466473  0.88343928  0.03861028  1
  Al  Al23  1  0.11630449  0.74649494  0.86808035  1
  Al  Al24  1  0.21986863  0.86637175  0.64251737  1
  Al  Al25  1  0.89320656  0.86273826  0.04126567  1
  Al  Al26  1  0.44835877  0.76763097  0.83109980  1
  Al  Al27  1  0.54775774  0.86223970  0.57932237  1
  Gd  Gd28  1  0.76666926  0.11315442  0.84241561  1
  Gd  Gd29  1  0.45427541  0.10482592  0.35252536  1
  Gd  Gd30  1  0.10501920  0.41296426  0.30214477  1
  Gd  Gd31  1  0.75032918  0.41804015  0.31093426  1
  Gd  Gd32  1  0.54054355  0.52429822  0.60603554  1
  Gd  Gd33  1  0.22624412  0.88131800  0.08992177  1
  Gd  Gd34  1  0.88626980  0.87345004  0.57815212  1
  Gd  Gd35  1  0.76878529  0.75866908  0.29933720  1
  N  N36  1  0.21246150  0.18542502  0.39766214  1
  N  N37  1  0.10248341  0.14774714  0.13721322  1
  N  N38  1  0.91317299  0.22450092  0.87991378  1
  N  N39  1  0.75224135  0.13126224  0.62055305  1
  N  N40  1  0.58764039  0.24153981  0.29531596  1
  N  N41  1  0.45143803  0.09982003  0.10967951  1
  N  N42  1  0.22474185  0.20144371  0.86534796  1
  N  N43  1  0.10384307  0.08891630  0.63051956  1
  N  N44  1  0.91045420  0.17258889  0.38181153  1
  N  N45  1  0.80049276  0.09029240  0.09403866  1
  N  N46  1  0.50887416  0.23233490  0.80981998  1
  N  N47  1  0.43778652  0.08269914  0.61632684  1
  N  N48  1  0.23133485  0.55331293  0.29560422  1
  N  N49  1  0.11565079  0.43519477  0.08186331  1
  N  N50  1  0.89211334  0.54024063  0.85737091  1
  N  N51  1  0.80405943  0.40484582  0.62512277  1
  N  N52  1  0.51575262  0.56429985  0.39101203  1
  N  N53  1  0.44746008  0.43397178  0.05349480  1
  N  N54  1  0.22409768  0.54154863  0.80316257  1
  N  N55  1  0.10338341  0.41707316  0.62461062  1
  N  N56  1  0.87915874  0.53328979  0.39163443  1
  N  N57  1  0.77999264  0.44221535  0.09610123  1
  N  N58  1  0.56579296  0.52843775  0.84635250  1
  N  N59  1  0.40969308  0.38886965  0.53926254  1
  N  N60  1  0.21861537  0.87343123  0.31399384  1
  N  N61  1  0.10974500  0.74143515  0.04666894  1
  N  N62  1  0.89559163  0.85163353  0.84600917  1
  N  N63  1  0.76270065  0.74074645  0.62654957  1
  N  N64  1  0.54024978  0.85963412  0.39811102  1
  N  N65  1  0.47866666  0.75457831  0.06037457  1
  N  N66  1  0.21265170  0.87341277  0.83572512  1
  N  N67  1  0.15488298  0.73288840  0.56030330  1
  N  N68  1  0.90104476  0.87813751  0.35734075  1
  N  N69  1  0.78267179  0.76361852  0.08321690  1
  N  N70  1  0.55889860  0.88424628  0.85842213  1
  N  N71  1  0.43265160  0.78088257  0.64530907  1
