# generated using pymatgen
data_Gd2Al7N9
_symmetry_space_group_name_H-M   'P 1'
_cell_length_a   9.86542303
_cell_length_b   9.90821277
_cell_length_c   10.76586577
_cell_angle_alpha   90.62704565
_cell_angle_beta   90.65734239
_cell_angle_gamma   59.41087832
_symmetry_Int_Tables_number   1
_chemical_formula_structural   Gd2Al7N9
_chemical_formula_sum   'Gd8 Al28 N36'
_cell_volume   905.82757546
_cell_formula_units_Z   4
loop_
 _symmetry_equiv_pos_site_id
 _symmetry_equiv_pos_as_xyz
  1  'x, y, z'
loop_
 _atom_site_type_symbol
 _atom_site_label
 _atom_site_symmetry_multiplicity
 _atom_site_fract_x
 _atom_site_fract_y
 _atom_site_fract_z
 _atom_site_occupancy
  Al  Al0  1  0.12089260  0.08242514  0.41809962  1
  Al  Al1  1  0.22379239  0.20751742  0.15651600  1
  Al  Al2  1  0.88229214  0.20622448  0.58563824  1
  Al  Al3  1  0.55584074  0.21502798  0.14363384  1
  Al  Al4  1  0.12169324  0.09675409  0.90656294  1
  Al  Al5  1  0.20978672  0.19625935  0.65984840  1
  Al  Al6  1  0.80388954  0.08889498  0.31695293  1
  Al  Al7  1  0.89702827  0.21653361  0.07347724  1
  Al  Al8  1  0.43051242  0.09866423  0.84678144  1
  Al  Al9  1  0.52535683  0.21563817  0.65582164  1
  Al  Al10  1  0.22217275  0.54030323  0.14565995  1
  Al  Al11  1  0.79624111  0.42277867  0.83237539  1
  Al  Al12  1  0.87753303  0.53625998  0.59879174  1
  Al  Al13  1  0.44380133  0.43748238  0.39015887  1
  Al  Al14  1  0.57177530  0.53203731  0.05697976  1
  Al  Al15  1  0.10371618  0.43154031  0.82848687  1
  Al  Al16  1  0.21769357  0.53338527  0.64902640  1
  Al  Al17  1  0.90154155  0.53358591  0.06774473  1
  Al  Al18  1  0.42217359  0.43264737  0.90148982  1
  Al  Al19  1  0.13297562  0.76144946  0.40772080  1
  Al  Al20  1  0.77631299  0.75290845  0.83802224  1
  Al  Al21  1  0.43222811  0.76825203  0.43933744  1
  Al  Al22  1  0.56104644  0.88222810  0.06126677  1
  Al  Al23  1  0.11790492  0.75170224  0.89422610  1
  Al  Al24  1  0.21647006  0.87686448  0.66314226  1
  Al  Al25  1  0.89245348  0.86131636  0.06297113  1
  Al  Al26  1  0.44155166  0.76569541  0.88705246  1
  Al  Al27  1  0.55293835  0.86652982  0.60900141  1
  Gd  Gd28  1  0.76433364  0.11132129  0.86115175  1
  Gd  Gd29  1  0.45450168  0.10974203  0.40133789  1
  Gd  Gd30  1  0.13069506  0.43076041  0.39450735  1
  Gd  Gd31  1  0.76907601  0.42369702  0.33353313  1
  Gd  Gd32  1  0.53985944  0.52097757  0.63383032  1
  Gd  Gd33  1  0.23470483  0.86172274  0.15772683  1
  Gd  Gd34  1  0.87656780  0.87852101  0.59668963  1
  Gd  Gd35  1  0.77591349  0.76201484  0.31734334  1
  N  N36  1  0.21192431  0.18447807  0.33821884  1
  N  N37  1  0.11986687  0.10918381  0.08466317  1
  N  N38  1  0.90264726  0.22311401  0.89715769  1
  N  N39  1  0.74560417  0.13748901  0.64405786  1
  N  N40  1  0.58116062  0.23622577  0.31613498  1
  N  N41  1  0.45139816  0.09657324  0.11832967  1
  N  N42  1  0.21200892  0.20602005  0.83792138  1
  N  N43  1  0.11016663  0.08804949  0.60143682  1
  N  N44  1  0.90104218  0.18021292  0.40568032  1
  N  N45  1  0.79774952  0.08743617  0.11783847  1
  N  N46  1  0.50273027  0.23655617  0.83197516  1
  N  N47  1  0.43664946  0.08734833  0.63314102  1
  N  N48  1  0.24153509  0.56877251  0.31882139  1
  N  N49  1  0.10923771  0.43151852  0.13921120  1
  N  N50  1  0.89413451  0.53655379  0.88848288  1
  N  N51  1  0.80407453  0.40812399  0.65496562  1
  N  N52  1  0.53562438  0.55467054  0.41920170  1
  N  N53  1  0.44491454  0.42932282  0.07693703  1
  N  N54  1  0.21997781  0.54453911  0.82811303  1
  N  N55  1  0.10020659  0.42687200  0.64041036  1
  N  N56  1  0.88151904  0.54504061  0.42493170  1
  N  N57  1  0.78109928  0.43261169  0.11786864  1
  N  N58  1  0.56016196  0.52989371  0.86986937  1
  N  N59  1  0.40097512  0.39252727  0.55717274  1
  N  N60  1  0.23081102  0.87354573  0.37053849  1
  N  N61  1  0.11314728  0.73996013  0.07013576  1
  N  N62  1  0.89534508  0.85085582  0.87502882  1
  N  N63  1  0.76255195  0.74299128  0.66309587  1
  N  N64  1  0.55594550  0.86057815  0.42681641  1
  N  N65  1  0.47115388  0.75091851  0.06793676  1
  N  N66  1  0.21497037  0.87605886  0.84584419  1
  N  N67  1  0.14545164  0.73924159  0.59094104  1
  N  N68  1  0.90490664  0.88166525  0.38104546  1
  N  N69  1  0.78020940  0.76048832  0.10316148  1
  N  N70  1  0.55239632  0.88281546  0.88019305  1
  N  N71  1  0.42636957  0.78142786  0.62377097  1
