# generated using pymatgen
data_Gd2Al7N9
_symmetry_space_group_name_H-M   'P 1'
_cell_length_a   9.85255034
_cell_length_b   9.86080184
_cell_length_c   10.51331241
_cell_angle_alpha   90.56808505
_cell_angle_beta   90.76240952
_cell_angle_gamma   60.58999325
_symmetry_Int_Tables_number   1
_chemical_formula_structural   Gd2Al7N9
_chemical_formula_sum   'Gd8 Al28 N36'
_cell_volume   889.69417210
_cell_formula_units_Z   4
loop_
 _symmetry_equiv_pos_site_id
 _symmetry_equiv_pos_as_xyz
  1  'x, y, z'
loop_
 _atom_site_type_symbol
 _atom_site_label
 _atom_site_symmetry_multiplicity
 _atom_site_fract_x
 _atom_site_fract_y
 _atom_site_fract_z
 _atom_site_occupancy
  Al  Al0  1  0.10767637  0.09184539  0.32151121  1
  Al  Al1  1  0.22301714  0.21385586  0.04096489  1
  Al  Al2  1  0.89680865  0.19677159  0.56042958  1
  Al  Al3  1  0.55186782  0.21204388  0.05577614  1
  Al  Al4  1  0.11852635  0.09393963  0.80356437  1
  Al  Al5  1  0.21834214  0.20328192  0.57322618  1
  Al  Al6  1  0.78836174  0.08731235  0.29841354  1
  Al  Al7  1  0.90042229  0.21987128  0.05647872  1
  Al  Al8  1  0.44112174  0.09903044  0.80621230  1
  Al  Al9  1  0.55652825  0.20021126  0.56165779  1
  Al  Al10  1  0.21806432  0.54269416  0.04772956  1
  Al  Al11  1  0.80072758  0.42046128  0.81022609  1
  Al  Al12  1  0.89006026  0.52701477  0.57380486  1
  Al  Al13  1  0.43061369  0.43562260  0.38716596  1
  Al  Al14  1  0.56716800  0.54883358  0.04662665  1
  Al  Al15  1  0.11602816  0.42873680  0.80706806  1
  Al  Al16  1  0.21287156  0.53673240  0.56361172  1
  Al  Al17  1  0.89522117  0.53956272  0.03303002  1
  Al  Al18  1  0.43975171  0.43490581  0.87332290  1
  Al  Al19  1  0.10908229  0.75880414  0.30495281  1
  Al  Al20  1  0.77869421  0.75220960  0.81154291  1
  Al  Al21  1  0.43681571  0.75945249  0.32017991  1
  Al  Al22  1  0.56263851  0.87578876  0.04210223  1
  Al  Al23  1  0.12532820  0.75277442  0.80397369  1
  Al  Al24  1  0.22180156  0.87613259  0.55973304  1
  Al  Al25  1  0.89862900  0.85844344  0.04740848  1
  Al  Al26  1  0.43491260  0.78097074  0.80830631  1
  Al  Al27  1  0.54532059  0.87403895  0.57223596  1
  Gd  Gd28  1  0.78038713  0.10029584  0.82635299  1
  Gd  Gd29  1  0.44003410  0.09461937  0.31404567  1
  Gd  Gd30  1  0.10192714  0.42051122  0.30230555  1
  Gd  Gd31  1  0.75408581  0.41315199  0.30857762  1
  Gd  Gd32  1  0.55005620  0.54173368  0.59995347  1
  Gd  Gd33  1  0.22579945  0.87909921  0.07593635  1
  Gd  Gd34  1  0.88916021  0.86564777  0.56065278  1
  Gd  Gd35  1  0.76205394  0.75153046  0.29363593  1
  N  N36  1  0.20737727  0.19238913  0.39663654  1
  N  N37  1  0.10254980  0.13575878  0.13638105  1
  N  N38  1  0.91887578  0.21730717  0.87866323  1
  N  N39  1  0.76390929  0.11782887  0.61419348  1
  N  N40  1  0.57714435  0.21874482  0.36047573  1
  N  N41  1  0.44466162  0.09595236  0.09509124  1
  N  N42  1  0.22596786  0.20378517  0.85607997  1
  N  N43  1  0.10885992  0.08856175  0.62144639  1
  N  N44  1  0.90530880  0.16968025  0.37902912  1
  N  N45  1  0.78543527  0.09789967  0.10055602  1
  N  N46  1  0.52870734  0.21831033  0.87217849  1
  N  N47  1  0.44743718  0.09369372  0.61880368  1
  N  N48  1  0.21066638  0.55680700  0.37772487  1
  N  N49  1  0.11401407  0.42966302  0.08183645  1
  N  N50  1  0.89747509  0.53694914  0.85490042  1
  N  N51  1  0.81127273  0.39934639  0.62942844  1
  N  N52  1  0.51756001  0.56149712  0.38044743  1
  N  N53  1  0.44730340  0.44116278  0.06420779  1
  N  N54  1  0.22129106  0.54355253  0.86189305  1
  N  N55  1  0.10948964  0.42753887  0.62267243  1
  N  N56  1  0.87590498  0.53008648  0.39446949  1
  N  N57  1  0.78201006  0.43802484  0.09239595  1
  N  N58  1  0.56024079  0.54729799  0.85211619  1
  N  N59  1  0.42450598  0.40852057  0.57334852  1
  N  N60  1  0.21726915  0.87197112  0.35663417  1
  N  N61  1  0.10236682  0.74412596  0.12126060  1
  N  N62  1  0.91136078  0.84137592  0.85947426  1
  N  N63  1  0.75876708  0.74262297  0.62927196  1
  N  N64  1  0.53733373  0.86102516  0.39353558  1
  N  N65  1  0.48464382  0.75182710  0.12962008  1
  N  N66  1  0.22088974  0.87694072  0.86090855  1
  N  N67  1  0.14248288  0.74500273  0.62262278  1
  N  N68  1  0.89233832  0.87658352  0.34505266  1
  N  N69  1  0.78103812  0.75917208  0.07653212  1
  N  N70  1  0.55369900  0.87891855  0.86180215  1
  N  N71  1  0.41896607  0.79954224  0.63183019  1
