# generated using pymatgen
data_Gd2Al7N9
_symmetry_space_group_name_H-M   'P 1'
_cell_length_a   9.87183522
_cell_length_b   9.86822299
_cell_length_c   10.83734034
_cell_angle_alpha   91.20212044
_cell_angle_beta   91.24836430
_cell_angle_gamma   59.74538960
_symmetry_Int_Tables_number   1
_chemical_formula_structural   Gd2Al7N9
_chemical_formula_sum   'Gd8 Al28 N36'
_cell_volume   911.67072120
_cell_formula_units_Z   4
loop_
 _symmetry_equiv_pos_site_id
 _symmetry_equiv_pos_as_xyz
  1  'x, y, z'
loop_
 _atom_site_type_symbol
 _atom_site_label
 _atom_site_symmetry_multiplicity
 _atom_site_fract_x
 _atom_site_fract_y
 _atom_site_fract_z
 _atom_site_occupancy
  Al  Al0  1  0.11298097  0.07464010  0.43018083  1
  Al  Al1  1  0.23637682  0.21695602  0.06143674  1
  Al  Al2  1  0.87794762  0.20715776  0.58764627  1
  Al  Al3  1  0.56367649  0.21916999  0.13986012  1
  Al  Al4  1  0.11927301  0.09486477  0.89665076  1
  Al  Al5  1  0.21368866  0.20325191  0.59622464  1
  Al  Al6  1  0.80525705  0.08546855  0.31665186  1
  Al  Al7  1  0.89937320  0.21957396  0.06898995  1
  Al  Al8  1  0.43008435  0.09624921  0.82091880  1
  Al  Al9  1  0.52777350  0.21337587  0.64944353  1
  Al  Al10  1  0.23021750  0.54248634  0.13723924  1
  Al  Al11  1  0.79569267  0.42447081  0.82510909  1
  Al  Al12  1  0.88267301  0.53133820  0.59147483  1
  Al  Al13  1  0.43595138  0.43301290  0.39462292  1
  Al  Al14  1  0.57518766  0.53523081  0.05140665  1
  Al  Al15  1  0.10801295  0.42612570  0.82485471  1
  Al  Al16  1  0.21663540  0.52859372  0.64334042  1
  Al  Al17  1  0.89770774  0.53934423  0.05727203  1
  Al  Al18  1  0.42509611  0.43169621  0.89485032  1
  Al  Al19  1  0.13368312  0.75345713  0.40256973  1
  Al  Al20  1  0.77763809  0.75298738  0.82840377  1
  Al  Al21  1  0.42531129  0.77084006  0.43708641  1
  Al  Al22  1  0.56715312  0.88298172  0.05429839  1
  Al  Al23  1  0.12040759  0.74952421  0.89160029  1
  Al  Al24  1  0.21598065  0.87577465  0.66290439  1
  Al  Al25  1  0.89588743  0.86226682  0.06020086  1
  Al  Al26  1  0.44401879  0.76766292  0.88492317  1
  Al  Al27  1  0.55129133  0.87086817  0.60013846  1
  Gd  Gd28  1  0.76505972  0.10928086  0.85521367  1
  Gd  Gd29  1  0.44757969  0.09962110  0.35143152  1
  Gd  Gd30  1  0.10851500  0.41998694  0.33338327  1
  Gd  Gd31  1  0.75176689  0.42279397  0.33220291  1
  Gd  Gd32  1  0.53432966  0.52763905  0.63210299  1
  Gd  Gd33  1  0.23662908  0.86981422  0.15282547  1
  Gd  Gd34  1  0.88122582  0.87580388  0.59047050  1
  Gd  Gd35  1  0.77217211  0.75963381  0.31619255  1
  N  N36  1  0.21211136  0.19095993  0.42075507  1
  N  N37  1  0.11993117  0.11303527  0.08039934  1
  N  N38  1  0.90184601  0.22580652  0.89263013  1
  N  N39  1  0.74709105  0.13196412  0.64118202  1
  N  N40  1  0.58317414  0.23749273  0.31381467  1
  N  N41  1  0.45423418  0.09716284  0.12340515  1
  N  N42  1  0.22479651  0.21066846  0.88068322  1
  N  N43  1  0.10140897  0.08633024  0.61156759  1
  N  N44  1  0.89765046  0.18080607  0.40658102  1
  N  N45  1  0.79987446  0.09015569  0.11585232  1
  N  N46  1  0.50711049  0.23517565  0.82706957  1
  N  N47  1  0.43426018  0.08619044  0.64240958  1
  N  N48  1  0.23747430  0.55744360  0.31548539  1
  N  N49  1  0.11621602  0.43023811  0.11557548  1
  N  N50  1  0.89348064  0.53832349  0.88161807  1
  N  N51  1  0.79876800  0.41174609  0.64934446  1
  N  N52  1  0.52292689  0.55808263  0.41705174  1
  N  N53  1  0.44881081  0.43071434  0.07184751  1
  N  N54  1  0.22239766  0.54424630  0.82461171  1
  N  N55  1  0.09941315  0.42244032  0.64606473  1
  N  N56  1  0.87877897  0.53927637  0.41670416  1
  N  N57  1  0.78353530  0.43597983  0.11669373  1
  N  N58  1  0.56184684  0.53235806  0.86686124  1
  N  N59  1  0.40469793  0.39305137  0.56062788  1
  N  N60  1  0.22542307  0.87436036  0.36462982  1
  N  N61  1  0.11686036  0.74343563  0.06817094  1
  N  N62  1  0.89838966  0.84849679  0.87418125  1
  N  N63  1  0.76260872  0.74337947  0.65363722  1
  N  N64  1  0.55058420  0.86294017  0.42006596  1
  N  N65  1  0.47425383  0.75440420  0.06478506  1
  N  N66  1  0.21858512  0.87354971  0.84387405  1
  N  N67  1  0.14858269  0.73502564  0.58566675  1
  N  N68  1  0.90581740  0.87733896  0.37630878  1
  N  N69  1  0.78361226  0.76208357  0.10261107  1
  N  N70  1  0.55612336  0.88404620  0.87623009  1
  N  N71  1  0.42248408  0.78767956  0.61754666  1
