# generated using pymatgen
data_Gd2Al7N9
_symmetry_space_group_name_H-M   'P 1'
_cell_length_a   9.85636103
_cell_length_b   9.86987998
_cell_length_c   10.71423952
_cell_angle_alpha   91.55147610
_cell_angle_beta   91.65992797
_cell_angle_gamma   59.94097515
_symmetry_Int_Tables_number   1
_chemical_formula_structural   Gd2Al7N9
_chemical_formula_sum   'Gd8 Al28 N36'
_cell_volume   901.64119458
_cell_formula_units_Z   4
loop_
 _symmetry_equiv_pos_site_id
 _symmetry_equiv_pos_as_xyz
  1  'x, y, z'
loop_
 _atom_site_type_symbol
 _atom_site_label
 _atom_site_symmetry_multiplicity
 _atom_site_fract_x
 _atom_site_fract_y
 _atom_site_fract_z
 _atom_site_occupancy
  Al  Al0  1  0.10943136  0.08849860  0.33452810  1
  Al  Al1  1  0.23106108  0.21582110  0.04017652  1
  Al  Al2  1  0.88802549  0.20081959  0.56322615  1
  Al  Al3  1  0.56272941  0.22187740  0.11577737  1
  Al  Al4  1  0.11126241  0.10163520  0.80590361  1
  Al  Al5  1  0.21216980  0.19898506  0.57190575  1
  Al  Al6  1  0.80498659  0.08125432  0.29364607  1
  Al  Al7  1  0.90911511  0.22532188  0.05495032  1
  Al  Al8  1  0.43164184  0.09478857  0.79845037  1
  Al  Al9  1  0.53116993  0.21157545  0.62768896  1
  Al  Al10  1  0.22903149  0.54357028  0.11080544  1
  Al  Al11  1  0.79730796  0.42389665  0.80245160  1
  Al  Al12  1  0.88737262  0.52585586  0.56636367  1
  Al  Al13  1  0.42919902  0.43158030  0.37056271  1
  Al  Al14  1  0.57568426  0.53925949  0.02859808  1
  Al  Al15  1  0.10980023  0.42603837  0.80806535  1
  Al  Al16  1  0.21728697  0.52462338  0.61884124  1
  Al  Al17  1  0.89490456  0.54708148  0.02867670  1
  Al  Al18  1  0.42638245  0.43242722  0.87167491  1
  Al  Al19  1  0.12946604  0.74965496  0.37268038  1
  Al  Al20  1  0.77698983  0.75504136  0.80046205  1
  Al  Al21  1  0.41960578  0.77128317  0.40663141  1
  Al  Al22  1  0.56835822  0.88633514  0.02956791  1
  Al  Al23  1  0.12028688  0.74970971  0.86655985  1
  Al  Al24  1  0.21844730  0.86776069  0.63442514  1
  Al  Al25  1  0.89600112  0.86535989  0.03796683  1
  Al  Al26  1  0.44593001  0.76773277  0.85838796  1
  Al  Al27  1  0.55108525  0.86976880  0.57240033  1
  Gd  Gd28  1  0.76754001  0.11356858  0.83797412  1
  Gd  Gd29  1  0.44919429  0.09942541  0.33014523  1
  Gd  Gd30  1  0.10004817  0.40371917  0.28966675  1
  Gd  Gd31  1  0.74519903  0.41696990  0.30809553  1
  Gd  Gd32  1  0.53702280  0.52614935  0.60571434  1
  Gd  Gd33  1  0.23566988  0.87568303  0.11467719  1
  Gd  Gd34  1  0.88245357  0.87641262  0.56917612  1
  Gd  Gd35  1  0.77241598  0.75114276  0.29300209  1
  N  N36  1  0.21211743  0.18668655  0.39925892  1
  N  N37  1  0.10797223  0.14580475  0.13766959  1
  N  N38  1  0.91511956  0.22511785  0.87865315  1
  N  N39  1  0.75051573  0.13253293  0.62071786  1
  N  N40  1  0.58485165  0.23687139  0.29178120  1
  N  N41  1  0.45287110  0.10023886  0.09833112  1
  N  N42  1  0.22477075  0.20168464  0.86016678  1
  N  N43  1  0.10061701  0.09184149  0.62722203  1
  N  N44  1  0.90461393  0.17266655  0.38437822  1
  N  N45  1  0.80201866  0.09307899  0.09323839  1
  N  N46  1  0.50897470  0.23339625  0.80761291  1
  N  N47  1  0.43640647  0.08468283  0.61720108  1
  N  N48  1  0.22867233  0.54684295  0.29129900  1
  N  N49  1  0.11670938  0.43606755  0.07119490  1
  N  N50  1  0.89032749  0.54287297  0.85354078  1
  N  N51  1  0.80129243  0.40776099  0.62445052  1
  N  N52  1  0.51529037  0.55864855  0.38850481  1
  N  N53  1  0.45016039  0.43483777  0.05041955  1
  N  N54  1  0.22352974  0.54389981  0.80190019  1
  N  N55  1  0.10192507  0.41750102  0.62596330  1
  N  N56  1  0.88138111  0.52714809  0.38979199  1
  N  N57  1  0.78270683  0.44476369  0.09437458  1
  N  N58  1  0.56429537  0.53082270  0.84238078  1
  N  N59  1  0.40742565  0.39099462  0.53938938  1
  N  N60  1  0.22209121  0.86962119  0.32784385  1
  N  N61  1  0.11533127  0.74604985  0.04495072  1
  N  N62  1  0.89763432  0.85233707  0.84727118  1
  N  N63  1  0.76357182  0.74161367  0.62365567  1
  N  N64  1  0.54728456  0.86080260  0.39046789  1
  N  N65  1  0.47672861  0.75739859  0.03967691  1
  N  N66  1  0.22140046  0.86912248  0.82116349  1
  N  N67  1  0.14950441  0.73148799  0.55818787  1
  N  N68  1  0.90171781  0.87472453  0.35201904  1
  N  N69  1  0.78344331  0.76663313  0.07823131  1
  N  N70  1  0.55821123  0.88309458  0.84958375  1
  N  N71  1  0.42168848  0.78724736  0.58928657  1
