# generated using pymatgen
data_Gd2Al7N9
_symmetry_space_group_name_H-M   'P 1'
_cell_length_a   9.80258942
_cell_length_b   9.94259729
_cell_length_c   10.77229846
_cell_angle_alpha   89.89956610
_cell_angle_beta   89.66227570
_cell_angle_gamma   58.94611479
_symmetry_Int_Tables_number   1
_chemical_formula_structural   Gd2Al7N9
_chemical_formula_sum   'Gd8 Al28 N36'
_cell_volume   899.41664602
_cell_formula_units_Z   4
loop_
 _symmetry_equiv_pos_site_id
 _symmetry_equiv_pos_as_xyz
  1  'x, y, z'
loop_
 _atom_site_type_symbol
 _atom_site_label
 _atom_site_symmetry_multiplicity
 _atom_site_fract_x
 _atom_site_fract_y
 _atom_site_fract_z
 _atom_site_occupancy
  Al  Al0  1  0.11877679  0.08479456  0.40984722  1
  Al  Al1  1  0.21402101  0.21213590  0.15764389  1
  Al  Al2  1  0.88745599  0.21417361  0.62991980  1
  Al  Al3  1  0.54791814  0.21504759  0.14048675  1
  Al  Al4  1  0.11887453  0.09736779  0.90395697  1
  Al  Al5  1  0.22456690  0.19068157  0.66534636  1
  Al  Al6  1  0.80076537  0.09095786  0.30830872  1
  Al  Al7  1  0.89122424  0.21808746  0.07668012  1
  Al  Al8  1  0.42619552  0.10181531  0.90913527  1
  Al  Al9  1  0.51954924  0.21846414  0.65927592  1
  Al  Al10  1  0.21505846  0.54106785  0.14905016  1
  Al  Al11  1  0.78518222  0.43291359  0.83980475  1
  Al  Al12  1  0.88236736  0.54057078  0.60515485  1
  Al  Al13  1  0.44681329  0.43102688  0.39159469  1
  Al  Al14  1  0.55988468  0.53526985  0.06002222  1
  Al  Al15  1  0.10646866  0.42787823  0.83153406  1
  Al  Al16  1  0.21766323  0.53915301  0.65614964  1
  Al  Al17  1  0.89508694  0.53419314  0.06202351  1
  Al  Al18  1  0.41800503  0.43398529  0.90193866  1
  Al  Al19  1  0.13723862  0.76072147  0.41414415  1
  Al  Al20  1  0.77465490  0.75492392  0.84335044  1
  Al  Al21  1  0.44993483  0.76297876  0.41551278  1
  Al  Al22  1  0.55567336  0.86233806  0.13522260  1
  Al  Al23  1  0.11639108  0.75522006  0.89315633  1
  Al  Al24  1  0.22270755  0.87951160  0.65364734  1
  Al  Al25  1  0.88272873  0.86375576  0.05481138  1
  Al  Al26  1  0.43641580  0.77256910  0.89695725  1
  Al  Al27  1  0.54212028  0.87884475  0.67092898  1
  Gd  Gd28  1  0.75461447  0.11672480  0.86874351  1
  Gd  Gd29  1  0.48259726  0.06494521  0.39437824  1
  Gd  Gd30  1  0.16180583  0.40311706  0.42251469  1
  Gd  Gd31  1  0.77970482  0.43316612  0.32830780  1
  Gd  Gd32  1  0.53625900  0.53335325  0.62698885  1
  Gd  Gd33  1  0.21386374  0.87221023  0.16130566  1
  Gd  Gd34  1  0.87443635  0.88811727  0.60235625  1
  Gd  Gd35  1  0.84271614  0.72491600  0.30484588  1
  N  N36  1  0.23079448  0.17259274  0.33389131  1
  N  N37  1  0.11471936  0.11346138  0.08022216  1
  N  N38  1  0.89841488  0.22508627  0.89083722  1
  N  N39  1  0.74391908  0.14759573  0.65153048  1
  N  N40  1  0.56948449  0.22674413  0.31446031  1
  N  N41  1  0.44343038  0.09687250  0.09297289  1
  N  N42  1  0.21748077  0.20146381  0.84176682  1
  N  N43  1  0.10760927  0.09699705  0.59781113  1
  N  N44  1  0.91464201  0.17982469  0.35106744  1
  N  N45  1  0.78695234  0.08766592  0.10975284  1
  N  N46  1  0.49239243  0.23444708  0.83733967  1
  N  N47  1  0.44334826  0.08742600  0.60885340  1
  N  N48  1  0.23272643  0.56680105  0.32463218  1
  N  N49  1  0.09910112  0.43586420  0.13801563  1
  N  N50  1  0.89237954  0.53784954  0.88707429  1
  N  N51  1  0.79914112  0.42198509  0.66338559  1
  N  N52  1  0.54014768  0.54686058  0.41376379  1
  N  N53  1  0.43733357  0.42924815  0.07850231  1
  N  N54  1  0.21533210  0.54824158  0.83246697  1
  N  N55  1  0.10747745  0.42418130  0.64883637  1
  N  N56  1  0.90516194  0.53166229  0.43444316  1
  N  N57  1  0.77287043  0.43594624  0.11059305  1
  N  N58  1  0.55069807  0.53624418  0.87295802  1
  N  N59  1  0.40169924  0.40154858  0.56440007  1
  N  N60  1  0.23451236  0.87105634  0.37151833  1
  N  N61  1  0.10500638  0.74213075  0.07126825  1
  N  N62  1  0.89175574  0.85565473  0.87209922  1
  N  N63  1  0.76554788  0.74807125  0.66342418  1
  N  N64  1  0.57155717  0.82629958  0.31527496  1
  N  N65  1  0.45720634  0.75539848  0.07166821  1
  N  N66  1  0.21533859  0.87728488  0.83980397  1
  N  N67  1  0.14808747  0.74329950  0.59517914  1
  N  N68  1  0.90203663  0.89179287  0.38814880  1
  N  N69  1  0.77619022  0.75934612  0.09475540  1
  N  N70  1  0.53973446  0.88420138  0.85059537  1
  N  N71  1  0.43297699  0.79521211  0.59746747  1
