# generated using pymatgen
data_Gd2Al7N9
_symmetry_space_group_name_H-M   'P 1'
_cell_length_a   9.85242705
_cell_length_b   9.91307575
_cell_length_c   10.76782120
_cell_angle_alpha   90.65004419
_cell_angle_beta   90.65411713
_cell_angle_gamma   59.42996301
_symmetry_Int_Tables_number   1
_chemical_formula_structural   Gd2Al7N9
_chemical_formula_sum   'Gd8 Al28 N36'
_cell_volume   905.41866167
_cell_formula_units_Z   4
loop_
 _symmetry_equiv_pos_site_id
 _symmetry_equiv_pos_as_xyz
  1  'x, y, z'
loop_
 _atom_site_type_symbol
 _atom_site_label
 _atom_site_symmetry_multiplicity
 _atom_site_fract_x
 _atom_site_fract_y
 _atom_site_fract_z
 _atom_site_occupancy
  Al  Al0  1  0.12193751  0.08232746  0.41800187  1
  Al  Al1  1  0.21983323  0.20999047  0.15412759  1
  Al  Al2  1  0.88276605  0.20634017  0.58623459  1
  Al  Al3  1  0.55622143  0.21723124  0.14002877  1
  Al  Al4  1  0.12080341  0.09692310  0.90528746  1
  Al  Al5  1  0.21819000  0.19156466  0.66347741  1
  Al  Al6  1  0.80332284  0.08902838  0.31660833  1
  Al  Al7  1  0.89621599  0.21687662  0.07264564  1
  Al  Al8  1  0.42614030  0.10987626  0.89413552  1
  Al  Al9  1  0.52156272  0.21389720  0.65843563  1
  Al  Al10  1  0.22140183  0.54101280  0.14596812  1
  Al  Al11  1  0.79576243  0.42338043  0.83208726  1
  Al  Al12  1  0.87880258  0.53534265  0.59962015  1
  Al  Al13  1  0.44346805  0.43623270  0.39045753  1
  Al  Al14  1  0.57151542  0.53225309  0.05669903  1
  Al  Al15  1  0.10366560  0.43148192  0.82835490  1
  Al  Al16  1  0.21740503  0.53395857  0.64951166  1
  Al  Al17  1  0.90136110  0.53354897  0.06707534  1
  Al  Al18  1  0.42228598  0.43395347  0.90070446  1
  Al  Al19  1  0.13286818  0.76118922  0.40818595  1
  Al  Al20  1  0.77464465  0.75432721  0.83683386  1
  Al  Al21  1  0.43314418  0.76675994  0.43874659  1
  Al  Al22  1  0.56533787  0.87451317  0.05974600  1
  Al  Al23  1  0.11766519  0.75201486  0.89419845  1
  Al  Al24  1  0.21644509  0.87722069  0.66255176  1
  Al  Al25  1  0.89208243  0.86192752  0.06245352  1
  Al  Al26  1  0.44122011  0.76692722  0.88572454  1
  Al  Al27  1  0.55174791  0.86827770  0.60951889  1
  Gd  Gd28  1  0.76413866  0.11121454  0.85919560  1
  Gd  Gd29  1  0.45653688  0.10655682  0.40429176  1
  Gd  Gd30  1  0.13469474  0.42642332  0.39768788  1
  Gd  Gd31  1  0.76994921  0.42382087  0.33362783  1
  Gd  Gd32  1  0.53994741  0.52035448  0.63347768  1
  Gd  Gd33  1  0.23377702  0.86257313  0.15806053  1
  Gd  Gd34  1  0.87567444  0.87974229  0.59656635  1
  Gd  Gd35  1  0.78073559  0.75803323  0.31860295  1
  N  N36  1  0.21518455  0.18149064  0.33366308  1
  N  N37  1  0.11897312  0.10896307  0.08359802  1
  N  N38  1  0.90173624  0.22383692  0.89666865  1
  N  N39  1  0.74397631  0.13861503  0.64435003  1
  N  N40  1  0.57864623  0.23416346  0.31333891  1
  N  N41  1  0.44649474  0.10325626  0.09064579  1
  N  N42  1  0.21473315  0.20556928  0.84104591  1
  N  N43  1  0.11134336  0.08897804  0.60194882  1
  N  N44  1  0.90098792  0.18033782  0.40560689  1
  N  N45  1  0.79707050  0.08794256  0.11736848  1
  N  N46  1  0.50113559  0.23576990  0.83461135  1
  N  N47  1  0.43583273  0.08890148  0.61874701  1
  N  N48  1  0.24037183  0.56812031  0.31945435  1
  N  N49  1  0.10877309  0.43215923  0.13783339  1
  N  N50  1  0.89315739  0.53771628  0.88824337  1
  N  N51  1  0.80397681  0.40823321  0.65501941  1
  N  N52  1  0.53589391  0.55305055  0.41851922  1
  N  N53  1  0.44427726  0.43083302  0.07656720  1
  N  N54  1  0.21971947  0.54532951  0.82836457  1
  N  N55  1  0.10151485  0.42550803  0.64181286  1
  N  N56  1  0.88508754  0.54170046  0.42583094  1
  N  N57  1  0.78096660  0.43271372  0.11771749  1
  N  N58  1  0.55976548  0.53072893  0.86969139  1
  N  N59  1  0.40115019  0.39323916  0.55843286  1
  N  N60  1  0.23085933  0.87313823  0.37074840  1
  N  N61  1  0.11278053  0.74048350  0.07046225  1
  N  N62  1  0.89485615  0.85093935  0.87550406  1
  N  N63  1  0.76253916  0.74318733  0.66208086  1
  N  N64  1  0.55831067  0.85671975  0.42322934  1
  N  N65  1  0.47047391  0.75049249  0.06824552  1
  N  N66  1  0.21440750  0.87635787  0.84539023  1
  N  N67  1  0.14478864  0.73975451  0.59106286  1
  N  N68  1  0.90462214  0.88272226  0.38127917  1
  N  N69  1  0.78075436  0.76044224  0.10481560  1
  N  N70  1  0.55182268  0.88367201  0.88017208  1
  N  N71  1  0.42667945  0.78118093  0.62295414  1
