# generated using pymatgen
data_Gd2Al7N9
_symmetry_space_group_name_H-M   'P 1'
_cell_length_a   9.93798766
_cell_length_b   9.93107179
_cell_length_c   10.58495412
_cell_angle_alpha   89.86693228
_cell_angle_beta   90.52261692
_cell_angle_gamma   59.34766522
_symmetry_Int_Tables_number   1
_chemical_formula_structural   Gd2Al7N9
_chemical_formula_sum   'Gd8 Al28 N36'
_cell_volume   898.64752391
_cell_formula_units_Z   4
loop_
 _symmetry_equiv_pos_site_id
 _symmetry_equiv_pos_as_xyz
  1  'x, y, z'
loop_
 _atom_site_type_symbol
 _atom_site_label
 _atom_site_symmetry_multiplicity
 _atom_site_fract_x
 _atom_site_fract_y
 _atom_site_fract_z
 _atom_site_occupancy
  Al  Al0  1  0.11311934  0.08800614  0.40443256  1
  Al  Al1  1  0.21938256  0.20725119  0.14333322  1
  Al  Al2  1  0.89107537  0.21946118  0.65859716  1
  Al  Al3  1  0.55079175  0.21190141  0.14194784  1
  Al  Al4  1  0.11695670  0.09924174  0.89784683  1
  Al  Al5  1  0.21695916  0.20294220  0.66765592  1
  Al  Al6  1  0.79906113  0.08454759  0.31204042  1
  Al  Al7  1  0.90598851  0.20437308  0.13603916  1
  Al  Al8  1  0.43432802  0.09703282  0.90641598  1
  Al  Al9  1  0.52509319  0.21504207  0.66081170  1
  Al  Al10  1  0.21959448  0.54013407  0.14208657  1
  Al  Al11  1  0.78854292  0.42754729  0.89168917  1
  Al  Al12  1  0.88480931  0.53914496  0.60326985  1
  Al  Al13  1  0.43857606  0.43253797  0.39340765  1
  Al  Al14  1  0.56055173  0.53231020  0.06876776  1
  Al  Al15  1  0.11802420  0.42291359  0.88874692  1
  Al  Al16  1  0.21640656  0.53232052  0.66114261  1
  Al  Al17  1  0.89496581  0.53974292  0.07070919  1
  Al  Al18  1  0.42404557  0.43034218  0.90317047  1
  Al  Al19  1  0.13467744  0.75913067  0.41560794  1
  Al  Al20  1  0.77643605  0.75374942  0.83772918  1
  Al  Al21  1  0.43732064  0.76931711  0.41817473  1
  Al  Al22  1  0.55356307  0.86404766  0.13556998  1
  Al  Al23  1  0.11790796  0.75507983  0.89198662  1
  Al  Al24  1  0.22288398  0.88042784  0.65088142  1
  Al  Al25  1  0.88694748  0.85981968  0.05955065  1
  Al  Al26  1  0.44044845  0.76968134  0.89467385  1
  Al  Al27  1  0.54028592  0.88150302  0.66792353  1
  Gd  Gd28  1  0.76179682  0.12197783  0.87731740  1
  Gd  Gd29  1  0.46135820  0.08107102  0.39505006  1
  Gd  Gd30  1  0.15228048  0.41059355  0.41778308  1
  Gd  Gd31  1  0.77141159  0.42207675  0.37528746  1
  Gd  Gd32  1  0.53712577  0.53138675  0.63280594  1
  Gd  Gd33  1  0.22284301  0.86733389  0.15915916  1
  Gd  Gd34  1  0.88200215  0.89057729  0.61372099  1
  Gd  Gd35  1  0.80342998  0.75866416  0.32483341  1
  N  N36  1  0.21728949  0.18326997  0.32308143  1
  N  N37  1  0.10926712  0.11249532  0.07424305  1
  N  N38  1  0.91242462  0.22459096  0.83772280  1
  N  N39  1  0.74274281  0.14865529  0.65299744  1
  N  N40  1  0.57358511  0.22424684  0.31960314  1
  N  N41  1  0.44669687  0.09275657  0.09350857  1
  N  N42  1  0.22402681  0.20110337  0.84766929  1
  N  N43  1  0.10372051  0.10047548  0.59408288  1
  N  N44  1  0.92349038  0.17105545  0.31165952  1
  N  N45  1  0.78492713  0.08325237  0.11269316  1
  N  N46  1  0.50392268  0.22901933  0.84296574  1
  N  N47  1  0.43616750  0.09255562  0.61239872  1
  N  N48  1  0.22985458  0.56441977  0.31976234  1
  N  N49  1  0.12202655  0.42309080  0.08562745  1
  N  N50  1  0.89050285  0.54164802  0.88901325  1
  N  N51  1  0.79137270  0.42072652  0.59910655  1
  N  N52  1  0.52030051  0.55753420  0.40787799  1
  N  N53  1  0.44150893  0.42810938  0.08287122  1
  N  N54  1  0.21902930  0.54312222  0.84055647  1
  N  N55  1  0.10268698  0.42706491  0.63680327  1
  N  N56  1  0.90613207  0.53541491  0.40688878  1
  N  N57  1  0.78248871  0.42235363  0.08946125  1
  N  N58  1  0.55705518  0.52976837  0.87425184  1
  N  N59  1  0.40144807  0.40163334  0.56920217  1
  N  N60  1  0.22621096  0.87458561  0.37227542  1
  N  N61  1  0.10589453  0.74448115  0.07178488  1
  N  N62  1  0.89180859  0.85711474  0.87181875  1
  N  N63  1  0.76254468  0.75042166  0.65383076  1
  N  N64  1  0.54534165  0.84434754  0.31845340  1
  N  N65  1  0.46401697  0.75006750  0.07222335  1
  N  N66  1  0.21920005  0.87545419  0.84084479  1
  N  N67  1  0.15216638  0.73812561  0.59960982  1
  N  N68  1  0.90891873  0.89481124  0.39800490  1
  N  N69  1  0.77961272  0.75791658  0.10910452  1
  N  N70  1  0.54685858  0.87925214  0.85110127  1
  N  N71  1  0.43066528  0.79555668  0.60065166  1
