# generated using pymatgen
data_Gd2Al7N9
_symmetry_space_group_name_H-M   'P 1'
_cell_length_a   9.84909484
_cell_length_b   9.89518595
_cell_length_c   10.60466523
_cell_angle_alpha   91.37761266
_cell_angle_beta   90.97580398
_cell_angle_gamma   60.17277390
_symmetry_Int_Tables_number   1
_chemical_formula_structural   Gd2Al7N9
_chemical_formula_sum   'Gd8 Al28 N36'
_cell_volume   896.33090283
_cell_formula_units_Z   4
loop_
 _symmetry_equiv_pos_site_id
 _symmetry_equiv_pos_as_xyz
  1  'x, y, z'
loop_
 _atom_site_type_symbol
 _atom_site_label
 _atom_site_symmetry_multiplicity
 _atom_site_fract_x
 _atom_site_fract_y
 _atom_site_fract_z
 _atom_site_occupancy
  Al  Al0  1  0.11317888  0.08818187  0.31834346  1
  Al  Al1  1  0.23169282  0.21682628  0.04803300  1
  Al  Al2  1  0.89109675  0.19580220  0.56283549  1
  Al  Al3  1  0.56212385  0.22157698  0.12078142  1
  Al  Al4  1  0.10846620  0.10759458  0.81235988  1
  Al  Al5  1  0.21076668  0.19853797  0.57454002  1
  Al  Al6  1  0.80441462  0.08447172  0.29110762  1
  Al  Al7  1  0.90193616  0.22877418  0.05720666  1
  Al  Al8  1  0.43477015  0.09219796  0.80385801  1
  Al  Al9  1  0.53662304  0.20980991  0.62904349  1
  Al  Al10  1  0.23320391  0.53548197  0.10502699  1
  Al  Al11  1  0.79023074  0.42713623  0.80629459  1
  Al  Al12  1  0.88819763  0.52498784  0.57396831  1
  Al  Al13  1  0.42623426  0.43930851  0.36842655  1
  Al  Al14  1  0.57032496  0.54869763  0.04474591  1
  Al  Al15  1  0.11022837  0.42191143  0.82043124  1
  Al  Al16  1  0.22220572  0.51821013  0.63307258  1
  Al  Al17  1  0.89289905  0.54549964  0.03310081  1
  Al  Al18  1  0.43456504  0.42955920  0.87789598  1
  Al  Al19  1  0.11227476  0.76352062  0.28143408  1
  Al  Al20  1  0.77627335  0.75394311  0.80804011  1
  Al  Al21  1  0.43466253  0.76277454  0.31104993  1
  Al  Al22  1  0.56470082  0.88251502  0.04864527  1
  Al  Al23  1  0.11720316  0.74856449  0.82830720  1
  Al  Al24  1  0.21781382  0.87333962  0.64316074  1
  Al  Al25  1  0.89678238  0.86181112  0.04277189  1
  Al  Al26  1  0.44960604  0.76951433  0.81710831  1
  Al  Al27  1  0.54717500  0.86331242  0.57066418  1
  Gd  Gd28  1  0.77490684  0.10421377  0.83653806  1
  Gd  Gd29  1  0.45441752  0.10462780  0.35273979  1
  Gd  Gd30  1  0.10215329  0.40627651  0.29472797  1
  Gd  Gd31  1  0.75239287  0.41271464  0.31395949  1
  Gd  Gd32  1  0.53422410  0.53629309  0.59369360  1
  Gd  Gd33  1  0.22734999  0.89268454  0.07525396  1
  Gd  Gd34  1  0.89387616  0.86465360  0.55708871  1
  Gd  Gd35  1  0.76575021  0.74871575  0.29330383  1
  N  N36  1  0.21068891  0.18610629  0.39943829  1
  N  N37  1  0.10027593  0.15394913  0.13815021  1
  N  N38  1  0.90947462  0.22828038  0.87992452  1
  N  N39  1  0.75784808  0.11863378  0.61646937  1
  N  N40  1  0.58714156  0.24227331  0.29668698  1
  N  N41  1  0.45004962  0.10215914  0.11112065  1
  N  N42  1  0.22774460  0.19882202  0.86670003  1
  N  N43  1  0.10154342  0.09175268  0.63284170  1
  N  N44  1  0.91150079  0.16716631  0.38316566  1
  N  N45  1  0.79969004  0.09400151  0.09354137  1
  N  N46  1  0.51607339  0.22967375  0.81039412  1
  N  N47  1  0.43913167  0.08281592  0.61691728  1
  N  N48  1  0.23181326  0.54293698  0.28809884  1
  N  N49  1  0.11431333  0.43576505  0.07118034  1
  N  N50  1  0.88820796  0.54098081  0.85638487  1
  N  N51  1  0.79798171  0.40487015  0.62542885  1
  N  N52  1  0.51181366  0.56882994  0.38275415  1
  N  N53  1  0.45332707  0.43238164  0.05573116  1
  N  N54  1  0.22849350  0.53069658  0.82099972  1
  N  N55  1  0.10340108  0.41484365  0.63335459  1
  N  N56  1  0.88224606  0.52930689  0.39611491  1
  N  N57  1  0.78191437  0.44382921  0.09987408  1
  N  N58  1  0.55948230  0.54414949  0.85552112  1
  N  N59  1  0.40865878  0.39372589  0.54241538  1
  N  N60  1  0.21804028  0.87352223  0.30142128  1
  N  N61  1  0.10766847  0.75137030  0.08569393  1
  N  N62  1  0.90098245  0.84534499  0.85783697  1
  N  N63  1  0.76145214  0.74329529  0.62774788  1
  N  N64  1  0.53775221  0.85942138  0.39200378  1
  N  N65  1  0.48863359  0.75197241  0.12147949  1
  N  N66  1  0.21760034  0.87814121  0.84387220  1
  N  N67  1  0.14284154  0.73628813  0.62543445  1
  N  N68  1  0.89952860  0.87387334  0.33732209  1
  N  N69  1  0.78310463  0.76313791  0.08030602  1
  N  N70  1  0.55416876  0.88140128  0.86797424  1
  N  N71  1  0.42969047  0.78787052  0.64240980  1
