# generated using pymatgen
data_Gd2Al7N9
_symmetry_space_group_name_H-M   'P 1'
_cell_length_a   9.88004831
_cell_length_b   9.87772563
_cell_length_c   10.43074420
_cell_angle_alpha   90.25108490
_cell_angle_beta   90.40383111
_cell_angle_gamma   60.28765086
_symmetry_Int_Tables_number   1
_chemical_formula_structural   Gd2Al7N9
_chemical_formula_sum   'Gd8 Al28 N36'
_cell_volume   884.10222667
_cell_formula_units_Z   4
loop_
 _symmetry_equiv_pos_site_id
 _symmetry_equiv_pos_as_xyz
  1  'x, y, z'
loop_
 _atom_site_type_symbol
 _atom_site_label
 _atom_site_symmetry_multiplicity
 _atom_site_fract_x
 _atom_site_fract_y
 _atom_site_fract_z
 _atom_site_occupancy
  Al  Al0  1  0.10720796  0.09272306  0.31953211  1
  Al  Al1  1  0.22118216  0.21169094  0.04177362  1
  Al  Al2  1  0.89769881  0.19735034  0.56121149  1
  Al  Al3  1  0.54357688  0.21728079  0.05346494  1
  Al  Al4  1  0.11792691  0.09328354  0.80329269  1
  Al  Al5  1  0.21800400  0.20393288  0.57252302  1
  Al  Al6  1  0.78662811  0.09117280  0.30255827  1
  Al  Al7  1  0.89774075  0.21809442  0.05600007  1
  Al  Al8  1  0.43994124  0.09855627  0.80522373  1
  Al  Al9  1  0.55520744  0.21024257  0.56519487  1
  Al  Al10  1  0.22424100  0.53602694  0.04626787  1
  Al  Al11  1  0.79839044  0.42038059  0.81091800  1
  Al  Al12  1  0.89426180  0.52726020  0.57449583  1
  Al  Al13  1  0.43539594  0.43975881  0.33854179  1
  Al  Al14  1  0.56013817  0.54102883  0.04387619  1
  Al  Al15  1  0.11474410  0.42819498  0.80843655  1
  Al  Al16  1  0.22462671  0.53463425  0.56990990  1
  Al  Al17  1  0.89316992  0.53777996  0.03388251  1
  Al  Al18  1  0.43377867  0.42844034  0.81282762  1
  Al  Al19  1  0.11132223  0.75869449  0.30892707  1
  Al  Al20  1  0.77645537  0.75188581  0.81231058  1
  Al  Al21  1  0.43777320  0.75972622  0.31527460  1
  Al  Al22  1  0.55942737  0.87414501  0.04314588  1
  Al  Al23  1  0.12431143  0.75327393  0.80565587  1
  Al  Al24  1  0.22222964  0.87701829  0.55964404  1
  Al  Al25  1  0.89737827  0.85595563  0.04914657  1
  Al  Al26  1  0.43449056  0.77816032  0.80896326  1
  Al  Al27  1  0.54484787  0.87607840  0.57160887  1
  Gd  Gd28  1  0.77833767  0.10062706  0.82952339  1
  Gd  Gd29  1  0.44117081  0.09569326  0.31770981  1
  Gd  Gd30  1  0.10918457  0.42434256  0.30378115  1
  Gd  Gd31  1  0.76325016  0.41682814  0.30617558  1
  Gd  Gd32  1  0.55587682  0.54578938  0.59079539  1
  Gd  Gd33  1  0.22196757  0.87669219  0.07634879  1
  Gd  Gd34  1  0.88962213  0.86599534  0.56600775  1
  Gd  Gd35  1  0.76523697  0.75636405  0.29606833  1
  N  N36  1  0.20592377  0.19345453  0.39394166  1
  N  N37  1  0.09962871  0.13380347  0.13447540  1
  N  N38  1  0.91785186  0.21551783  0.87723471  1
  N  N39  1  0.76582174  0.11869960  0.61599715  1
  N  N40  1  0.57243011  0.22445025  0.37512399  1
  N  N41  1  0.44244010  0.09501918  0.09689984  1
  N  N42  1  0.22485002  0.20258031  0.85532492  1
  N  N43  1  0.10998646  0.08918765  0.62013094  1
  N  N44  1  0.90417138  0.17317629  0.37816311  1
  N  N45  1  0.78083996  0.09802782  0.10266160  1
  N  N46  1  0.52408578  0.22114895  0.87197554  1
  N  N47  1  0.44764576  0.09650562  0.61525510  1
  N  N48  1  0.22420866  0.55281910  0.38496145  1
  N  N49  1  0.11273406  0.42802712  0.08147518  1
  N  N50  1  0.89583156  0.53636167  0.85441553  1
  N  N51  1  0.81477672  0.40013463  0.62839274  1
  N  N52  1  0.52222924  0.55949391  0.37589173  1
  N  N53  1  0.44363003  0.43637132  0.09920621  1
  N  N54  1  0.22197120  0.54224592  0.86231525  1
  N  N55  1  0.11319304  0.42806392  0.62162695  1
  N  N56  1  0.88214887  0.53291149  0.39328905  1
  N  N57  1  0.77781544  0.43631484  0.08808416  1
  N  N58  1  0.55628915  0.54329961  0.85061268  1
  N  N59  1  0.43021511  0.41272801  0.62817136  1
  N  N60  1  0.21843757  0.87200070  0.35598376  1
  N  N61  1  0.10126364  0.73860325  0.12413573  1
  N  N62  1  0.90960927  0.84050174  0.85958441  1
  N  N63  1  0.75764738  0.74250203  0.62838742  1
  N  N64  1  0.53694169  0.85961999  0.39137409  1
  N  N65  1  0.48062646  0.74869946  0.12568150  1
  N  N66  1  0.21941103  0.87646487  0.86080506  1
  N  N67  1  0.14312047  0.74686805  0.62328189  1
  N  N68  1  0.89455933  0.87943461  0.34957300  1
  N  N69  1  0.77863328  0.75794215  0.07801682  1
  N  N70  1  0.55212906  0.87812705  0.86132539  1
  N  N71  1  0.41918820  0.80118968  0.63143826  1
