# generated using pymatgen
data_Gd2Al7N9
_symmetry_space_group_name_H-M   'P 1'
_cell_length_a   9.89608050
_cell_length_b   9.89519096
_cell_length_c   10.59022693
_cell_angle_alpha   91.07449157
_cell_angle_beta   91.17436385
_cell_angle_gamma   59.93320073
_symmetry_Int_Tables_number   1
_chemical_formula_structural   Gd2Al7N9
_chemical_formula_sum   'Gd8 Al28 N36'
_cell_volume   897.26032447
_cell_formula_units_Z   4
loop_
 _symmetry_equiv_pos_site_id
 _symmetry_equiv_pos_as_xyz
  1  'x, y, z'
loop_
 _atom_site_type_symbol
 _atom_site_label
 _atom_site_symmetry_multiplicity
 _atom_site_fract_x
 _atom_site_fract_y
 _atom_site_fract_z
 _atom_site_occupancy
  Al  Al0  1  0.11117620  0.09262280  0.31826274  1
  Al  Al1  1  0.23064936  0.21654951  0.04947569  1
  Al  Al2  1  0.89229906  0.19762873  0.56279722  1
  Al  Al3  1  0.56011944  0.22131543  0.11990682  1
  Al  Al4  1  0.11009581  0.10266673  0.81114446  1
  Al  Al5  1  0.21120144  0.19667764  0.57284283  1
  Al  Al6  1  0.80646116  0.08357845  0.29569396  1
  Al  Al7  1  0.90494213  0.22595186  0.05694906  1
  Al  Al8  1  0.43194724  0.09348271  0.80329903  1
  Al  Al9  1  0.53356632  0.20979039  0.62999970  1
  Al  Al10  1  0.22894927  0.54337442  0.11405502  1
  Al  Al11  1  0.79662653  0.42374019  0.80649361  1
  Al  Al12  1  0.88686076  0.52675322  0.57005661  1
  Al  Al13  1  0.43129772  0.43588978  0.36993291  1
  Al  Al14  1  0.57133797  0.54354074  0.03408272  1
  Al  Al15  1  0.11054548  0.42405336  0.80967760  1
  Al  Al16  1  0.22016789  0.52375433  0.61898166  1
  Al  Al17  1  0.89522125  0.54376762  0.03557839  1
  Al  Al18  1  0.42696918  0.43198320  0.87450603  1
  Al  Al19  1  0.12931667  0.75729546  0.37247530  1
  Al  Al20  1  0.77510335  0.75384190  0.80668640  1
  Al  Al21  1  0.42587415  0.76789192  0.35190919  1
  Al  Al22  1  0.56427988  0.88251009  0.04090998  1
  Al  Al23  1  0.11640252  0.74632663  0.86796654  1
  Al  Al24  1  0.21941829  0.86661698  0.64100440  1
  Al  Al25  1  0.89346610  0.86279104  0.04124819  1
  Al  Al26  1  0.44793782  0.76767246  0.82578786  1
  Al  Al27  1  0.54714566  0.86197654  0.57748491  1
  Gd  Gd28  1  0.76686133  0.11297482  0.84231819  1
  Gd  Gd29  1  0.45430922  0.10488945  0.35192268  1
  Gd  Gd30  1  0.10486696  0.41284555  0.30210147  1
  Gd  Gd31  1  0.75062939  0.41772359  0.31043035  1
  Gd  Gd32  1  0.54042919  0.52466069  0.60431411  1
  Gd  Gd33  1  0.22571153  0.88231198  0.08922531  1
  Gd  Gd34  1  0.88569705  0.87323415  0.57791985  1
  Gd  Gd35  1  0.76891330  0.75821940  0.29869685  1
  N  N36  1  0.21255111  0.18540658  0.39780361  1
  N  N37  1  0.10240208  0.14828835  0.13741519  1
  N  N38  1  0.91309888  0.22452380  0.87972897  1
  N  N39  1  0.75216081  0.13105758  0.62056542  1
  N  N40  1  0.58790540  0.24148144  0.29522297  1
  N  N41  1  0.45145029  0.10014337  0.10980432  1
  N  N42  1  0.22473945  0.20145181  0.86547293  1
  N  N43  1  0.10366295  0.08895633  0.63053009  1
  N  N44  1  0.91046438  0.17257860  0.38200935  1
  N  N45  1  0.80073680  0.09028055  0.09394989  1
  N  N46  1  0.50893490  0.23239128  0.81009133  1
  N  N47  1  0.43799299  0.08212988  0.61687078  1
  N  N48  1  0.23128448  0.55323932  0.29562332  1
  N  N49  1  0.11590221  0.43528324  0.08178582  1
  N  N50  1  0.89242165  0.54014988  0.85740317  1
  N  N51  1  0.80372428  0.40484749  0.62556116  1
  N  N52  1  0.51574694  0.56453096  0.39030144  1
  N  N53  1  0.44765750  0.43415055  0.05370480  1
  N  N54  1  0.22436470  0.54146524  0.80307692  1
  N  N55  1  0.10332654  0.41706541  0.62471461  1
  N  N56  1  0.87907640  0.53319535  0.39193282  1
  N  N57  1  0.78070748  0.44177191  0.09576266  1
  N  N58  1  0.56452228  0.53182302  0.84777604  1
  N  N59  1  0.40979623  0.38879123  0.53915632  1
  N  N60  1  0.21792677  0.87360451  0.31330278  1
  N  N61  1  0.10995772  0.74139285  0.04641251  1
  N  N62  1  0.89545166  0.85160229  0.84581269  1
  N  N63  1  0.76162667  0.74089117  0.62697502  1
  N  N64  1  0.54007896  0.85958883  0.39701159  1
  N  N65  1  0.48075718  0.75372471  0.07557617  1
  N  N66  1  0.21375476  0.87302535  0.83597638  1
  N  N67  1  0.15442140  0.73290748  0.56023438  1
  N  N68  1  0.90085572  0.87800278  0.35731968  1
  N  N69  1  0.78325011  0.76351821  0.08273781  1
  N  N70  1  0.55733079  0.88271362  0.86053991  1
  N  N71  1  0.43212085  0.78106787  0.64421606  1
