# generated using pymatgen
data_Gd2Al7N9
_symmetry_space_group_name_H-M   'P 1'
_cell_length_a   9.86886051
_cell_length_b   9.90433203
_cell_length_c   10.77111439
_cell_angle_alpha   90.61815528
_cell_angle_beta   90.66136716
_cell_angle_gamma   59.40240696
_symmetry_Int_Tables_number   1
_chemical_formula_structural   Gd2Al7N9
_chemical_formula_sum   'Gd8 Al28 N36'
_cell_volume   906.15111151
_cell_formula_units_Z   4
loop_
 _symmetry_equiv_pos_site_id
 _symmetry_equiv_pos_as_xyz
  1  'x, y, z'
loop_
 _atom_site_type_symbol
 _atom_site_label
 _atom_site_symmetry_multiplicity
 _atom_site_fract_x
 _atom_site_fract_y
 _atom_site_fract_z
 _atom_site_occupancy
  Al  Al0  1  0.12037662  0.08243559  0.41833837  1
  Al  Al1  1  0.22378113  0.20724125  0.15821327  1
  Al  Al2  1  0.88198921  0.20620972  0.58543283  1
  Al  Al3  1  0.55654223  0.21465726  0.14515097  1
  Al  Al4  1  0.12233792  0.09686719  0.90668591  1
  Al  Al5  1  0.20654909  0.19804326  0.65863452  1
  Al  Al6  1  0.80441128  0.08878845  0.31726796  1
  Al  Al7  1  0.89741610  0.21630639  0.07352085  1
  Al  Al8  1  0.43165773  0.09563910  0.83322038  1
  Al  Al9  1  0.52647131  0.21613508  0.65447582  1
  Al  Al10  1  0.22246885  0.53991831  0.14554172  1
  Al  Al11  1  0.79651016  0.42249573  0.83249807  1
  Al  Al12  1  0.87680874  0.53676944  0.59862037  1
  Al  Al13  1  0.44390108  0.43809249  0.39024344  1
  Al  Al14  1  0.57196415  0.53176357  0.05680935  1
  Al  Al15  1  0.10405288  0.43112724  0.82858472  1
  Al  Al16  1  0.21780581  0.53320873  0.64901180  1
  Al  Al17  1  0.90164080  0.53349155  0.06780297  1
  Al  Al18  1  0.42231223  0.43156596  0.90133326  1
  Al  Al19  1  0.13306724  0.76153056  0.40758500  1
  Al  Al20  1  0.77621896  0.75293588  0.83860004  1
  Al  Al21  1  0.43179555  0.76879201  0.43950987  1
  Al  Al22  1  0.56010378  0.88397005  0.06202676  1
  Al  Al23  1  0.11808215  0.75155810  0.89419331  1
  Al  Al24  1  0.21649725  0.87674614  0.66348031  1
  Al  Al25  1  0.89270501  0.86101444  0.06293806  1
  Al  Al26  1  0.44178357  0.76582904  0.88760726  1
  Al  Al27  1  0.55330122  0.86607355  0.60811770  1
  Gd  Gd28  1  0.76393688  0.11143634  0.86149928  1
  Gd  Gd29  1  0.45417567  0.11004176  0.39707108  1
  Gd  Gd30  1  0.12953891  0.43234169  0.39450541  1
  Gd  Gd31  1  0.76869376  0.42369330  0.33348157  1
  Gd  Gd32  1  0.53968449  0.52138289  0.63412474  1
  Gd  Gd33  1  0.23498264  0.86125332  0.15760455  1
  Gd  Gd34  1  0.87695594  0.87793422  0.59675623  1
  Gd  Gd35  1  0.77459584  0.76312492  0.31687886  1
  N  N36  1  0.20972315  0.18622511  0.33985223  1
  N  N37  1  0.12044503  0.10915447  0.08488981  1
  N  N38  1  0.90304891  0.22268248  0.89731860  1
  N  N39  1  0.74618163  0.13692482  0.64378259  1
  N  N40  1  0.58261071  0.23752848  0.31697210  1
  N  N41  1  0.45360894  0.09367443  0.12970504  1
  N  N42  1  0.21211116  0.20570733  0.83665999  1
  N  N43  1  0.10959959  0.08766943  0.60125978  1
  N  N44  1  0.90103287  0.18027582  0.40581414  1
  N  N45  1  0.79802980  0.08712636  0.11801900  1
  N  N46  1  0.50285193  0.23610991  0.83075952  1
  N  N47  1  0.43669341  0.08679283  0.63662795  1
  N  N48  1  0.24195543  0.56893931  0.31849936  1
  N  N49  1  0.10948521  0.43120715  0.13943002  1
  N  N50  1  0.89448814  0.53621472  0.88854368  1
  N  N51  1  0.80405367  0.40807077  0.65502817  1
  N  N52  1  0.53558008  0.55528388  0.41963687  1
  N  N53  1  0.44522375  0.42837646  0.07676999  1
  N  N54  1  0.22007346  0.54427572  0.82798065  1
  N  N55  1  0.09953234  0.42758583  0.63984228  1
  N  N56  1  0.88027453  0.54623460  0.42478489  1
  N  N57  1  0.78121785  0.43244553  0.11790706  1
  N  N58  1  0.56037761  0.52968366  0.86998869  1
  N  N59  1  0.40067760  0.39252868  0.55663207  1
  N  N60  1  0.23072962  0.87377487  0.37034100  1
  N  N61  1  0.11337952  0.73961612  0.06995433  1
  N  N62  1  0.89553101  0.85081661  0.87493406  1
  N  N63  1  0.76215746  0.74318620  0.66356263  1
  N  N64  1  0.55522888  0.86161034  0.42754765  1
  N  N65  1  0.47142379  0.75090274  0.06808906  1
  N  N66  1  0.21529940  0.87588086  0.84602257  1
  N  N67  1  0.14578765  0.73903260  0.59084742  1
  N  N68  1  0.90504942  0.88127435  0.38103944  1
  N  N69  1  0.78020445  0.76043693  0.10274530  1
  N  N70  1  0.55195561  0.88393805  0.88091838  1
  N  N71  1  0.42619463  0.78174176  0.62388304  1
