# generated using pymatgen
data_Gd2Al7N9
_symmetry_space_group_name_H-M   'P 1'
_cell_length_a   9.92397727
_cell_length_b   9.88250109
_cell_length_c   10.51609860
_cell_angle_alpha   89.56472899
_cell_angle_beta   90.32216155
_cell_angle_gamma   59.86184566
_symmetry_Int_Tables_number   1
_chemical_formula_structural   Gd2Al7N9
_chemical_formula_sum   'Gd8 Al28 N36'
_cell_volume   891.85292182
_cell_formula_units_Z   4
loop_
 _symmetry_equiv_pos_site_id
 _symmetry_equiv_pos_as_xyz
  1  'x, y, z'
loop_
 _atom_site_type_symbol
 _atom_site_label
 _atom_site_symmetry_multiplicity
 _atom_site_fract_x
 _atom_site_fract_y
 _atom_site_fract_z
 _atom_site_occupancy
  Al  Al0  1  0.11415048  0.08440220  0.40411650  1
  Al  Al1  1  0.21971755  0.20780985  0.14080217  1
  Al  Al2  1  0.89491412  0.22192628  0.65709803  1
  Al  Al3  1  0.55091394  0.21354390  0.14157455  1
  Al  Al4  1  0.11823736  0.10060359  0.89525271  1
  Al  Al5  1  0.21967479  0.20641582  0.66347697  1
  Al  Al6  1  0.80057543  0.07273349  0.31030424  1
  Al  Al7  1  0.90790525  0.20017667  0.13555649  1
  Al  Al8  1  0.43402202  0.09982336  0.90440283  1
  Al  Al9  1  0.52973453  0.21583378  0.66063468  1
  Al  Al10  1  0.22107674  0.53925038  0.14202769  1
  Al  Al11  1  0.79372873  0.42808170  0.89926674  1
  Al  Al12  1  0.88810901  0.53765394  0.66640102  1
  Al  Al13  1  0.43715157  0.43395394  0.39518428  1
  Al  Al14  1  0.56164532  0.53251185  0.06884605  1
  Al  Al15  1  0.11378097  0.42736687  0.89608022  1
  Al  Al16  1  0.21955890  0.53151568  0.65700004  1
  Al  Al17  1  0.89572593  0.53508759  0.13104980  1
  Al  Al18  1  0.42416821  0.43192092  0.90103993  1
  Al  Al19  1  0.12905100  0.75671678  0.41228367  1
  Al  Al20  1  0.77071804  0.75882585  0.88979423  1
  Al  Al21  1  0.43207778  0.77077468  0.41730138  1
  Al  Al22  1  0.55872612  0.86354255  0.13794480  1
  Al  Al23  1  0.11839832  0.75480750  0.89269929  1
  Al  Al24  1  0.22521327  0.87920618  0.65011336  1
  Al  Al25  1  0.89082546  0.85922065  0.06939591  1
  Al  Al26  1  0.44212662  0.76921360  0.89339027  1
  Al  Al27  1  0.54682449  0.88078520  0.66565992  1
  Gd  Gd28  1  0.76362407  0.12391455  0.88001909  1
  Gd  Gd29  1  0.45337612  0.09406627  0.39412665  1
  Gd  Gd30  1  0.11953372  0.42472724  0.40342300  1
  Gd  Gd31  1  0.77348682  0.40589580  0.37646344  1
  Gd  Gd32  1  0.54629790  0.53065477  0.63304540  1
  Gd  Gd33  1  0.22740103  0.86763477  0.15705396  1
  Gd  Gd34  1  0.88736278  0.89119479  0.62522152  1
  Gd  Gd35  1  0.77207428  0.74950147  0.39543862  1
  N  N36  1  0.21280454  0.18753554  0.32277254  1
  N  N37  1  0.10981272  0.11274538  0.07263675  1
  N  N38  1  0.91401225  0.22752280  0.83681981  1
  N  N39  1  0.74595810  0.15249517  0.65082275  1
  N  N40  1  0.57772961  0.22596391  0.31957553  1
  N  N41  1  0.44605264  0.09480034  0.09281792  1
  N  N42  1  0.22367545  0.20612799  0.84543484  1
  N  N43  1  0.10649268  0.09969656  0.59316974  1
  N  N44  1  0.92723397  0.15871784  0.31087012  1
  N  N45  1  0.78520028  0.08170092  0.11270749  1
  N  N46  1  0.50792951  0.22944346  0.84303163  1
  N  N47  1  0.43903137  0.09383662  0.61244303  1
  N  N48  1  0.23255277  0.55691696  0.32140765  1
  N  N49  1  0.11795339  0.42564583  0.08345112  1
  N  N50  1  0.88941616  0.54257948  0.85143151  1
  N  N51  1  0.80443340  0.42461337  0.59176138  1
  N  N52  1  0.52367342  0.55836259  0.40385460  1
  N  N53  1  0.44094438  0.42915194  0.08214220  1
  N  N54  1  0.21833546  0.54316420  0.83956062  1
  N  N55  1  0.10250431  0.43093563  0.62353745  1
  N  N56  1  0.89682632  0.52493509  0.30605692  1
  N  N57  1  0.78412774  0.41834940  0.08540221  1
  N  N58  1  0.55902294  0.53086861  0.87281846  1
  N  N59  1  0.40910995  0.40387217  0.57303681  1
  N  N60  1  0.22354496  0.87212199  0.37101372  1
  N  N61  1  0.10799123  0.74441131  0.07389006  1
  N  N62  1  0.89361271  0.85870467  0.87169178  1
  N  N63  1  0.76093221  0.75414468  0.61937902  1
  N  N64  1  0.53288033  0.85736886  0.31697840  1
  N  N65  1  0.46770832  0.74953869  0.07186186  1
  N  N66  1  0.22067969  0.87590346  0.84091236  1
  N  N67  1  0.15207113  0.73900712  0.59740604  1
  N  N68  1  0.90401865  0.87901329  0.39289331  1
  N  N69  1  0.77460970  0.75693804  0.08408376  1
  N  N70  1  0.55000819  0.87950050  0.84862244  1
  N  N71  1  0.43210380  0.79576578  0.60062389  1
