# generated using pymatgen
data_Gd2Al7N9
_symmetry_space_group_name_H-M   'P 1'
_cell_length_a   9.90903346
_cell_length_b   9.90442148
_cell_length_c   10.45085132
_cell_angle_alpha   89.82914477
_cell_angle_beta   90.67274426
_cell_angle_gamma   59.88659236
_symmetry_Int_Tables_number   1
_chemical_formula_structural   Gd2Al7N9
_chemical_formula_sum   'Gd8 Al28 N36'
_cell_volume   887.14066521
_cell_formula_units_Z   4
loop_
 _symmetry_equiv_pos_site_id
 _symmetry_equiv_pos_as_xyz
  1  'x, y, z'
loop_
 _atom_site_type_symbol
 _atom_site_label
 _atom_site_symmetry_multiplicity
 _atom_site_fract_x
 _atom_site_fract_y
 _atom_site_fract_z
 _atom_site_occupancy
  Al  Al0  1  0.11258317  0.08779775  0.40742991  1
  Al  Al1  1  0.21768773  0.21027660  0.14077065  1
  Al  Al2  1  0.89289016  0.21691717  0.65330957  1
  Al  Al3  1  0.55385859  0.21441293  0.14573630  1
  Al  Al4  1  0.11542388  0.10060844  0.89670574  1
  Al  Al5  1  0.21993638  0.20515290  0.66606821  1
  Al  Al6  1  0.79024737  0.09093418  0.33643258  1
  Al  Al7  1  0.90328855  0.20129060  0.14359794  1
  Al  Al8  1  0.43754771  0.09896367  0.90453309  1
  Al  Al9  1  0.53568623  0.21145367  0.65729443  1
  Al  Al10  1  0.22326020  0.53833892  0.14224716  1
  Al  Al11  1  0.79369567  0.42405316  0.89993683  1
  Al  Al12  1  0.88513969  0.53790119  0.66898097  1
  Al  Al13  1  0.43490607  0.43523981  0.39960265  1
  Al  Al14  1  0.56295769  0.53269184  0.06932567  1
  Al  Al15  1  0.11396195  0.42733719  0.89591071  1
  Al  Al16  1  0.21901408  0.53226307  0.66006227  1
  Al  Al17  1  0.89743017  0.53544260  0.13117963  1
  Al  Al18  1  0.42987792  0.42753852  0.90098379  1
  Al  Al19  1  0.13153517  0.75497816  0.40430778  1
  Al  Al20  1  0.77900358  0.76018560  0.90530159  1
  Al  Al21  1  0.42868155  0.77301992  0.42056594  1
  Al  Al22  1  0.55884471  0.86577657  0.13770467  1
  Al  Al23  1  0.11235222  0.75480454  0.90063909  1
  Al  Al24  1  0.22108465  0.87983059  0.65208577  1
  Al  Al25  1  0.89810123  0.86088389  0.14682626  1
  Al  Al26  1  0.44443240  0.76865777  0.89190293  1
  Al  Al27  1  0.54842850  0.87906469  0.66700672  1
  Gd  Gd28  1  0.77481010  0.10414573  0.89149040  1
  Gd  Gd29  1  0.44891354  0.09365304  0.39431713  1
  Gd  Gd30  1  0.11940772  0.42632263  0.40808629  1
  Gd  Gd31  1  0.76882998  0.41944946  0.37801641  1
  Gd  Gd32  1  0.54516086  0.53233621  0.63593748  1
  Gd  Gd33  1  0.23316834  0.86888330  0.15513830  1
  Gd  Gd34  1  0.88897084  0.87743435  0.63544215  1
  Gd  Gd35  1  0.76946928  0.75606872  0.38966378  1
  N  N36  1  0.20852492  0.19146499  0.32394950  1
  N  N37  1  0.10446703  0.11568002  0.07610589  1
  N  N38  1  0.90908802  0.22231315  0.83567116  1
  N  N39  1  0.75175676  0.13976166  0.62610449  1
  N  N40  1  0.57141419  0.22906371  0.32648056  1
  N  N41  1  0.44651239  0.09639442  0.09512337  1
  N  N42  1  0.22441894  0.20444790  0.84890365  1
  N  N43  1  0.10777908  0.09937103  0.59571377  1
  N  N44  1  0.91960539  0.17056013  0.32330103  1
  N  N45  1  0.78247494  0.09033242  0.11733050  1
  N  N46  1  0.51881854  0.22351421  0.84184115  1
  N  N47  1  0.43891859  0.09251770  0.61344309  1
  N  N48  1  0.23345798  0.55397586  0.32229426  1
  N  N49  1  0.11861035  0.42623580  0.08409022  1
  N  N50  1  0.88724261  0.54312944  0.85699248  1
  N  N51  1  0.80333393  0.42247834  0.59537843  1
  N  N52  1  0.51840222  0.56191524  0.40647606  1
  N  N53  1  0.44315564  0.42849886  0.08379747  1
  N  N54  1  0.22117463  0.54222592  0.84381428  1
  N  N55  1  0.10144466  0.43095675  0.62966568  1
  N  N56  1  0.89798500  0.53091376  0.30776686  1
  N  N57  1  0.78492939  0.41894665  0.08906284  1
  N  N58  1  0.55966709  0.53043024  0.87341046  1
  N  N59  1  0.40847388  0.40429888  0.57754572  1
  N  N60  1  0.22049721  0.87656068  0.37019973  1
  N  N61  1  0.10361217  0.74849542  0.08219440  1
  N  N62  1  0.89982683  0.84896424  0.85023070  1
  N  N63  1  0.75730501  0.74891786  0.60894217  1
  N  N64  1  0.52847196  0.85686187  0.31679752  1
  N  N65  1  0.47242857  0.74860682  0.07072601  1
  N  N66  1  0.21896748  0.87488640  0.84461650  1
  N  N67  1  0.14805200  0.73877502  0.58992500  1
  N  N68  1  0.91111295  0.87177493  0.34020351  1
  N  N69  1  0.77908638  0.76302429  0.09417318  1
  N  N70  1  0.55652691  0.87786172  0.85172083  1
  N  N71  1  0.42864011  0.79665189  0.60555554  1
