# generated using pymatgen
data_Gd2Al7N9
_symmetry_space_group_name_H-M   'P 1'
_cell_length_a   9.92506219
_cell_length_b   9.88849637
_cell_length_c   10.49932685
_cell_angle_alpha   89.50831381
_cell_angle_beta   90.43206357
_cell_angle_gamma   59.84886020
_symmetry_Int_Tables_number   1
_chemical_formula_structural   Gd2Al7N9
_chemical_formula_sum   'Gd8 Al28 N36'
_cell_volume   890.91312059
_cell_formula_units_Z   4
loop_
 _symmetry_equiv_pos_site_id
 _symmetry_equiv_pos_as_xyz
  1  'x, y, z'
loop_
 _atom_site_type_symbol
 _atom_site_label
 _atom_site_symmetry_multiplicity
 _atom_site_fract_x
 _atom_site_fract_y
 _atom_site_fract_z
 _atom_site_occupancy
  Al  Al0  1  0.11380225  0.08587213  0.40475651  1
  Al  Al1  1  0.22012159  0.20813100  0.14133645  1
  Al  Al2  1  0.89451531  0.21992950  0.65793617  1
  Al  Al3  1  0.54987068  0.21463489  0.14226844  1
  Al  Al4  1  0.11830463  0.09982870  0.89624347  1
  Al  Al5  1  0.21912968  0.20642555  0.66421227  1
  Al  Al6  1  0.79797339  0.07834028  0.31224364  1
  Al  Al7  1  0.90830131  0.20160373  0.13749104  1
  Al  Al8  1  0.43485056  0.09935336  0.90387188  1
  Al  Al9  1  0.53093348  0.21476734  0.66121645  1
  Al  Al10  1  0.22236189  0.53810590  0.14201684  1
  Al  Al11  1  0.79374321  0.42699707  0.89832759  1
  Al  Al12  1  0.88603775  0.53933931  0.66676051  1
  Al  Al13  1  0.43712241  0.43428743  0.39630660  1
  Al  Al14  1  0.56279088  0.53202642  0.06818721  1
  Al  Al15  1  0.11364787  0.42755722  0.89524620  1
  Al  Al16  1  0.21886864  0.53238766  0.65749037  1
  Al  Al17  1  0.89703933  0.53300531  0.13079895  1
  Al  Al18  1  0.42540241  0.43108087  0.90080379  1
  Al  Al19  1  0.12917770  0.75694475  0.40885071  1
  Al  Al20  1  0.77372497  0.75955988  0.89763112  1
  Al  Al21  1  0.43123801  0.77169492  0.41869198  1
  Al  Al22  1  0.55716731  0.86493186  0.13774716  1
  Al  Al23  1  0.11487321  0.75550663  0.89456083  1
  Al  Al24  1  0.22327822  0.87963059  0.65044344  1
  Al  Al25  1  0.89282369  0.85946128  0.09404133  1
  Al  Al26  1  0.44294876  0.76883783  0.89216284  1
  Al  Al27  1  0.54791179  0.87962232  0.66595286  1
  Gd  Gd28  1  0.76719253  0.11700559  0.88227132  1
  Gd  Gd29  1  0.45274995  0.09401642  0.39556239  1
  Gd  Gd30  1  0.11951263  0.42625667  0.40478254  1
  Gd  Gd31  1  0.77305856  0.40915896  0.37941597  1
  Gd  Gd32  1  0.54530734  0.53117778  0.63441978  1
  Gd  Gd33  1  0.23094349  0.86627550  0.15690278  1
  Gd  Gd34  1  0.88669878  0.88685628  0.62750210  1
  Gd  Gd35  1  0.77110401  0.75146487  0.39040457  1
  N  N36  1  0.21229357  0.18956293  0.32382771  1
  N  N37  1  0.11023138  0.11233708  0.07437889  1
  N  N38  1  0.91349517  0.22532816  0.83812598  1
  N  N39  1  0.74767243  0.14816514  0.64898629  1
  N  N40  1  0.57592946  0.22691193  0.32090041  1
  N  N41  1  0.44621520  0.09513531  0.09290945  1
  N  N42  1  0.22364362  0.20563505  0.84629004  1
  N  N43  1  0.10619539  0.10017834  0.59376721  1
  N  N44  1  0.92499724  0.16333492  0.31370679  1
  N  N45  1  0.78442517  0.08446629  0.11501239  1
  N  N46  1  0.51033358  0.22812145  0.84389590  1
  N  N47  1  0.43874298  0.09362068  0.61392603  1
  N  N48  1  0.23377269  0.55604264  0.32112235  1
  N  N49  1  0.11851324  0.42547020  0.08317375  1
  N  N50  1  0.88807644  0.54398212  0.85295082  1
  N  N51  1  0.80347076  0.42381463  0.59518008  1
  N  N52  1  0.52271989  0.55947078  0.40489071  1
  N  N53  1  0.44137556  0.42946054  0.08225389  1
  N  N54  1  0.21882525  0.54341434  0.84045559  1
  N  N55  1  0.10130890  0.43185523  0.62533494  1
  N  N56  1  0.89750382  0.52503466  0.30592964  1
  N  N57  1  0.78497214  0.41839488  0.08512211  1
  N  N58  1  0.55912226  0.53065710  0.87269465  1
  N  N59  1  0.40873716  0.40383593  0.57430144  1
  N  N60  1  0.22296992  0.87389090  0.37075754  1
  N  N61  1  0.10716727  0.74505289  0.07616199  1
  N  N62  1  0.89520966  0.85569066  0.86289766  1
  N  N63  1  0.75857809  0.75290449  0.61176694  1
  N  N64  1  0.52963331  0.85869938  0.31611495  1
  N  N65  1  0.46982100  0.74868608  0.07079434  1
  N  N66  1  0.22000869  0.87541476  0.84199255  1
  N  N67  1  0.14986937  0.73971872  0.59439185  1
  N  N68  1  0.90716808  0.87498336  0.37545753  1
  N  N69  1  0.77562257  0.75814223  0.08759070  1
  N  N70  1  0.55315944  0.87827939  0.84968084  1
  N  N71  1  0.43056570  0.79622512  0.60262882  1
