# generated using pymatgen
data_Gd2Al7N9
_symmetry_space_group_name_H-M   'P 1'
_cell_length_a   9.88216121
_cell_length_b   9.88005414
_cell_length_c   10.43431319
_cell_angle_alpha   90.23893304
_cell_angle_beta   90.39833744
_cell_angle_gamma   60.29356974
_symmetry_Int_Tables_number   1
_chemical_formula_structural   Gd2Al7N9
_chemical_formula_sum   'Gd8 Al28 N36'
_cell_volume   884.85530089
_cell_formula_units_Z   4
loop_
 _symmetry_equiv_pos_site_id
 _symmetry_equiv_pos_as_xyz
  1  'x, y, z'
loop_
 _atom_site_type_symbol
 _atom_site_label
 _atom_site_symmetry_multiplicity
 _atom_site_fract_x
 _atom_site_fract_y
 _atom_site_fract_z
 _atom_site_occupancy
  Al  Al0  1  0.10717644  0.09277792  0.31943672  1
  Al  Al1  1  0.22120656  0.21175960  0.04166482  1
  Al  Al2  1  0.89779215  0.19727718  0.56111539  1
  Al  Al3  1  0.54352796  0.21760319  0.05248932  1
  Al  Al4  1  0.11793539  0.09331833  0.80326923  1
  Al  Al5  1  0.21798314  0.20386844  0.57242137  1
  Al  Al6  1  0.78682264  0.09100078  0.30230564  1
  Al  Al7  1  0.89776667  0.21817017  0.05599349  1
  Al  Al8  1  0.43995486  0.09826685  0.80498011  1
  Al  Al9  1  0.55572470  0.20902543  0.56593127  1
  Al  Al10  1  0.22436980  0.53613052  0.04553700  1
  Al  Al11  1  0.79887345  0.42024868  0.81090530  1
  Al  Al12  1  0.89424558  0.52712457  0.57429331  1
  Al  Al13  1  0.43518291  0.43917725  0.34969848  1
  Al  Al14  1  0.56027665  0.54110216  0.04324690  1
  Al  Al15  1  0.11460098  0.42812525  0.80832789  1
  Al  Al16  1  0.22331834  0.53524087  0.57092525  1
  Al  Al17  1  0.89323172  0.53780957  0.03388650  1
  Al  Al18  1  0.43418430  0.42881755  0.81501698  1
  Al  Al19  1  0.11126695  0.75875965  0.30870002  1
  Al  Al20  1  0.77645536  0.75184466  0.81228847  1
  Al  Al21  1  0.43771963  0.75958769  0.31535523  1
  Al  Al22  1  0.55949524  0.87420529  0.04314593  1
  Al  Al23  1  0.12404220  0.75351854  0.80555963  1
  Al  Al24  1  0.22214093  0.87710332  0.55959311  1
  Al  Al25  1  0.89735608  0.85597037  0.04913069  1
  Al  Al26  1  0.43433363  0.77866932  0.80892027  1
  Al  Al27  1  0.54476608  0.87607979  0.57142766  1
  Gd  Gd28  1  0.77879956  0.10033810  0.82941309  1
  Gd  Gd29  1  0.44112757  0.09562409  0.31735578  1
  Gd  Gd30  1  0.10911616  0.42434534  0.30354338  1
  Gd  Gd31  1  0.76257287  0.41692116  0.30605404  1
  Gd  Gd32  1  0.55650595  0.54626596  0.59245785  1
  Gd  Gd33  1  0.22215464  0.87654129  0.07637868  1
  Gd  Gd34  1  0.88956627  0.86590277  0.56577679  1
  Gd  Gd35  1  0.76521134  0.75625440  0.29599998  1
  N  N36  1  0.20597556  0.19349146  0.39383391  1
  N  N37  1  0.09972398  0.13375740  0.13444322  1
  N  N38  1  0.91796754  0.21556708  0.87728296  1
  N  N39  1  0.76621360  0.11832814  0.61598729  1
  N  N40  1  0.57284774  0.22345728  0.37570315  1
  N  N41  1  0.44250186  0.09522567  0.09662200  1
  N  N42  1  0.22488830  0.20252074  0.85525292  1
  N  N43  1  0.10996747  0.08919072  0.62007597  1
  N  N44  1  0.90407054  0.17327172  0.37802763  1
  N  N45  1  0.78085832  0.09803887  0.10256357  1
  N  N46  1  0.52467336  0.22016869  0.87062671  1
  N  N47  1  0.44755801  0.09623218  0.61521178  1
  N  N48  1  0.22274177  0.55355095  0.38586661  1
  N  N49  1  0.11283479  0.42809120  0.08131811  1
  N  N50  1  0.89587693  0.53642113  0.85446533  1
  N  N51  1  0.81524830  0.39978533  0.62844618  1
  N  N52  1  0.52222524  0.55977606  0.37708043  1
  N  N53  1  0.44396380  0.43685716  0.09172366  1
  N  N54  1  0.22127463  0.54245570  0.86125010  1
  N  N55  1  0.11291784  0.42789093  0.62169239  1
  N  N56  1  0.88203831  0.53268429  0.39309066  1
  N  N57  1  0.77792097  0.43638542  0.08806981  1
  N  N58  1  0.55685727  0.54385931  0.84968098  1
  N  N59  1  0.43027795  0.41294181  0.62591190  1
  N  N60  1  0.21839983  0.87197436  0.35591854  1
  N  N61  1  0.10127521  0.73858241  0.12401831  1
  N  N62  1  0.90953341  0.84046345  0.85962871  1
  N  N63  1  0.75756476  0.74236232  0.62831907  1
  N  N64  1  0.53689704  0.85961510  0.39124592  1
  N  N65  1  0.48081090  0.74867101  0.12584171  1
  N  N66  1  0.21937472  0.87647498  0.86084616  1
  N  N67  1  0.14274509  0.74732390  0.62336915  1
  N  N68  1  0.89454258  0.87941597  0.34940250  1
  N  N69  1  0.77864986  0.75796508  0.07803756  1
  N  N70  1  0.55215676  0.87809670  0.86136946  1
  N  N71  1  0.41885080  0.80172864  0.63146174  1
