# generated using pymatgen
data_Gd2Al7N9
_symmetry_space_group_name_H-M   'P 1'
_cell_length_a   9.90921776
_cell_length_b   9.91540923
_cell_length_c   10.75482482
_cell_angle_alpha   90.85890996
_cell_angle_beta   90.95611636
_cell_angle_gamma   59.42456404
_symmetry_Int_Tables_number   1
_chemical_formula_structural   Gd2Al7N9
_chemical_formula_sum   'Gd8 Al28 N36'
_cell_volume   909.62746345
_cell_formula_units_Z   4
loop_
 _symmetry_equiv_pos_site_id
 _symmetry_equiv_pos_as_xyz
  1  'x, y, z'
loop_
 _atom_site_type_symbol
 _atom_site_label
 _atom_site_symmetry_multiplicity
 _atom_site_fract_x
 _atom_site_fract_y
 _atom_site_fract_z
 _atom_site_occupancy
  Al  Al0  1  0.11509245  0.07734492  0.43323506  1
  Al  Al1  1  0.23521593  0.21263150  0.10908737  1
  Al  Al2  1  0.87834784  0.20582620  0.59068938  1
  Al  Al3  1  0.56055149  0.21664521  0.14640010  1
  Al  Al4  1  0.12050309  0.09641045  0.89603462  1
  Al  Al5  1  0.20722983  0.20055752  0.62619498  1
  Al  Al6  1  0.80581419  0.08685719  0.31961374  1
  Al  Al7  1  0.90019935  0.21707323  0.07179175  1
  Al  Al8  1  0.43001310  0.09395502  0.82135949  1
  Al  Al9  1  0.52931382  0.21591139  0.65588859  1
  Al  Al10  1  0.22808764  0.54081398  0.14512333  1
  Al  Al11  1  0.79658642  0.42230390  0.83114832  1
  Al  Al12  1  0.87585193  0.53636437  0.59521553  1
  Al  Al13  1  0.44202107  0.43894525  0.39222992  1
  Al  Al14  1  0.57380530  0.53214895  0.05579826  1
  Al  Al15  1  0.10409577  0.42800649  0.82098959  1
  Al  Al16  1  0.21824671  0.53105964  0.64600129  1
  Al  Al17  1  0.90037460  0.53447205  0.06612797  1
  Al  Al18  1  0.42263897  0.43009796  0.89989539  1
  Al  Al19  1  0.13321303  0.76069872  0.40652335  1
  Al  Al20  1  0.77703006  0.75151238  0.83681447  1
  Al  Al21  1  0.42713436  0.77267816  0.43990125  1
  Al  Al22  1  0.56285920  0.88283709  0.05963213  1
  Al  Al23  1  0.11937561  0.74816689  0.89408014  1
  Al  Al24  1  0.21598494  0.87376914  0.66730966  1
  Al  Al25  1  0.89530595  0.85927929  0.06347647  1
  Al  Al26  1  0.44270756  0.76567954  0.88755211  1
  Al  Al27  1  0.55412189  0.86533346  0.60686930  1
  Gd  Gd28  1  0.76301943  0.10957244  0.86362867  1
  Gd  Gd29  1  0.45485814  0.11304673  0.40216767  1
  Gd  Gd30  1  0.11793839  0.43620497  0.37762008  1
  Gd  Gd31  1  0.76099098  0.42192134  0.33474486  1
  Gd  Gd32  1  0.53694267  0.52512079  0.63469255  1
  Gd  Gd33  1  0.23533907  0.86486484  0.15516309  1
  Gd  Gd34  1  0.88059970  0.87538073  0.59859822  1
  Gd  Gd35  1  0.76711640  0.76676564  0.31790135  1
  N  N36  1  0.21021343  0.19266733  0.42179040  1
  N  N37  1  0.12348263  0.11195407  0.08032633  1
  N  N38  1  0.90195362  0.22224971  0.89579335  1
  N  N39  1  0.74659633  0.13364541  0.64600163  1
  N  N40  1  0.58559035  0.24070162  0.31709810  1
  N  N41  1  0.45567312  0.09485185  0.13024490  1
  N  N42  1  0.21333057  0.20570764  0.83568010  1
  N  N43  1  0.10038195  0.08269468  0.61430460  1
  N  N44  1  0.89931597  0.17955008  0.40929625  1
  N  N45  1  0.80137037  0.08640219  0.11837889  1
  N  N46  1  0.50389358  0.23389236  0.83182463  1
  N  N47  1  0.44272776  0.08428199  0.63771464  1
  N  N48  1  0.24355919  0.56824952  0.31812251  1
  N  N49  1  0.11438619  0.42862895  0.13743289  1
  N  N50  1  0.89593946  0.53480175  0.88761510  1
  N  N51  1  0.80109628  0.41015562  0.65389515  1
  N  N52  1  0.53034177  0.55937492  0.42060274  1
  N  N53  1  0.44701027  0.42843799  0.07632337  1
  N  N54  1  0.22118397  0.54218431  0.82675486  1
  N  N55  1  0.09532849  0.43278258  0.63804756  1
  N  N56  1  0.87228085  0.54781253  0.42035147  1
  N  N57  1  0.78322431  0.43243492  0.11809986  1
  N  N58  1  0.56117810  0.52970554  0.87035415  1
  N  N59  1  0.40418620  0.39083974  0.55819412  1
  N  N60  1  0.22695518  0.87707004  0.36812509  1
  N  N61  1  0.11513602  0.73907732  0.07065748  1
  N  N62  1  0.89713527  0.84841463  0.87514929  1
  N  N63  1  0.76228488  0.74261533  0.66137258  1
  N  N64  1  0.55028833  0.86417758  0.42667268  1
  N  N65  1  0.47345338  0.75142390  0.06916192  1
  N  N66  1  0.21720488  0.87157937  0.84892031  1
  N  N67  1  0.14889696  0.73635115  0.58963567  1
  N  N68  1  0.90493336  0.87862859  0.38156992  1
  N  N69  1  0.78175513  0.76017230  0.10288524  1
  N  N70  1  0.55249169  0.88394742  0.87979553  1
  N  N71  1  0.42366622  0.78545682  0.62483904  1
