# generated using pymatgen
data_Gd2Al7N9
_symmetry_space_group_name_H-M   'P 1'
_cell_length_a   9.86257559
_cell_length_b   9.90981057
_cell_length_c   10.76472773
_cell_angle_alpha   90.63031724
_cell_angle_beta   90.65671697
_cell_angle_gamma   59.41736557
_symmetry_Int_Tables_number   1
_chemical_formula_structural   Gd2Al7N9
_chemical_formula_sum   'Gd8 Al28 N36'
_cell_volume   905.67674208
_cell_formula_units_Z   4
loop_
 _symmetry_equiv_pos_site_id
 _symmetry_equiv_pos_as_xyz
  1  'x, y, z'
loop_
 _atom_site_type_symbol
 _atom_site_label
 _atom_site_symmetry_multiplicity
 _atom_site_fract_x
 _atom_site_fract_y
 _atom_site_fract_z
 _atom_site_occupancy
  Al  Al0  1  0.12119772  0.08245161  0.41806763  1
  Al  Al1  1  0.22300298  0.20805003  0.15566625  1
  Al  Al2  1  0.88247478  0.20622948  0.58584285  1
  Al  Al3  1  0.55582300  0.21551478  0.14256113  1
  Al  Al4  1  0.12129651  0.09667534  0.90627814  1
  Al  Al5  1  0.21285352  0.19460239  0.66071018  1
  Al  Al6  1  0.80369973  0.08891275  0.31687583  1
  Al  Al7  1  0.89682672  0.21660371  0.07335759  1
  Al  Al8  1  0.42914410  0.10209811  0.86268385  1
  Al  Al9  1  0.52419812  0.21490327  0.65656220  1
  Al  Al10  1  0.22199836  0.54048538  0.14573861  1
  Al  Al11  1  0.79612008  0.42292506  0.83226789  1
  Al  Al12  1  0.87788348  0.53600652  0.59896604  1
  Al  Al13  1  0.44370106  0.43713476  0.39024664  1
  Al  Al14  1  0.57173926  0.53206010  0.05698292  1
  Al  Al15  1  0.10351709  0.43171254  0.82824445  1
  Al  Al16  1  0.21765250  0.53352197  0.64905488  1
  Al  Al17  1  0.90153711  0.53354670  0.06763007  1
  Al  Al18  1  0.42216201  0.43319438  0.90136627  1
  Al  Al19  1  0.13294481  0.76140777  0.40784916  1
  Al  Al20  1  0.77610322  0.75311341  0.83761225  1
  Al  Al21  1  0.43248258  0.76789871  0.43919819  1
  Al  Al22  1  0.56220949  0.88007890  0.06087784  1
  Al  Al23  1  0.11783377  0.75174404  0.89421393  1
  Al  Al24  1  0.21645997  0.87699547  0.66293443  1
  Al  Al25  1  0.89236615  0.86147637  0.06288876  1
  Al  Al26  1  0.44142120  0.76578589  0.88664039  1
  Al  Al27  1  0.55243417  0.86729855  0.60931055  1
  Gd  Gd28  1  0.76449471  0.11124706  0.86058893  1
  Gd  Gd29  1  0.45485342  0.10910906  0.40324437  1
  Gd  Gd30  1  0.13161265  0.42969620  0.39502239  1
  Gd  Gd31  1  0.76928149  0.42374859  0.33358593  1
  Gd  Gd32  1  0.53991071  0.52078379  0.63367122  1
  Gd  Gd33  1  0.23449365  0.86190948  0.15783793  1
  Gd  Gd34  1  0.87628577  0.87887553  0.59663015  1
  Gd  Gd35  1  0.77707692  0.76103581  0.31771135  1
  N  N36  1  0.21298308  0.18359719  0.33688160  1
  N  N37  1  0.11961168  0.10909249  0.08439772  1
  N  N38  1  0.90240330  0.22333543  0.89706365  1
  N  N39  1  0.74516387  0.13780389  0.64422806  1
  N  N40  1  0.58034706  0.23546708  0.31538690  1
  N  N41  1  0.44974241  0.09872441  0.10903303  1
  N  N42  1  0.21244207  0.20597381  0.83871388  1
  N  N43  1  0.11052005  0.08835887  0.60162375  1
  N  N44  1  0.90101741  0.18024005  0.40565848  1
  N  N45  1  0.79759004  0.08755751  0.11773477  1
  N  N46  1  0.50241686  0.23649823  0.83266047  1
  N  N47  1  0.43634847  0.08806930  0.62775198  1
  N  N48  1  0.24127219  0.56865738  0.31896682  1
  N  N49  1  0.10911122  0.43169770  0.13895530  1
  N  N50  1  0.89389119  0.53681691  0.88844314  1
  N  N51  1  0.80405489  0.40815790  0.65497240  1
  N  N52  1  0.53567397  0.55426440  0.41896486  1
  N  N53  1  0.44477829  0.42973929  0.07688393  1
  N  N54  1  0.21993136  0.54469323  0.82818469  1
  N  N55  1  0.10057375  0.42648996  0.64078825  1
  N  N56  1  0.88236917  0.54422695  0.42510604  1
  N  N57  1  0.78108367  0.43263063  0.11783770  1
  N  N58  1  0.56005487  0.53003476  0.86983410  1
  N  N59  1  0.40113427  0.39282100  0.55759718  1
  N  N60  1  0.23081144  0.87346881  0.37061007  1
  N  N61  1  0.11305106  0.74008699  0.07021813  1
  N  N62  1  0.89522414  0.85086880  0.87515107  1
  N  N63  1  0.76255364  0.74302853  0.66279415  1
  N  N64  1  0.55653984  0.85954318  0.42572192  1
  N  N65  1  0.47100227  0.75077147  0.06795346  1
  N  N66  1  0.21480545  0.87611048  0.84575137  1
  N  N67  1  0.14523384  0.73942542  0.59099351  1
  N  N68  1  0.90485644  0.88191463  0.38107921  1
  N  N69  1  0.78031283  0.76047161  0.10353765  1
  N  N70  1  0.55246445  0.88251416  0.87993739  1
  N  N71  1  0.42647112  0.78135775  0.62361817  1
