# generated using pymatgen
data_Al31B5N36
_symmetry_space_group_name_H-M   'P 1'
_cell_length_a   9.17696208
_cell_length_b   9.17607546
_cell_length_c   10.09782065
_cell_angle_alpha   89.53927278
_cell_angle_beta   89.20710097
_cell_angle_gamma   60.07039438
_symmetry_Int_Tables_number   1
_chemical_formula_structural   Al31B5N36
_chemical_formula_sum   'Al31 B5 N36'
_cell_volume   736.85131549
_cell_formula_units_Z   1
loop_
 _symmetry_equiv_pos_site_id
 _symmetry_equiv_pos_as_xyz
  1  'x, y, z'
loop_
 _atom_site_type_symbol
 _atom_site_label
 _atom_site_symmetry_multiplicity
 _atom_site_fract_x
 _atom_site_fract_y
 _atom_site_fract_z
 _atom_site_occupancy
  Al  Al0  1  0.09893525  0.10091932  0.39635606  1
  Al  Al1  1  0.22547645  0.19935280  0.13991679  1
  Al  Al2  1  0.77929663  0.09280445  0.85526004  1
  Al  Al3  1  0.44835183  0.08950801  0.38211297  1
  Al  Al4  1  0.55765741  0.20511008  0.06427881  1
  Al  Al5  1  0.10995894  0.09840553  0.87747549  1
  Al  Al6  1  0.21918908  0.20741098  0.63839571  1
  Al  Al7  1  0.88706216  0.20325818  0.13021048  1
  Al  Al8  1  0.43969113  0.07838046  0.89253337  1
  Al  Al9  1  0.58022802  0.19226135  0.57278707  1
  Al  Al10  1  0.10985614  0.43015579  0.38915373  1
  Al  Al11  1  0.21688416  0.54383337  0.14078593  1
  Al  Al12  1  0.77898657  0.42899793  0.87808566  1
  Al  Al13  1  0.88586257  0.53846618  0.63778656  1
  Al  Al14  1  0.46017648  0.42378111  0.32130388  1
  Al  Al15  1  0.54828712  0.55271605  0.06171433  1
  Al  Al16  1  0.11114807  0.42758951  0.89041674  1
  Al  Al17  1  0.20756170  0.54523203  0.63806458  1
  Al  Al18  1  0.78550281  0.41544997  0.39396074  1
  Al  Al19  1  0.88054766  0.54343722  0.13882140  1
  Al  Al20  1  0.44823842  0.42718153  0.81277043  1
  Al  Al21  1  0.55269490  0.53627488  0.57562008  1
  Al  Al22  1  0.09814584  0.77219600  0.39628767  1
  Al  Al23  1  0.23954692  0.86925331  0.06095650  1
  Al  Al24  1  0.76780960  0.76183238  0.88870268  1
  Al  Al25  1  0.44439303  0.76320154  0.31609082  1
  Al  Al26  1  0.11160656  0.75732191  0.88141962  1
  Al  Al27  1  0.21700970  0.87559646  0.58915959  1
  Al  Al28  1  0.77489944  0.77128785  0.38977655  1
  Al  Al29  1  0.88234293  0.87977308  0.13349830  1
  Al  Al30  1  0.55942840  0.87217479  0.64282517  1
  B  B31  1  0.89409405  0.19845032  0.64900955  1
  B  B32  1  0.78066139  0.09449665  0.34908533  1
  B  B33  1  0.89923010  0.88584613  0.65478673  1
  B  B34  1  0.56055525  0.87670591  0.14561157  1
  B  B35  1  0.44097911  0.75645350  0.80900217  1
  N  N36  1  0.21960848  0.20577344  0.32832030  1
  N  N37  1  0.10874683  0.10043817  0.07068949  1
  N  N38  1  0.89180404  0.21007943  0.80860015  1
  N  N39  1  0.80449193  0.08015090  0.62533439  1
  N  N40  1  0.59227904  0.19141678  0.37334557  1
  N  N41  1  0.45621971  0.06615686  0.08699010  1
  N  N42  1  0.22426760  0.20687789  0.82542422  1
  N  N43  1  0.08251250  0.11262174  0.58996658  1
  N  N44  1  0.87565043  0.19110504  0.32423549  1
  N  N45  1  0.78919847  0.08961182  0.05911584  1
  N  N46  1  0.54478537  0.20922015  0.87429101  1
  N  N47  1  0.44248924  0.08830815  0.57112839  1
  N  N48  1  0.21688862  0.54804321  0.33253413  1
  N  N49  1  0.11200977  0.42735422  0.07960859  1
  N  N50  1  0.88955722  0.54088480  0.82620869  1
  N  N51  1  0.79284282  0.39510474  0.58651806  1
  N  N52  1  0.55346499  0.54715831  0.38577445  1
  N  N53  1  0.45402295  0.42530157  0.13111891  1
  N  N54  1  0.21633077  0.54005089  0.82560456  1
  N  N55  1  0.10837991  0.42760361  0.57484555  1
  N  N56  1  0.88616168  0.54032665  0.32861336  1
  N  N57  1  0.78179923  0.42507144  0.07072356  1
  N  N58  1  0.53748990  0.56528150  0.86939782  1
  N  N59  1  0.44681530  0.41825663  0.62307772  1
  N  N60  1  0.23233105  0.87061894  0.39230123  1
  N  N61  1  0.10898172  0.76114744  0.07373112  1
  N  N62  1  0.89054073  0.86328370  0.81168292  1
  N  N63  1  0.77934019  0.76748709  0.57725446  1
  N  N64  1  0.56537667  0.87859687  0.30703498  1
  N  N65  1  0.45540769  0.77131132  0.12896038  1
  N  N66  1  0.24972484  0.85932376  0.86472943  1
  N  N67  1  0.07808996  0.77651908  0.59010095  1
  N  N68  1  0.87593873  0.90425565  0.32647699  1
  N  N69  1  0.75404744  0.77503892  0.08326938  1
  N  N70  1  0.54533450  0.85895235  0.82925697  1
  N  N71  1  0.43835407  0.75246580  0.64899721  1
