# generated using pymatgen
data_Al31B5N36
_symmetry_space_group_name_H-M   'P 1'
_cell_length_a   9.17443082
_cell_length_b   9.18210622
_cell_length_c   10.17551218
_cell_angle_alpha   89.60597309
_cell_angle_beta   89.35098127
_cell_angle_gamma   60.05575422
_symmetry_Int_Tables_number   1
_chemical_formula_structural   Al31B5N36
_chemical_formula_sum   'Al31 B5 N36'
_cell_volume   742.71770538
_cell_formula_units_Z   1
loop_
 _symmetry_equiv_pos_site_id
 _symmetry_equiv_pos_as_xyz
  1  'x, y, z'
loop_
 _atom_site_type_symbol
 _atom_site_label
 _atom_site_symmetry_multiplicity
 _atom_site_fract_x
 _atom_site_fract_y
 _atom_site_fract_z
 _atom_site_occupancy
  Al  Al0  1  0.09646758  0.10070188  0.39269890  1
  Al  Al1  1  0.22258074  0.19681800  0.13703569  1
  Al  Al2  1  0.78050023  0.08604209  0.81084468  1
  Al  Al3  1  0.44586220  0.08906841  0.39051796  1
  Al  Al4  1  0.55778508  0.20389879  0.06816190  1
  Al  Al5  1  0.11132327  0.09682765  0.87757618  1
  Al  Al6  1  0.22067578  0.21093326  0.64021159  1
  Al  Al7  1  0.88636165  0.20876498  0.13960803  1
  Al  Al8  1  0.44554411  0.08151913  0.87865191  1
  Al  Al9  1  0.57929694  0.19434214  0.56250090  1
  Al  Al10  1  0.10970130  0.42408762  0.38423775  1
  Al  Al11  1  0.22579259  0.54252837  0.06941940  1
  Al  Al12  1  0.77734376  0.43247928  0.87802080  1
  Al  Al13  1  0.89487387  0.54164849  0.64050123  1
  Al  Al14  1  0.45396702  0.42150230  0.31717031  1
  Al  Al15  1  0.54748605  0.55356695  0.06177254  1
  Al  Al16  1  0.10785824  0.42700914  0.89076054  1
  Al  Al17  1  0.22252003  0.54373074  0.56671722  1
  Al  Al18  1  0.78594593  0.41410023  0.39224950  1
  Al  Al19  1  0.87683753  0.54305937  0.14126504  1
  Al  Al20  1  0.44532798  0.43136643  0.81530185  1
  Al  Al21  1  0.55246261  0.53808280  0.57472777  1
  Al  Al22  1  0.10763756  0.76999837  0.31506866  1
  Al  Al23  1  0.23536719  0.86777556  0.05993856  1
  Al  Al24  1  0.76528816  0.76500228  0.88761356  1
  Al  Al25  1  0.44763848  0.76246727  0.32589194  1
  Al  Al26  1  0.11144746  0.76279023  0.82373196  1
  Al  Al27  1  0.21023705  0.87403796  0.57874705  1
  Al  Al28  1  0.78407258  0.76939817  0.39211302  1
  Al  Al29  1  0.88324161  0.87688168  0.09315061  1
  Al  Al30  1  0.55747359  0.87393978  0.61447476  1
  B  B31  1  0.91120027  0.22632066  0.65000028  1
  B  B32  1  0.77189297  0.08768544  0.30191536  1
  B  B33  1  0.88981445  0.86807299  0.60941468  1
  B  B34  1  0.55201007  0.87145702  0.10187594  1
  B  B35  1  0.44250768  0.76029250  0.80429208  1
  N  N36  1  0.22266322  0.19988130  0.32370906  1
  N  N37  1  0.10189321  0.10021931  0.06617817  1
  N  N38  1  0.89335917  0.21446279  0.80102723  1
  N  N39  1  0.79243604  0.05110784  0.62940933  1
  N  N40  1  0.58572025  0.19113866  0.36978550  1
  N  N41  1  0.45371132  0.06078847  0.07700808  1
  N  N42  1  0.22335642  0.20914930  0.82553767  1
  N  N43  1  0.08302287  0.11598330  0.58734270  1
  N  N44  1  0.88069404  0.19669074  0.32462761  1
  N  N45  1  0.76390414  0.09944524  0.14234074  1
  N  N46  1  0.56087815  0.20796841  0.88036408  1
  N  N47  1  0.43647433  0.10399529  0.57948860  1
  N  N48  1  0.22618059  0.54320714  0.37660092  1
  N  N49  1  0.10567665  0.42623933  0.08072255  1
  N  N50  1  0.89021690  0.54448922  0.82560454  1
  N  N51  1  0.79660915  0.40177959  0.58719317  1
  N  N52  1  0.55328415  0.53973752  0.38535594  1
  N  N53  1  0.44667368  0.42934478  0.12898963  1
  N  N54  1  0.22648282  0.54140933  0.87959663  1
  N  N55  1  0.10861178  0.42515844  0.57359749  1
  N  N56  1  0.88580798  0.54023594  0.32822158  1
  N  N57  1  0.78018584  0.42382618  0.06755540  1
  N  N58  1  0.53880777  0.56989728  0.86875382  1
  N  N59  1  0.44809798  0.41969477  0.62944282  1
  N  N60  1  0.22418991  0.86802916  0.38959021  1
  N  N61  1  0.12081903  0.76229654  0.12721851  1
  N  N62  1  0.89249077  0.87790740  0.89617860  1
  N  N63  1  0.80132005  0.76785579  0.58548086  1
  N  N64  1  0.55764211  0.86192177  0.39022550  1
  N  N65  1  0.45603249  0.77743404  0.13177408  1
  N  N66  1  0.25124594  0.85825056  0.86699952  1
  N  N67  1  0.08272502  0.77121337  0.63355687  1
  N  N68  1  0.87526932  0.89590647  0.33064398  1
  N  N69  1  0.74013360  0.77223944  0.08170308  1
  N  N70  1  0.54858055  0.86176930  0.81638478  1
  N  N71  1  0.43371306  0.75563006  0.64609113  1
