# generated using pymatgen
data_Al31B5N36
_symmetry_space_group_name_H-M   'P 1'
_cell_length_a   9.18041048
_cell_length_b   9.18201256
_cell_length_c   9.85291639
_cell_angle_alpha   90.02594366
_cell_angle_beta   89.57163878
_cell_angle_gamma   60.00041117
_symmetry_Int_Tables_number   1
_chemical_formula_structural   Al31B5N36
_chemical_formula_sum   'Al31 B5 N36'
_cell_volume   719.25019478
_cell_formula_units_Z   1
loop_
 _symmetry_equiv_pos_site_id
 _symmetry_equiv_pos_as_xyz
  1  'x, y, z'
loop_
 _atom_site_type_symbol
 _atom_site_label
 _atom_site_symmetry_multiplicity
 _atom_site_fract_x
 _atom_site_fract_y
 _atom_site_fract_z
 _atom_site_occupancy
  Al  Al0  1  0.09944886  0.09369835  0.40344172  1
  Al  Al1  1  0.22451198  0.20046603  0.15013358  1
  Al  Al2  1  0.78318447  0.09154833  0.86645079  1
  Al  Al3  1  0.45093184  0.08908274  0.38966085  1
  Al  Al4  1  0.56169585  0.19823990  0.10980485  1
  Al  Al5  1  0.11500721  0.09168987  0.89638009  1
  Al  Al6  1  0.21839527  0.20600623  0.64763678  1
  Al  Al7  1  0.88622130  0.20274455  0.14353855  1
  Al  Al8  1  0.44287433  0.08347205  0.89818165  1
  Al  Al9  1  0.56981052  0.19711120  0.63515700  1
  Al  Al10  1  0.10840791  0.42901878  0.39987539  1
  Al  Al11  1  0.22034091  0.54106634  0.15143315  1
  Al  Al12  1  0.77724355  0.43011393  0.89347596  1
  Al  Al13  1  0.88844389  0.54058333  0.64779159  1
  Al  Al14  1  0.44979648  0.42590607  0.39705669  1
  Al  Al15  1  0.55708543  0.54531702  0.14184267  1
  Al  Al16  1  0.11118748  0.42806774  0.89932042  1
  Al  Al17  1  0.21662502  0.54345241  0.64810147  1
  Al  Al18  1  0.77477183  0.41887282  0.40397205  1
  Al  Al19  1  0.88167913  0.54376809  0.15012801  1
  Al  Al20  1  0.44095811  0.43637974  0.89533892  1
  Al  Al21  1  0.55733129  0.53976828  0.65261038  1
  Al  Al22  1  0.09846151  0.77452579  0.40346583  1
  Al  Al23  1  0.22750140  0.87249015  0.14288037  1
  Al  Al24  1  0.77148800  0.76262442  0.89701867  1
  Al  Al25  1  0.44489583  0.76283407  0.39093328  1
  Al  Al26  1  0.11486981  0.76049093  0.89646598  1
  Al  Al27  1  0.22119239  0.87337355  0.65356393  1
  Al  Al28  1  0.77174112  0.77395621  0.39730139  1
  Al  Al29  1  0.88061870  0.87932422  0.14346173  1
  Al  Al30  1  0.55806354  0.87070389  0.64999419  1
  B  B31  1  0.89749354  0.19104382  0.65877200  1
  B  B32  1  0.77418223  0.09658160  0.36047836  1
  B  B33  1  0.89710987  0.87950861  0.65809013  1
  B  B34  1  0.55665884  0.87149060  0.14425611  1
  B  B35  1  0.44993763  0.76424495  0.90227947  1
  N  N36  1  0.21897758  0.20395210  0.34195576  1
  N  N37  1  0.10945758  0.09574305  0.08759934  1
  N  N38  1  0.89637273  0.20797594  0.82132231  1
  N  N39  1  0.80672880  0.07996909  0.62873790  1
  N  N40  1  0.58516576  0.19107311  0.35205189  1
  N  N41  1  0.45587631  0.06832908  0.09409905  1
  N  N42  1  0.22332934  0.20535457  0.83915547  1
  N  N43  1  0.08850411  0.10312482  0.59804272  1
  N  N44  1  0.87226384  0.19090963  0.33866651  1
  N  N45  1  0.78603477  0.09071626  0.06690492  1
  N  N46  1  0.54919603  0.20632883  0.84749502  1
  N  N47  1  0.44525155  0.09108501  0.58439154  1
  N  N48  1  0.21906126  0.54404547  0.34366237  1
  N  N49  1  0.11060263  0.42765907  0.09223605  1
  N  N50  1  0.88953127  0.54065284  0.83936759  1
  N  N51  1  0.78800871  0.40219408  0.59784222  1
  N  N52  1  0.55661726  0.53966545  0.33412492  1
  N  N53  1  0.44297887  0.43081783  0.08894456  1
  N  N54  1  0.22133595  0.53943966  0.83819051  1
  N  N55  1  0.11079268  0.42778466  0.58924140  1
  N  N56  1  0.88319993  0.54147762  0.34383529  1
  N  N57  1  0.78066249  0.42463882  0.08571693  1
  N  N58  1  0.54408674  0.56578994  0.84775150  1
  N  N59  1  0.44497034  0.42915335  0.59058168  1
  N  N60  1  0.22046655  0.87312833  0.33713218  1
  N  N61  1  0.10815693  0.76239682  0.08875187  1
  N  N62  1  0.89491569  0.86191125  0.82220433  1
  N  N63  1  0.78649086  0.77720968  0.59271428  1
  N  N64  1  0.55493182  0.87046052  0.31230418  1
  N  N65  1  0.45702242  0.77304706  0.07613482  1
  N  N66  1  0.25004538  0.85894149  0.84837191  1
  N  N67  1  0.08800042  0.77627567  0.59827611  1
  N  N68  1  0.87149022  0.90440745  0.33793122  1
  N  N69  1  0.75389407  0.77472834  0.09293924  1
  N  N70  1  0.54427107  0.85760173  0.84142720  1
  N  N71  1  0.44619321  0.76147554  0.58220452  1
