# generated using pymatgen
data_Al31B5N36
_symmetry_space_group_name_H-M   'P 1'
_cell_length_a   9.19839015
_cell_length_b   9.18050334
_cell_length_c   9.95155355
_cell_angle_alpha   90.23927344
_cell_angle_beta   89.93561799
_cell_angle_gamma   59.90279400
_symmetry_Int_Tables_number   1
_chemical_formula_structural   Al31B5N36
_chemical_formula_sum   'Al31 B5 N36'
_cell_volume   727.05424384
_cell_formula_units_Z   1
loop_
 _symmetry_equiv_pos_site_id
 _symmetry_equiv_pos_as_xyz
  1  'x, y, z'
loop_
 _atom_site_type_symbol
 _atom_site_label
 _atom_site_symmetry_multiplicity
 _atom_site_fract_x
 _atom_site_fract_y
 _atom_site_fract_z
 _atom_site_occupancy
  Al  Al0  1  0.10636238  0.09158341  0.32908231  1
  Al  Al1  1  0.22414729  0.20106334  0.07671229  1
  Al  Al2  1  0.78154842  0.08772793  0.82587028  1
  Al  Al3  1  0.45634683  0.08351992  0.33123797  1
  Al  Al4  1  0.56096693  0.20067880  0.07878945  1
  Al  Al5  1  0.10907903  0.09416052  0.81911682  1
  Al  Al6  1  0.21708940  0.20656696  0.56990854  1
  Al  Al7  1  0.88767538  0.20830602  0.07835826  1
  Al  Al8  1  0.44162365  0.09180864  0.82237564  1
  Al  Al9  1  0.57019404  0.19489718  0.56909546  1
  Al  Al10  1  0.11864592  0.42629217  0.32760189  1
  Al  Al11  1  0.22376423  0.54039382  0.07158528  1
  Al  Al12  1  0.77155859  0.42305025  0.81998333  1
  Al  Al13  1  0.88754444  0.54445589  0.63601691  1
  Al  Al14  1  0.45118098  0.42378599  0.32244419  1
  Al  Al15  1  0.55731361  0.54935563  0.06998193  1
  Al  Al16  1  0.11453946  0.42518835  0.82544497  1
  Al  Al17  1  0.21889471  0.54160565  0.57458485  1
  Al  Al18  1  0.77671600  0.41765855  0.33778028  1
  Al  Al19  1  0.87619694  0.55350536  0.15070025  1
  Al  Al20  1  0.44458669  0.43011814  0.82329902  1
  Al  Al21  1  0.55683902  0.53188505  0.57614721  1
  Al  Al22  1  0.10972674  0.76743083  0.32040397  1
  Al  Al23  1  0.23355585  0.87464693  0.06741281  1
  Al  Al24  1  0.75987664  0.76311065  0.89647597  1
  Al  Al25  1  0.44937530  0.76304560  0.33168686  1
  Al  Al26  1  0.10786237  0.76405629  0.83133654  1
  Al  Al27  1  0.21203929  0.87497642  0.57707323  1
  Al  Al28  1  0.78406611  0.77425880  0.40252714  1
  Al  Al29  1  0.88330711  0.88182151  0.10439893  1
  Al  Al30  1  0.55393476  0.87313151  0.60875582  1
  B  B31  1  0.89401123  0.19196053  0.56635541  1
  B  B32  1  0.77760149  0.09151549  0.31967642  1
  B  B33  1  0.89485860  0.87615784  0.61232609  1
  B  B34  1  0.55298201  0.87397240  0.11474705  1
  B  B35  1  0.44324072  0.76148388  0.81199818  1
  N  N36  1  0.22538288  0.20279924  0.38048231  1
  N  N37  1  0.11018987  0.09418535  0.13742683  1
  N  N38  1  0.88721711  0.20365788  0.88854605  1
  N  N39  1  0.80404121  0.07217615  0.62864041  1
  N  N40  1  0.58213112  0.19118433  0.37610160  1
  N  N41  1  0.45984813  0.06576738  0.13331642  1
  N  N42  1  0.22026769  0.20404435  0.88636624  1
  N  N43  1  0.08470644  0.10696811  0.62441093  1
  N  N44  1  0.88110824  0.18986625  0.40023307  1
  N  N45  1  0.77373149  0.10952001  0.15635308  1
  N  N46  1  0.55719435  0.20248559  0.88648953  1
  N  N47  1  0.43855763  0.10516863  0.63224380  1
  N  N48  1  0.22441881  0.54208341  0.38487672  1
  N  N49  1  0.11377649  0.42902429  0.13354258  1
  N  N50  1  0.88160442  0.54417380  0.83464011  1
  N  N51  1  0.78845035  0.39490190  0.62331716  1
  N  N52  1  0.55330447  0.54034533  0.38746349  1
  N  N53  1  0.44620390  0.43056658  0.13121495  1
  N  N54  1  0.22227210  0.53890802  0.88235575  1
  N  N55  1  0.11692393  0.42451380  0.63202900  1
  N  N56  1  0.88579145  0.54734390  0.34983095  1
  N  N57  1  0.77308585  0.42745277  0.14069050  1
  N  N58  1  0.54316988  0.56320180  0.87624902  1
  N  N59  1  0.44595582  0.42124611  0.63295631  1
  N  N60  1  0.22542949  0.86947936  0.38812339  1
  N  N61  1  0.12166568  0.76219510  0.12950396  1
  N  N62  1  0.88751822  0.87444417  0.90056330  1
  N  N63  1  0.79937644  0.78124650  0.59739189  1
  N  N64  1  0.55293358  0.87116164  0.40514637  1
  N  N65  1  0.45905036  0.77855007  0.13589070  1
  N  N66  1  0.24515715  0.86238660  0.87282003  1
  N  N67  1  0.08355744  0.77497497  0.63473656  1
  N  N68  1  0.87677966  0.89721344  0.33904370  1
  N  N69  1  0.74049609  0.77840291  0.09451312  1
  N  N70  1  0.54164525  0.85871271  0.83445112  1
  N  N71  1  0.43610923  0.75306578  0.64899400  1
