# generated using pymatgen
data_Al31B5N36
_symmetry_space_group_name_H-M   'P 1'
_cell_length_a   9.18272696
_cell_length_b   9.17844470
_cell_length_c   9.85091740
_cell_angle_alpha   89.81006182
_cell_angle_beta   89.85069523
_cell_angle_gamma   59.94951184
_symmetry_Int_Tables_number   1
_chemical_formula_structural   Al31B5N36
_chemical_formula_sum   'Al31 B5 N36'
_cell_volume   718.66129810
_cell_formula_units_Z   1
loop_
 _symmetry_equiv_pos_site_id
 _symmetry_equiv_pos_as_xyz
  1  'x, y, z'
loop_
 _atom_site_type_symbol
 _atom_site_label
 _atom_site_symmetry_multiplicity
 _atom_site_fract_x
 _atom_site_fract_y
 _atom_site_fract_z
 _atom_site_occupancy
  Al  Al0  1  0.10613800  0.09340714  0.31962502  1
  Al  Al1  1  0.22658132  0.19862331  0.06666212  1
  Al  Al2  1  0.78213785  0.09094988  0.80915627  1
  Al  Al3  1  0.45280119  0.08835970  0.32159712  1
  Al  Al4  1  0.56521415  0.19656802  0.07267860  1
  Al  Al5  1  0.10924785  0.09351318  0.80985636  1
  Al  Al6  1  0.21630821  0.20838749  0.56212355  1
  Al  Al7  1  0.88839633  0.20274697  0.07189785  1
  Al  Al8  1  0.44341383  0.08948525  0.81492614  1
  Al  Al9  1  0.56719988  0.19944324  0.56089317  1
  Al  Al10  1  0.11033828  0.42986301  0.31242287  1
  Al  Al11  1  0.22235250  0.54127291  0.06279657  1
  Al  Al12  1  0.77528377  0.42549362  0.81090113  1
  Al  Al13  1  0.89111407  0.53465557  0.56846307  1
  Al  Al14  1  0.45003627  0.42519146  0.31343859  1
  Al  Al15  1  0.55764854  0.54927448  0.05927103  1
  Al  Al16  1  0.11069358  0.42688045  0.81644038  1
  Al  Al17  1  0.21624949  0.54292828  0.56446245  1
  Al  Al18  1  0.77710285  0.42242456  0.32161888  1
  Al  Al19  1  0.87983780  0.54543477  0.06621880  1
  Al  Al20  1  0.44442541  0.43018572  0.81499232  1
  Al  Al21  1  0.55593982  0.53402073  0.56741566  1
  Al  Al22  1  0.10784293  0.76811284  0.31779739  1
  Al  Al23  1  0.23243999  0.87309460  0.05868048  1
  Al  Al24  1  0.77334769  0.76380500  0.81376310  1
  Al  Al25  1  0.44815539  0.76378142  0.31937682  1
  Al  Al26  1  0.10812587  0.76451788  0.81073084  1
  Al  Al27  1  0.21297626  0.87579017  0.56621115  1
  Al  Al28  1  0.77492948  0.77193868  0.35631587  1
  Al  Al29  1  0.88166642  0.87687185  0.07402076  1
  Al  Al30  1  0.55232573  0.87369702  0.59228481  1
  B  B31  1  0.88996220  0.19272930  0.55753147  1
  B  B32  1  0.78016316  0.09530076  0.32467811  1
  B  B33  1  0.89311232  0.88498330  0.55919992  1
  B  B34  1  0.56007929  0.87092327  0.10768002  1
  B  B35  1  0.44434381  0.76090734  0.80286437  1
  N  N36  1  0.22290570  0.20631788  0.37022860  1
  N  N37  1  0.11174341  0.09234290  0.12735420  1
  N  N38  1  0.88716297  0.20294355  0.88010077  1
  N  N39  1  0.80194500  0.08268394  0.61454417  1
  N  N40  1  0.58130942  0.19326530  0.36759760  1
  N  N41  1  0.46111785  0.06505651  0.12368864  1
  N  N42  1  0.22111428  0.20320419  0.87538871  1
  N  N43  1  0.08391219  0.10770833  0.61371466  1
  N  N44  1  0.87791696  0.19338970  0.38867328  1
  N  N45  1  0.78296191  0.09255896  0.15607201  1
  N  N46  1  0.55993388  0.20105143  0.87760551  1
  N  N47  1  0.43882694  0.10526902  0.62227465  1
  N  N48  1  0.22277740  0.53959677  0.37260043  1
  N  N49  1  0.11014996  0.42890458  0.12117195  1
  N  N50  1  0.88549513  0.53900720  0.87185474  1
  N  N51  1  0.78818590  0.39916738  0.61626488  1
  N  N52  1  0.55384019  0.54123798  0.37609177  1
  N  N53  1  0.44764207  0.42903851  0.12052278  1
  N  N54  1  0.22039670  0.54130188  0.87144781  1
  N  N55  1  0.11069172  0.42738317  0.62607270  1
  N  N56  1  0.88925673  0.53800903  0.37646223  1
  N  N57  1  0.77712528  0.42659175  0.12833156  1
  N  N58  1  0.54412195  0.56241837  0.86481441  1
  N  N59  1  0.44320624  0.42399945  0.62296787  1
  N  N60  1  0.22590113  0.87090375  0.37587650  1
  N  N61  1  0.11241698  0.76429317  0.12466359  1
  N  N62  1  0.88623417  0.87388056  0.88118742  1
  N  N63  1  0.79375603  0.77570153  0.61003089  1
  N  N64  1  0.55004843  0.87403081  0.39390910  1
  N  N65  1  0.46100118  0.77721744  0.12390687  1
  N  N66  1  0.24415692  0.86099365  0.86267419  1
  N  N67  1  0.08329510  0.77638813  0.61518199  1
  N  N68  1  0.88125873  0.90020224  0.38907180  1
  N  N69  1  0.74888575  0.77706203  0.12249540  1
  N  N70  1  0.54247838  0.85677625  0.83030073  1
  N  N71  1  0.43563209  0.75510654  0.63840519  1
