# generated using pymatgen
data_Al31B5N36
_symmetry_space_group_name_H-M   'P 1'
_cell_length_a   9.19065021
_cell_length_b   9.16502273
_cell_length_c   10.09450590
_cell_angle_alpha   89.88613799
_cell_angle_beta   89.91064890
_cell_angle_gamma   60.14907588
_symmetry_Int_Tables_number   1
_chemical_formula_structural   Al31B5N36
_chemical_formula_sum   'Al31 B5 N36'
_cell_volume   737.47102974
_cell_formula_units_Z   1
loop_
 _symmetry_equiv_pos_site_id
 _symmetry_equiv_pos_as_xyz
  1  'x, y, z'
loop_
 _atom_site_type_symbol
 _atom_site_label
 _atom_site_symmetry_multiplicity
 _atom_site_fract_x
 _atom_site_fract_y
 _atom_site_fract_z
 _atom_site_occupancy
  Al  Al0  1  0.10580496  0.08639443  0.32255400  1
  Al  Al1  1  0.22895455  0.20391639  0.14035288  1
  Al  Al2  1  0.78030579  0.08937828  0.81882147  1
  Al  Al3  1  0.44950293  0.08742634  0.39419872  1
  Al  Al4  1  0.56237231  0.20339116  0.07163840  1
  Al  Al5  1  0.10273907  0.09075838  0.81059734  1
  Al  Al6  1  0.21994325  0.21297824  0.63584396  1
  Al  Al7  1  0.88846452  0.20397016  0.07131390  1
  Al  Al8  1  0.44105185  0.08196321  0.87972848  1
  Al  Al9  1  0.57753150  0.20016487  0.56552229  1
  Al  Al10  1  0.11097961  0.42347701  0.38714886  1
  Al  Al11  1  0.22429217  0.54397408  0.06638504  1
  Al  Al12  1  0.77193252  0.43636330  0.88065624  1
  Al  Al13  1  0.89159072  0.53785231  0.64089013  1
  Al  Al14  1  0.45387296  0.41956941  0.31660162  1
  Al  Al15  1  0.54376713  0.55776926  0.06521140  1
  Al  Al16  1  0.10496237  0.42464748  0.88946502  1
  Al  Al17  1  0.22126333  0.54597400  0.56884366  1
  Al  Al18  1  0.78529166  0.41720182  0.39237563  1
  Al  Al19  1  0.87677334  0.54628119  0.14423184  1
  Al  Al20  1  0.44309432  0.43170000  0.81622101  1
  Al  Al21  1  0.55287027  0.53814276  0.57259990  1
  Al  Al22  1  0.11216153  0.76382194  0.31301352  1
  Al  Al23  1  0.23019229  0.87894138  0.05997751  1
  Al  Al24  1  0.76377546  0.76492715  0.88970439  1
  Al  Al25  1  0.45134800  0.76062346  0.32309674  1
  Al  Al26  1  0.10838234  0.76357492  0.82479797  1
  Al  Al27  1  0.21302078  0.87668851  0.56845022  1
  Al  Al28  1  0.78565974  0.76951330  0.39535359  1
  Al  Al29  1  0.88124432  0.88106297  0.10377892  1
  Al  Al30  1  0.55764687  0.87383809  0.61593608  1
  B  B31  1  0.90089626  0.18360809  0.55863845  1
  B  B32  1  0.77784592  0.08923462  0.31409207  1
  B  B33  1  0.89641030  0.87316745  0.60857812  1
  B  B34  1  0.55209517  0.87358149  0.10259044  1
  B  B35  1  0.44070031  0.76118663  0.80496907  1
  N  N36  1  0.23070450  0.20301476  0.32848134  1
  N  N37  1  0.10615798  0.09300578  0.13158471  1
  N  N38  1  0.88867612  0.20023995  0.88103532  1
  N  N39  1  0.80708915  0.07046919  0.62391922  1
  N  N40  1  0.58775409  0.18926305  0.37277085  1
  N  N41  1  0.45578236  0.06345236  0.07916321  1
  N  N42  1  0.21999118  0.20738037  0.82557102  1
  N  N43  1  0.08388518  0.10517506  0.61714018  1
  N  N44  1  0.88610169  0.17910092  0.39277551  1
  N  N45  1  0.77143978  0.11078423  0.15201721  1
  N  N46  1  0.55800034  0.20663334  0.87997271  1
  N  N47  1  0.44039487  0.10507377  0.58486488  1
  N  N48  1  0.22804663  0.54132526  0.37766591  1
  N  N49  1  0.10374953  0.42836231  0.08039054  1
  N  N50  1  0.88642323  0.54382321  0.82660536  1
  N  N51  1  0.79234023  0.40103473  0.58595630  1
  N  N52  1  0.55380561  0.53852813  0.38014236  1
  N  N53  1  0.44423612  0.42984716  0.12785346  1
  N  N54  1  0.22334452  0.54046127  0.87593667  1
  N  N55  1  0.10588245  0.42868040  0.57586528  1
  N  N56  1  0.88785928  0.54054871  0.33153125  1
  N  N57  1  0.77306403  0.43600601  0.07710303  1
  N  N58  1  0.53401129  0.57190685  0.87026673  1
  N  N59  1  0.44605101  0.42315123  0.62939843  1
  N  N60  1  0.22783641  0.86661991  0.38237546  1
  N  N61  1  0.12126182  0.76299215  0.12422023  1
  N  N62  1  0.88903720  0.87597806  0.89477239  1
  N  N63  1  0.80189637  0.77779006  0.59150155  1
  N  N64  1  0.55977117  0.85942007  0.39569029  1
  N  N65  1  0.45488096  0.78188577  0.12995864  1
  N  N66  1  0.24491889  0.86464812  0.86795125  1
  N  N67  1  0.08498740  0.77498950  0.62997982  1
  N  N68  1  0.87829260  0.89192292  0.32789796  1
  N  N69  1  0.73964238  0.77696543  0.08582609  1
  N  N70  1  0.54612676  0.86074701  0.81919661  1
  N  N71  1  0.43286864  0.75641659  0.64471949  1
