# generated using pymatgen
data_Al31B5N36
_symmetry_space_group_name_H-M   'P 1'
_cell_length_a   9.19348867
_cell_length_b   9.19008850
_cell_length_c   9.97996784
_cell_angle_alpha   89.58778911
_cell_angle_beta   89.26543820
_cell_angle_gamma   59.95277361
_symmetry_Int_Tables_number   1
_chemical_formula_structural   Al31B5N36
_chemical_formula_sum   'Al31 B5 N36'
_cell_volume   729.82220801
_cell_formula_units_Z   1
loop_
 _symmetry_equiv_pos_site_id
 _symmetry_equiv_pos_as_xyz
  1  'x, y, z'
loop_
 _atom_site_type_symbol
 _atom_site_label
 _atom_site_symmetry_multiplicity
 _atom_site_fract_x
 _atom_site_fract_y
 _atom_site_fract_z
 _atom_site_occupancy
  Al  Al0  1  0.09918984  0.09495866  0.40627371  1
  Al  Al1  1  0.22688636  0.19877708  0.15127865  1
  Al  Al2  1  0.78147972  0.09132461  0.86285573  1
  Al  Al3  1  0.44838524  0.09035487  0.39496640  1
  Al  Al4  1  0.55795732  0.20499972  0.07392802  1
  Al  Al5  1  0.11457425  0.09055257  0.89654506  1
  Al  Al6  1  0.21815162  0.20682395  0.65060569  1
  Al  Al7  1  0.88746089  0.20147849  0.14206839  1
  Al  Al8  1  0.43932575  0.07848339  0.90274444  1
  Al  Al9  1  0.58017602  0.19449513  0.58651310  1
  Al  Al10  1  0.10828613  0.42919846  0.40189540  1
  Al  Al11  1  0.21661090  0.54298113  0.15188283  1
  Al  Al12  1  0.77182231  0.43295020  0.89418476  1
  Al  Al13  1  0.88632081  0.54005093  0.65115587  1
  Al  Al14  1  0.45383331  0.41735885  0.33772448  1
  Al  Al15  1  0.55943476  0.54943365  0.14426171  1
  Al  Al16  1  0.11056102  0.42672216  0.90133809  1
  Al  Al17  1  0.20696131  0.54692108  0.64716443  1
  Al  Al18  1  0.78604241  0.41343140  0.40246610  1
  Al  Al19  1  0.88240957  0.54475866  0.15053334  1
  Al  Al20  1  0.44638728  0.42920176  0.82414809  1
  Al  Al21  1  0.55702689  0.53912856  0.60234034  1
  Al  Al22  1  0.09783938  0.77452922  0.40593371  1
  Al  Al23  1  0.22744983  0.87410624  0.15057510  1
  Al  Al24  1  0.76909458  0.76083892  0.90007517  1
  Al  Al25  1  0.44386180  0.76973082  0.37883089  1
  Al  Al26  1  0.11673622  0.75746831  0.89792397  1
  Al  Al27  1  0.21750424  0.87535557  0.64677966  1
  Al  Al28  1  0.77552566  0.77375848  0.40105216  1
  Al  Al29  1  0.88046836  0.88019727  0.14356430  1
  Al  Al30  1  0.55695863  0.87329254  0.64674359  1
  B  B31  1  0.89674836  0.19370694  0.66115016  1
  B  B32  1  0.78000430  0.09366983  0.36100047  1
  B  B33  1  0.89591972  0.87929493  0.66216747  1
  B  B34  1  0.55469000  0.87367809  0.15729308  1
  B  B35  1  0.44603375  0.75577948  0.85727142  1
  N  N36  1  0.21903824  0.20467284  0.34231725  1
  N  N37  1  0.11138501  0.09474348  0.08609249  1
  N  N38  1  0.89475457  0.20991946  0.82217063  1
  N  N39  1  0.80495027  0.08077134  0.63797434  1
  N  N40  1  0.59241535  0.18850214  0.38613806  1
  N  N41  1  0.45687038  0.06747259  0.09796131  1
  N  N42  1  0.22265991  0.20443190  0.83966763  1
  N  N43  1  0.08630364  0.10600669  0.59898140  1
  N  N44  1  0.87463626  0.18965970  0.33673548  1
  N  N45  1  0.78898741  0.09004209  0.06901193  1
  N  N46  1  0.54566217  0.20816004  0.88049097  1
  N  N47  1  0.44245245  0.09438337  0.58700594  1
  N  N48  1  0.21419852  0.54708023  0.34675727  1
  N  N49  1  0.11167787  0.42676544  0.09195328  1
  N  N50  1  0.88810079  0.53968056  0.84039291  1
  N  N51  1  0.79302859  0.39829884  0.59482607  1
  N  N52  1  0.56185815  0.53711865  0.36075533  1
  N  N53  1  0.45092138  0.42217170  0.14240870  1
  N  N54  1  0.21601589  0.54010298  0.83810523  1
  N  N55  1  0.10739810  0.42774345  0.58925205  1
  N  N56  1  0.88526309  0.54213320  0.34255505  1
  N  N57  1  0.78066290  0.42563495  0.08676439  1
  N  N58  1  0.54017436  0.56897955  0.84978334  1
  N  N59  1  0.44464173  0.42395144  0.62773255  1
  N  N60  1  0.21416777  0.87721396  0.34277949  1
  N  N61  1  0.11148039  0.76302136  0.08826855  1
  N  N62  1  0.89422897  0.86003207  0.82434992  1
  N  N63  1  0.78670694  0.77668471  0.59450641  1
  N  N64  1  0.56259775  0.87748691  0.32233794  1
  N  N65  1  0.45835971  0.77765631  0.12683502  1
  N  N66  1  0.25100407  0.85643380  0.83964279  1
  N  N67  1  0.08425342  0.77807440  0.59848775  1
  N  N68  1  0.87352930  0.90434744  0.33796821  1
  N  N69  1  0.75500526  0.77465009  0.09451481  1
  N  N70  1  0.54074768  0.85436390  0.83770612  1
  N  N71  1  0.44076612  0.77079644  0.57543776  1
