# generated using pymatgen
data_Al31B5N36
_symmetry_space_group_name_H-M   'P 1'
_cell_length_a   9.18562265
_cell_length_b   9.14153703
_cell_length_c   10.15663953
_cell_angle_alpha   89.62575958
_cell_angle_beta   89.73512743
_cell_angle_gamma   60.17914483
_symmetry_Int_Tables_number   1
_chemical_formula_structural   Al31B5N36
_chemical_formula_sum   'Al31 B5 N36'
_cell_volume   739.91160357
_cell_formula_units_Z   1
loop_
 _symmetry_equiv_pos_site_id
 _symmetry_equiv_pos_as_xyz
  1  'x, y, z'
loop_
 _atom_site_type_symbol
 _atom_site_label
 _atom_site_symmetry_multiplicity
 _atom_site_fract_x
 _atom_site_fract_y
 _atom_site_fract_z
 _atom_site_occupancy
  Al  Al0  1  0.10312734  0.08646244  0.31626873  1
  Al  Al1  1  0.22965071  0.20382521  0.13927050  1
  Al  Al2  1  0.78014773  0.08947125  0.82280983  1
  Al  Al3  1  0.44785165  0.08874403  0.39372373  1
  Al  Al4  1  0.56043719  0.20356545  0.06969661  1
  Al  Al5  1  0.10594079  0.08992440  0.81695036  1
  Al  Al6  1  0.22094221  0.21472396  0.63888723  1
  Al  Al7  1  0.88855235  0.20300840  0.07405240  1
  Al  Al8  1  0.44216034  0.08098560  0.88030346  1
  Al  Al9  1  0.57823195  0.20138569  0.56273534  1
  Al  Al10  1  0.11004180  0.42304827  0.38697878  1
  Al  Al11  1  0.22435595  0.54410265  0.06612088  1
  Al  Al12  1  0.77291234  0.43568019  0.88341576  1
  Al  Al13  1  0.89208821  0.53899181  0.64076278  1
  Al  Al14  1  0.45359663  0.41972309  0.31633730  1
  Al  Al15  1  0.54399595  0.55681915  0.06505070  1
  Al  Al16  1  0.10452884  0.42558130  0.89055480  1
  Al  Al17  1  0.22093052  0.54686841  0.56719500  1
  Al  Al18  1  0.78590003  0.40982040  0.38986222  1
  Al  Al19  1  0.87613884  0.54534177  0.14608702  1
  Al  Al20  1  0.44311310  0.43168065  0.81531039  1
  Al  Al21  1  0.55216320  0.53795582  0.57206160  1
  Al  Al22  1  0.11157925  0.76449289  0.31214059  1
  Al  Al23  1  0.23257259  0.87640601  0.05916198  1
  Al  Al24  1  0.76418489  0.76378341  0.88961824  1
  Al  Al25  1  0.45102719  0.76103342  0.32417079  1
  Al  Al26  1  0.10950592  0.76311329  0.82452157  1
  Al  Al27  1  0.21211961  0.87924606  0.56819986  1
  Al  Al28  1  0.78525426  0.77074998  0.39430596  1
  Al  Al29  1  0.88118999  0.87863803  0.10447606  1
  Al  Al30  1  0.55762998  0.87516168  0.61534085  1
  B  B31  1  0.89825235  0.19136556  0.58705418  1
  B  B32  1  0.77953702  0.09261087  0.30714708  1
  B  B33  1  0.89793972  0.87513690  0.61031076  1
  B  B34  1  0.55239745  0.87231337  0.10219870  1
  B  B35  1  0.44205197  0.76022854  0.80476008  1
  N  N36  1  0.22906787  0.20295135  0.32662895  1
  N  N37  1  0.10984375  0.09112304  0.12594712  1
  N  N38  1  0.88986401  0.19955487  0.88280124  1
  N  N39  1  0.80810186  0.07627664  0.62680423  1
  N  N40  1  0.58668313  0.18965052  0.37129726  1
  N  N41  1  0.45572667  0.06235920  0.07786640  1
  N  N42  1  0.22144247  0.20832833  0.82679475  1
  N  N43  1  0.08331016  0.10687124  0.62376458  1
  N  N44  1  0.87975166  0.18117636  0.36458136  1
  N  N45  1  0.76860428  0.10808516  0.14518580  1
  N  N46  1  0.55720682  0.20701674  0.87955989  1
  N  N47  1  0.43967271  0.10664275  0.58384556  1
  N  N48  1  0.22739132  0.54164447  0.37756913  1
  N  N49  1  0.10254846  0.42933341  0.08015084  1
  N  N50  1  0.88673701  0.54281410  0.82505310  1
  N  N51  1  0.79449633  0.39332219  0.58726791  1
  N  N52  1  0.55337390  0.53868349  0.38251460  1
  N  N53  1  0.44385992  0.42956732  0.12822928  1
  N  N54  1  0.22412552  0.54019276  0.87652589  1
  N  N55  1  0.10525151  0.42907281  0.57516157  1
  N  N56  1  0.88612955  0.53975300  0.33313807  1
  N  N57  1  0.77318682  0.43580245  0.07658385  1
  N  N58  1  0.53524274  0.57077171  0.87008723  1
  N  N59  1  0.44490773  0.42361764  0.62943069  1
  N  N60  1  0.22626092  0.86862165  0.38295212  1
  N  N61  1  0.12192732  0.76266214  0.12394010  1
  N  N62  1  0.89033858  0.87359226  0.89328154  1
  N  N63  1  0.80196617  0.78141348  0.59076662  1
  N  N64  1  0.55921643  0.85986843  0.39693145  1
  N  N65  1  0.45576526  0.78004976  0.13114664  1
  N  N66  1  0.24751299  0.86238711  0.86831646  1
  N  N67  1  0.08562896  0.77611021  0.63033723  1
  N  N68  1  0.87783526  0.89120399  0.32276735  1
  N  N69  1  0.73965636  0.77505428  0.08451463  1
  N  N70  1  0.54700530  0.86045909  0.81818429  1
  N  N71  1  0.43356428  0.75647810  0.64471225  1
