# generated using pymatgen
data_Al31B5N36
_symmetry_space_group_name_H-M   'P 1'
_cell_length_a   9.19035637
_cell_length_b   9.21264615
_cell_length_c   10.00053713
_cell_angle_alpha   89.97349942
_cell_angle_beta   89.89417862
_cell_angle_gamma   60.10606204
_symmetry_Int_Tables_number   1
_chemical_formula_structural   Al31B5N36
_chemical_formula_sum   'Al31 B5 N36'
_cell_volume   734.06253852
_cell_formula_units_Z   1
loop_
 _symmetry_equiv_pos_site_id
 _symmetry_equiv_pos_as_xyz
  1  'x, y, z'
loop_
 _atom_site_type_symbol
 _atom_site_label
 _atom_site_symmetry_multiplicity
 _atom_site_fract_x
 _atom_site_fract_y
 _atom_site_fract_z
 _atom_site_occupancy
  Al  Al0  1  0.10898967  0.08767626  0.32488642  1
  Al  Al1  1  0.22764980  0.19594711  0.07857414  1
  Al  Al2  1  0.78209088  0.08919680  0.82285759  1
  Al  Al3  1  0.45707248  0.08238869  0.32952537  1
  Al  Al4  1  0.56159473  0.20156266  0.07647995  1
  Al  Al5  1  0.10802358  0.09418109  0.81525148  1
  Al  Al6  1  0.21881513  0.19929132  0.56842207  1
  Al  Al7  1  0.88855321  0.20561730  0.07416149  1
  Al  Al8  1  0.44036226  0.09404202  0.81947760  1
  Al  Al9  1  0.56991527  0.19568969  0.56599299  1
  Al  Al10  1  0.10773262  0.43056538  0.38471062  1
  Al  Al11  1  0.22614058  0.54444923  0.07326756  1
  Al  Al12  1  0.77270041  0.43647162  0.87856435  1
  Al  Al13  1  0.89186179  0.54159694  0.64698117  1
  Al  Al14  1  0.45445983  0.42233472  0.32088106  1
  Al  Al15  1  0.54682946  0.55746935  0.06883310  1
  Al  Al16  1  0.10295387  0.43206184  0.89306612  1
  Al  Al17  1  0.22174870  0.54247872  0.57506210  1
  Al  Al18  1  0.78667284  0.41751440  0.40599233  1
  Al  Al19  1  0.87687244  0.54648439  0.14861211  1
  Al  Al20  1  0.44463673  0.43123218  0.82133346  1
  Al  Al21  1  0.55131632  0.53996327  0.58132156  1
  Al  Al22  1  0.11115432  0.76538059  0.31761733  1
  Al  Al23  1  0.23194797  0.87713345  0.06459126  1
  Al  Al24  1  0.75814019  0.76894631  0.89673172  1
  Al  Al25  1  0.45172445  0.76007987  0.33074373  1
  Al  Al26  1  0.10770481  0.76481404  0.83029552  1
  Al  Al27  1  0.21347965  0.87107744  0.57350242  1
  Al  Al28  1  0.78372306  0.77117892  0.39970180  1
  Al  Al29  1  0.88206631  0.88213241  0.10683719  1
  Al  Al30  1  0.55559499  0.87209325  0.60889282  1
  B  B31  1  0.90719043  0.15756800  0.55871336  1
  B  B32  1  0.77847676  0.08949151  0.31749488  1
  B  B33  1  0.89646546  0.87032747  0.61123662  1
  B  B34  1  0.55478041  0.87373744  0.11466701  1
  B  B35  1  0.43973952  0.76402888  0.81050113  1
  N  N36  1  0.22678305  0.19758713  0.37532436  1
  N  N37  1  0.10870253  0.09417608  0.13609892  1
  N  N38  1  0.88975188  0.20040135  0.88230394  1
  N  N39  1  0.80794319  0.06794883  0.62383741  1
  N  N40  1  0.58327295  0.18968690  0.37457263  1
  N  N41  1  0.46188085  0.06533292  0.13231903  1
  N  N42  1  0.22121366  0.19998187  0.88343623  1
  N  N43  1  0.08415638  0.10081414  0.62079775  1
  N  N44  1  0.88628640  0.17639664  0.39961752  1
  N  N45  1  0.77357536  0.11144403  0.15569490  1
  N  N46  1  0.55757765  0.20370681  0.88426726  1
  N  N47  1  0.43901102  0.10521271  0.62999940  1
  N  N48  1  0.22772887  0.54310883  0.38071960  1
  N  N49  1  0.10461366  0.43311535  0.09231544  1
  N  N50  1  0.88571897  0.54842384  0.83390139  1
  N  N51  1  0.78466016  0.41977823  0.59723413  1
  N  N52  1  0.55502444  0.53868445  0.38586406  1
  N  N53  1  0.44747158  0.42974635  0.13088362  1
  N  N54  1  0.22430910  0.54177822  0.88007782  1
  N  N55  1  0.10640863  0.42811394  0.58350937  1
  N  N56  1  0.88307099  0.54370459  0.33723869  1
  N  N57  1  0.77571400  0.43572198  0.07945978  1
  N  N58  1  0.53401868  0.57177670  0.87336760  1
  N  N59  1  0.44765173  0.41994057  0.63239488  1
  N  N60  1  0.22664979  0.86714716  0.38588820  1
  N  N61  1  0.12177668  0.76422341  0.12805904  1
  N  N62  1  0.88712268  0.87709183  0.89905684  1
  N  N63  1  0.80081611  0.77886439  0.59538113  1
  N  N64  1  0.55312483  0.87033906  0.40434061  1
  N  N65  1  0.45701297  0.78155316  0.13574534  1
  N  N66  1  0.24311427  0.86518389  0.87149528  1
  N  N67  1  0.08434038  0.77276518  0.63376403  1
  N  N68  1  0.87655848  0.89343573  0.33275361  1
  N  N69  1  0.74077126  0.77842953  0.09386931  1
  N  N70  1  0.54221007  0.86013741  0.83032259  1
  N  N71  1  0.43038137  0.75902532  0.64833849  1
