# generated using pymatgen
data_Al31B5N36
_symmetry_space_group_name_H-M   'P 1'
_cell_length_a   9.15576761
_cell_length_b   9.17091749
_cell_length_c   10.23273624
_cell_angle_alpha   89.44558039
_cell_angle_beta   89.43287728
_cell_angle_gamma   60.22718224
_symmetry_Int_Tables_number   1
_chemical_formula_structural   Al31B5N36
_chemical_formula_sum   'Al31 B5 N36'
_cell_volume   745.74750205
_cell_formula_units_Z   1
loop_
 _symmetry_equiv_pos_site_id
 _symmetry_equiv_pos_as_xyz
  1  'x, y, z'
loop_
 _atom_site_type_symbol
 _atom_site_label
 _atom_site_symmetry_multiplicity
 _atom_site_fract_x
 _atom_site_fract_y
 _atom_site_fract_z
 _atom_site_occupancy
  Al  Al0  1  0.09793981  0.10397652  0.39379510  1
  Al  Al1  1  0.22564035  0.19873445  0.13797072  1
  Al  Al2  1  0.77659831  0.08486919  0.82459862  1
  Al  Al3  1  0.44781151  0.09058926  0.37922720  1
  Al  Al4  1  0.56015374  0.20490452  0.06379271  1
  Al  Al5  1  0.10925583  0.09740727  0.88009064  1
  Al  Al6  1  0.22109201  0.20474335  0.63875200  1
  Al  Al7  1  0.88760553  0.20599784  0.13513779  1
  Al  Al8  1  0.43970932  0.07853861  0.89357546  1
  Al  Al9  1  0.57387076  0.19017230  0.56908533  1
  Al  Al10  1  0.11269240  0.43051243  0.38869729  1
  Al  Al11  1  0.22231317  0.53686843  0.14090562  1
  Al  Al12  1  0.77931162  0.42790144  0.88081213  1
  Al  Al13  1  0.89100447  0.54058308  0.63948239  1
  Al  Al14  1  0.46452847  0.42136212  0.31948764  1
  Al  Al15  1  0.54896620  0.55362622  0.06159309  1
  Al  Al16  1  0.11146884  0.42929827  0.89018529  1
  Al  Al17  1  0.21465778  0.53669349  0.63447009  1
  Al  Al18  1  0.78739403  0.41767803  0.39356479  1
  Al  Al19  1  0.88064469  0.54462122  0.14123055  1
  Al  Al20  1  0.45049279  0.42536893  0.81471512  1
  Al  Al21  1  0.55187938  0.53673888  0.57558205  1
  Al  Al22  1  0.10535578  0.78127046  0.31632908  1
  Al  Al23  1  0.23751253  0.86613414  0.05980752  1
  Al  Al24  1  0.76236356  0.75670706  0.89690546  1
  Al  Al25  1  0.44566397  0.76355146  0.31638825  1
  Al  Al26  1  0.10645952  0.76683531  0.82099462  1
  Al  Al27  1  0.20872299  0.87243795  0.57792677  1
  Al  Al28  1  0.77990159  0.77541952  0.38317804  1
  Al  Al29  1  0.88691206  0.87777059  0.07380528  1
  Al  Al30  1  0.55811672  0.87426669  0.64266985  1
  B  B31  1  0.90888115  0.22476461  0.65173083  1
  B  B32  1  0.78227823  0.09309780  0.34483811  1
  B  B33  1  0.88184476  0.87212405  0.60789764  1
  B  B34  1  0.56079726  0.87511322  0.14633396  1
  B  B35  1  0.43908309  0.75645872  0.80872411  1
  N  N36  1  0.21898941  0.20704011  0.32499135  1
  N  N37  1  0.10799890  0.10048205  0.06801233  1
  N  N38  1  0.89202051  0.21176010  0.80133827  1
  N  N39  1  0.78333471  0.05051525  0.63787376  1
  N  N40  1  0.59229371  0.19340986  0.37724283  1
  N  N41  1  0.45514435  0.06606827  0.08507661  1
  N  N42  1  0.22311499  0.20654268  0.82404701  1
  N  N43  1  0.07921507  0.11505906  0.58665956  1
  N  N44  1  0.87681568  0.19660568  0.32596823  1
  N  N45  1  0.78062175  0.10075994  0.08490399  1
  N  N46  1  0.54889682  0.20689759  0.87527795  1
  N  N47  1  0.43700363  0.08590148  0.56647502  1
  N  N48  1  0.22451806  0.54083902  0.33346292  1
  N  N49  1  0.11107386  0.42907716  0.07713208  1
  N  N50  1  0.88881059  0.54122347  0.82438659  1
  N  N51  1  0.79664428  0.39922268  0.58664853  1
  N  N52  1  0.55479928  0.54780484  0.38884210  1
  N  N53  1  0.45613436  0.42545092  0.13020534  1
  N  N54  1  0.21966988  0.53707754  0.82444401  1
  N  N55  1  0.11008975  0.42469238  0.57339382  1
  N  N56  1  0.88794455  0.54249377  0.32929323  1
  N  N57  1  0.78374617  0.42631366  0.06948766  1
  N  N58  1  0.53840254  0.56594554  0.86965724  1
  N  N59  1  0.45267234  0.41362031  0.62611594  1
  N  N60  1  0.22938463  0.87117774  0.39109684  1
  N  N61  1  0.11503890  0.76884082  0.12691717  1
  N  N62  1  0.89211797  0.86328464  0.88545324  1
  N  N63  1  0.78740536  0.76919883  0.57664908  1
  N  N64  1  0.56540229  0.87951116  0.30751506  1
  N  N65  1  0.45390021  0.77141442  0.13093556  1
  N  N66  1  0.24797339  0.85665407  0.86759631  1
  N  N67  1  0.07331617  0.77745036  0.62744110  1
  N  N68  1  0.87624784  0.91016782  0.34890097  1
  N  N69  1  0.74789541  0.77176228  0.08666731  1
  N  N70  1  0.54408342  0.85962014  0.82656390  1
  N  N71  1  0.43308217  0.75410395  0.64820589  1
