# generated using pymatgen
data_Al31B5N36
_symmetry_space_group_name_H-M   'P 1'
_cell_length_a   9.16502397
_cell_length_b   9.14530279
_cell_length_c   10.16692027
_cell_angle_alpha   89.62574442
_cell_angle_beta   89.34271431
_cell_angle_gamma   60.21639272
_symmetry_Int_Tables_number   1
_chemical_formula_structural   Al31B5N36
_chemical_formula_sum   'Al31 B5 N36'
_cell_volume   739.54708181
_cell_formula_units_Z   1
loop_
 _symmetry_equiv_pos_site_id
 _symmetry_equiv_pos_as_xyz
  1  'x, y, z'
loop_
 _atom_site_type_symbol
 _atom_site_label
 _atom_site_symmetry_multiplicity
 _atom_site_fract_x
 _atom_site_fract_y
 _atom_site_fract_z
 _atom_site_occupancy
  Al  Al0  1  0.09819021  0.10230646  0.39568770  1
  Al  Al1  1  0.22476337  0.20043259  0.13977266  1
  Al  Al2  1  0.78200285  0.08674249  0.86848887  1
  Al  Al3  1  0.44657746  0.09067167  0.38247951  1
  Al  Al4  1  0.55482670  0.20700104  0.06605564  1
  Al  Al5  1  0.10938485  0.09648594  0.87753223  1
  Al  Al6  1  0.21773923  0.20767761  0.63960265  1
  Al  Al7  1  0.88722093  0.20573951  0.13259892  1
  Al  Al8  1  0.43938231  0.07809678  0.89371796  1
  Al  Al9  1  0.57805287  0.19421717  0.57061116  1
  Al  Al10  1  0.11011536  0.43025726  0.39047604  1
  Al  Al11  1  0.21864722  0.54257227  0.14237787  1
  Al  Al12  1  0.77922524  0.42582579  0.87632850  1
  Al  Al13  1  0.88728837  0.54051223  0.63933167  1
  Al  Al14  1  0.46195629  0.42259664  0.32032947  1
  Al  Al15  1  0.54912734  0.55260200  0.06043793  1
  Al  Al16  1  0.10983240  0.42899118  0.89012144  1
  Al  Al17  1  0.20641814  0.54716978  0.63818603  1
  Al  Al18  1  0.78494368  0.41616839  0.39610128  1
  Al  Al19  1  0.88043248  0.54277702  0.14067813  1
  Al  Al20  1  0.44841577  0.42598238  0.81275229  1
  Al  Al21  1  0.55216810  0.53692156  0.57630591  1
  Al  Al22  1  0.10145140  0.77080799  0.38661990  1
  Al  Al23  1  0.24203302  0.87003693  0.06273171  1
  Al  Al24  1  0.76694911  0.75976235  0.89595924  1
  Al  Al25  1  0.44519003  0.76228027  0.31617620  1
  Al  Al26  1  0.11208934  0.75591401  0.88801160  1
  Al  Al27  1  0.21718281  0.87457313  0.58459160  1
  Al  Al28  1  0.77624995  0.77428848  0.38409479  1
  Al  Al29  1  0.88337412  0.87880307  0.12418419  1
  Al  Al30  1  0.56045155  0.87648543  0.64506098  1
  B  B31  1  0.89589713  0.19192473  0.64814320  1
  B  B32  1  0.78110399  0.09404432  0.34557743  1
  B  B33  1  0.88915241  0.88322173  0.61379506  1
  B  B34  1  0.56066765  0.87488713  0.14767727  1
  B  B35  1  0.44103533  0.75698325  0.80982644  1
  N  N36  1  0.21855857  0.20698958  0.32767964  1
  N  N37  1  0.10765239  0.10159834  0.07021881  1
  N  N38  1  0.89012282  0.20452180  0.80621210  1
  N  N39  1  0.80623274  0.07319779  0.61457893  1
  N  N40  1  0.59245545  0.19087630  0.37293337  1
  N  N41  1  0.45511310  0.06597668  0.08765184  1
  N  N42  1  0.22320084  0.20669215  0.82555487  1
  N  N43  1  0.08202435  0.11164680  0.58893354  1
  N  N44  1  0.87545927  0.19297958  0.32459650  1
  N  N45  1  0.78446340  0.09650204  0.06628570  1
  N  N46  1  0.54560821  0.20853539  0.87604010  1
  N  N47  1  0.44011958  0.09018820  0.57068307  1
  N  N48  1  0.21956312  0.54434067  0.33193665  1
  N  N49  1  0.11111905  0.42895619  0.07904130  1
  N  N50  1  0.88803125  0.54022173  0.82534503  1
  N  N51  1  0.79208813  0.39772388  0.58676484  1
  N  N52  1  0.55296025  0.54733522  0.38746084  1
  N  N53  1  0.45461778  0.42632033  0.13186778  1
  N  N54  1  0.21621109  0.54075586  0.82441292  1
  N  N55  1  0.10774626  0.42815750  0.57514737  1
  N  N56  1  0.88594996  0.54105534  0.33050039  1
  N  N57  1  0.78271607  0.42523695  0.06887630  1
  N  N58  1  0.53800520  0.56449632  0.86907313  1
  N  N59  1  0.44639817  0.41869681  0.62402697  1
  N  N60  1  0.23298058  0.87189362  0.39029219  1
  N  N61  1  0.11573446  0.76011833  0.08069502  1
  N  N62  1  0.88950797  0.86047740  0.84724326  1
  N  N63  1  0.78621009  0.78199534  0.57648557  1
  N  N64  1  0.56386309  0.87958969  0.30929083  1
  N  N65  1  0.45724544  0.77020193  0.13065386  1
  N  N66  1  0.25209650  0.85778190  0.86752141  1
  N  N67  1  0.07711096  0.77536796  0.58090734  1
  N  N68  1  0.87725309  0.90436642  0.32091201  1
  N  N69  1  0.75058641  0.77308664  0.08887560  1
  N  N70  1  0.54625511  0.85823020  0.82943377  1
  N  N71  1  0.43878206  0.75444125  0.64858862  1
