# generated using pymatgen
data_Al31B5N36
_symmetry_space_group_name_H-M   'P 1'
_cell_length_a   9.16136061
_cell_length_b   9.20079569
_cell_length_c   10.19006311
_cell_angle_alpha   89.51602108
_cell_angle_beta   89.22215085
_cell_angle_gamma   59.91287706
_symmetry_Int_Tables_number   1
_chemical_formula_structural   Al31B5N36
_chemical_formula_sum   'Al31 B5 N36'
_cell_volume   743.13912202
_cell_formula_units_Z   1
loop_
 _symmetry_equiv_pos_site_id
 _symmetry_equiv_pos_as_xyz
  1  'x, y, z'
loop_
 _atom_site_type_symbol
 _atom_site_label
 _atom_site_symmetry_multiplicity
 _atom_site_fract_x
 _atom_site_fract_y
 _atom_site_fract_z
 _atom_site_occupancy
  Al  Al0  1  0.09645077  0.10217094  0.39319217  1
  Al  Al1  1  0.22263421  0.19728475  0.13689976  1
  Al  Al2  1  0.78006940  0.08530624  0.81094082  1
  Al  Al3  1  0.44672792  0.08910078  0.38030178  1
  Al  Al4  1  0.55729800  0.20445084  0.07133893  1
  Al  Al5  1  0.11195646  0.09716254  0.87675289  1
  Al  Al6  1  0.22457804  0.20763127  0.63842748  1
  Al  Al7  1  0.88637914  0.20930935  0.13934317  1
  Al  Al8  1  0.44578494  0.08052495  0.88970392  1
  Al  Al9  1  0.57731159  0.18992960  0.56077505  1
  Al  Al10  1  0.11013444  0.42498771  0.38394726  1
  Al  Al11  1  0.22607962  0.54267489  0.07013015  1
  Al  Al12  1  0.77747639  0.43438618  0.87816767  1
  Al  Al13  1  0.89582171  0.54157830  0.63950233  1
  Al  Al14  1  0.45508274  0.42343562  0.31778495  1
  Al  Al15  1  0.54640333  0.55478390  0.06122465  1
  Al  Al16  1  0.10951534  0.42646336  0.89014501  1
  Al  Al17  1  0.22324445  0.54280076  0.56689780  1
  Al  Al18  1  0.78689719  0.41530211  0.39197603  1
  Al  Al19  1  0.87831951  0.54243495  0.14055848  1
  Al  Al20  1  0.44633311  0.42952753  0.81616542  1
  Al  Al21  1  0.55293234  0.53733510  0.57660284  1
  Al  Al22  1  0.10883543  0.77086468  0.31618562  1
  Al  Al23  1  0.23547334  0.86722543  0.05895093  1
  Al  Al24  1  0.76579005  0.76484208  0.89644648  1
  Al  Al25  1  0.44401437  0.76198731  0.32029485  1
  Al  Al26  1  0.10930972  0.76260075  0.82430268  1
  Al  Al27  1  0.20690984  0.87509339  0.58107617  1
  Al  Al28  1  0.78115283  0.77088229  0.38264233  1
  Al  Al29  1  0.88364278  0.87633222  0.09620906  1
  Al  Al30  1  0.56027655  0.87500021  0.63734418  1
  B  B31  1  0.91500596  0.23552632  0.65189951  1
  B  B32  1  0.77273236  0.08881752  0.30259378  1
  B  B33  1  0.88372367  0.86381563  0.60714437  1
  B  B34  1  0.55595189  0.87188635  0.13718158  1
  B  B35  1  0.44066944  0.75871147  0.80632866  1
  N  N36  1  0.21968651  0.20256836  0.32327930  1
  N  N37  1  0.10212116  0.10045926  0.06465034  1
  N  N38  1  0.89282244  0.21665585  0.79902636  1
  N  N39  1  0.78221426  0.04142171  0.63384033  1
  N  N40  1  0.58543926  0.19362021  0.37037594  1
  N  N41  1  0.45342666  0.06324681  0.08176043  1
  N  N42  1  0.22687438  0.20753106  0.82388363  1
  N  N43  1  0.08156568  0.11782931  0.58780376  1
  N  N44  1  0.88057154  0.19821475  0.32486990  1
  N  N45  1  0.76474243  0.09958845  0.14426071  1
  N  N46  1  0.56111653  0.20812268  0.88305192  1
  N  N47  1  0.43878853  0.08951644  0.56824075  1
  N  N48  1  0.22687963  0.54410189  0.37760448  1
  N  N49  1  0.10685617  0.42545898  0.07950965  1
  N  N50  1  0.89045965  0.54681715  0.82470834  1
  N  N51  1  0.79799626  0.40389317  0.58725665  1
  N  N52  1  0.55348913  0.54328820  0.38828362  1
  N  N53  1  0.44731074  0.43018569  0.13025477  1
  N  N54  1  0.22706876  0.54171059  0.88004786  1
  N  N55  1  0.11125779  0.42290010  0.57358846  1
  N  N56  1  0.88672010  0.53964519  0.32735478  1
  N  N57  1  0.78043896  0.42410727  0.06663309  1
  N  N58  1  0.53852026  0.56977458  0.86737267  1
  N  N59  1  0.44958677  0.41592887  0.62981380  1
  N  N60  1  0.22494203  0.86937378  0.39295702  1
  N  N61  1  0.12145601  0.76214700  0.12864312  1
  N  N62  1  0.89251856  0.87919156  0.89903862  1
  N  N63  1  0.79256353  0.76396678  0.57571197  1
  N  N64  1  0.56246724  0.87362815  0.32116896  1
  N  N65  1  0.45203194  0.77336073  0.13091262  1
  N  N66  1  0.24968195  0.85832723  0.86494329  1
  N  N67  1  0.07823043  0.76928065  0.63366909  1
  N  N68  1  0.87701148  0.89756904  0.33330434  1
  N  N69  1  0.74422677  0.77006649  0.08519394  1
  N  N70  1  0.54886553  0.86228665  0.82251817  1
  N  N71  1  0.43440360  0.75653222  0.64625580  1
