# generated using pymatgen
data_Al31B5N36
_symmetry_space_group_name_H-M   'P 1'
_cell_length_a   9.16026649
_cell_length_b   9.14538519
_cell_length_c   10.15212120
_cell_angle_alpha   89.63635463
_cell_angle_beta   89.33247824
_cell_angle_gamma   60.22466488
_symmetry_Int_Tables_number   1
_chemical_formula_structural   Al31B5N36
_chemical_formula_sum   'Al31 B5 N36'
_cell_volume   738.15354970
_cell_formula_units_Z   1
loop_
 _symmetry_equiv_pos_site_id
 _symmetry_equiv_pos_as_xyz
  1  'x, y, z'
loop_
 _atom_site_type_symbol
 _atom_site_label
 _atom_site_symmetry_multiplicity
 _atom_site_fract_x
 _atom_site_fract_y
 _atom_site_fract_z
 _atom_site_occupancy
  Al  Al0  1  0.09823359  0.10203000  0.39606597  1
  Al  Al1  1  0.22477013  0.20014186  0.13991919  1
  Al  Al2  1  0.78147198  0.08776568  0.86624149  1
  Al  Al3  1  0.44675742  0.09047568  0.38242909  1
  Al  Al4  1  0.55548503  0.20642969  0.06601838  1
  Al  Al5  1  0.10936959  0.09683314  0.87726732  1
  Al  Al6  1  0.21793183  0.20765831  0.63928821  1
  Al  Al7  1  0.88720262  0.20493855  0.13207415  1
  Al  Al8  1  0.43928593  0.07819642  0.89368745  1
  Al  Al9  1  0.57891082  0.19392283  0.57064652  1
  Al  Al10  1  0.11003062  0.43037750  0.39023693  1
  Al  Al11  1  0.21802464  0.54309134  0.14169772  1
  Al  Al12  1  0.77926727  0.42616116  0.87633155  1
  Al  Al13  1  0.88698084  0.54042626  0.63917831  1
  Al  Al14  1  0.46139701  0.42303729  0.32039921  1
  Al  Al15  1  0.54911386  0.55260872  0.06042826  1
  Al  Al16  1  0.11028620  0.42838199  0.89027268  1
  Al  Al17  1  0.20701435  0.54669204  0.63823618  1
  Al  Al18  1  0.78498521  0.41629568  0.39592961  1
  Al  Al19  1  0.88054349  0.54293306  0.14022265  1
  Al  Al20  1  0.44847127  0.42605209  0.81278181  1
  Al  Al21  1  0.55222162  0.53694816  0.57629333  1
  Al  Al22  1  0.10076819  0.77083799  0.39032768  1
  Al  Al23  1  0.24131976  0.86968913  0.06194548  1
  Al  Al24  1  0.76774556  0.76059786  0.89347567  1
  Al  Al25  1  0.44509796  0.76243681  0.31612076  1
  Al  Al26  1  0.11081013  0.75697406  0.88514850  1
  Al  Al27  1  0.21726703  0.87457016  0.58554234  1
  Al  Al28  1  0.77611768  0.77409142  0.38673099  1
  Al  Al29  1  0.88318119  0.87915770  0.13047098  1
  Al  Al30  1  0.56034125  0.87595547  0.64497739  1
  B  B31  1  0.89497546  0.19196402  0.64782407  1
  B  B32  1  0.78103553  0.09455044  0.34851226  1
  B  B33  1  0.89050058  0.88141325  0.62991389  1
  B  B34  1  0.56059640  0.87556889  0.14712336  1
  B  B35  1  0.44116504  0.75680018  0.80965954  1
  N  N36  1  0.21861260  0.20684171  0.32775889  1
  N  N37  1  0.10781986  0.10117485  0.07017248  1
  N  N38  1  0.89031911  0.20521806  0.80668297  1
  N  N39  1  0.80612469  0.07554671  0.61440818  1
  N  N40  1  0.59179788  0.19136049  0.37257450  1
  N  N41  1  0.45533134  0.06589628  0.08770816  1
  N  N42  1  0.22348969  0.20661569  0.82550187  1
  N  N43  1  0.08224221  0.11169081  0.58916796  1
  N  N44  1  0.87533699  0.19291367  0.32444046  1
  N  N45  1  0.78645822  0.09300215  0.06401111  1
  N  N46  1  0.54550597  0.20866499  0.87625845  1
  N  N47  1  0.44060397  0.08984588  0.57071243  1
  N  N48  1  0.21877757  0.54547622  0.33158821  1
  N  N49  1  0.11136252  0.42836017  0.07913912  1
  N  N50  1  0.88852910  0.54030400  0.82575789  1
  N  N51  1  0.79207075  0.39781476  0.58675074  1
  N  N52  1  0.55292274  0.54743907  0.38720265  1
  N  N53  1  0.45452582  0.42624508  0.13158610  1
  N  N54  1  0.21618217  0.54056901  0.82487439  1
  N  N55  1  0.10789142  0.42808493  0.57505270  1
  N  N56  1  0.88574312  0.54150672  0.33019357  1
  N  N57  1  0.78262758  0.42490677  0.06909505  1
  N  N58  1  0.53799030  0.56464212  0.86909987  1
  N  N59  1  0.44659043  0.41852206  0.62403796  1
  N  N60  1  0.23294922  0.87164617  0.39054674  1
  N  N61  1  0.11233088  0.76085014  0.07773573  1
  N  N62  1  0.88921370  0.86172322  0.82766582  1
  N  N63  1  0.78559427  0.77994902  0.57825645  1
  N  N64  1  0.56471151  0.87921812  0.30876159  1
  N  N65  1  0.45690053  0.77038441  0.13020319  1
  N  N66  1  0.25159322  0.85794190  0.86700213  1
  N  N67  1  0.07808441  0.77485379  0.58327003  1
  N  N68  1  0.87715276  0.90445632  0.32305833  1
  N  N69  1  0.75236211  0.77396687  0.08691172  1
  N  N70  1  0.54616918  0.85844579  0.82975105  1
  N  N71  1  0.43898688  0.75422998  0.64878757  1
