# generated using pymatgen
data_Al31B5N36
_symmetry_space_group_name_H-M   'P 1'
_cell_length_a   9.16960622
_cell_length_b   9.16788520
_cell_length_c   9.85584214
_cell_angle_alpha   90.04572618
_cell_angle_beta   89.64430989
_cell_angle_gamma   60.01604201
_symmetry_Int_Tables_number   1
_chemical_formula_structural   Al31B5N36
_chemical_formula_sum   'Al31 B5 N36'
_cell_volume   717.63172808
_cell_formula_units_Z   1
loop_
 _symmetry_equiv_pos_site_id
 _symmetry_equiv_pos_as_xyz
  1  'x, y, z'
loop_
 _atom_site_type_symbol
 _atom_site_label
 _atom_site_symmetry_multiplicity
 _atom_site_fract_x
 _atom_site_fract_y
 _atom_site_fract_z
 _atom_site_occupancy
  Al  Al0  1  0.09959316  0.09370711  0.40345749  1
  Al  Al1  1  0.22438270  0.20043700  0.14950952  1
  Al  Al2  1  0.78139289  0.09251554  0.87421436  1
  Al  Al3  1  0.45026093  0.08898240  0.39012018  1
  Al  Al4  1  0.56236364  0.19815038  0.13689299  1
  Al  Al5  1  0.11546131  0.09158800  0.89523475  1
  Al  Al6  1  0.21920118  0.20575852  0.64756513  1
  Al  Al7  1  0.88611208  0.20289225  0.14334066  1
  Al  Al8  1  0.44529548  0.08549374  0.90057447  1
  Al  Al9  1  0.56831658  0.19798124  0.64383971  1
  Al  Al10  1  0.10840334  0.42896189  0.39966993  1
  Al  Al11  1  0.22048403  0.54097871  0.15074127  1
  Al  Al12  1  0.77729836  0.42969358  0.89268800  1
  Al  Al13  1  0.88863827  0.54050276  0.64751068  1
  Al  Al14  1  0.44946367  0.42582020  0.39711085  1
  Al  Al15  1  0.55675456  0.54507358  0.14113363  1
  Al  Al16  1  0.11151985  0.42800866  0.89915668  1
  Al  Al17  1  0.21736635  0.54301359  0.64793053  1
  Al  Al18  1  0.77471005  0.41910035  0.40394023  1
  Al  Al19  1  0.88147081  0.54383091  0.14977279  1
  Al  Al20  1  0.44296210  0.43278888  0.89724339  1
  Al  Al21  1  0.55714276  0.53931594  0.65254220  1
  Al  Al22  1  0.09880830  0.77406831  0.40341381  1
  Al  Al23  1  0.22752950  0.87256153  0.14248184  1
  Al  Al24  1  0.77150403  0.76306749  0.89633885  1
  Al  Al25  1  0.44494719  0.76257388  0.39072091  1
  Al  Al26  1  0.11523616  0.76047040  0.89527142  1
  Al  Al27  1  0.22130912  0.87332920  0.65326048  1
  Al  Al28  1  0.77177026  0.77357771  0.39731689  1
  Al  Al29  1  0.88083668  0.87890147  0.14315467  1
  Al  Al30  1  0.55793997  0.87145879  0.64997414  1
  B  B31  1  0.89615651  0.19047407  0.65679496  1
  B  B32  1  0.77639380  0.09525508  0.36345075  1
  B  B33  1  0.89567370  0.88129302  0.65591931  1
  B  B34  1  0.55641459  0.87206191  0.14398206  1
  B  B35  1  0.44978460  0.76471707  0.90192215  1
  N  N36  1  0.21877792  0.20393054  0.34146320  1
  N  N37  1  0.10895645  0.09576733  0.08664516  1
  N  N38  1  0.89515963  0.20611486  0.82033744  1
  N  N39  1  0.80582312  0.08047012  0.61911375  1
  N  N40  1  0.58352086  0.19166327  0.33974346  1
  N  N41  1  0.45665032  0.06979282  0.09535457  1
  N  N42  1  0.22486451  0.20500791  0.83931531  1
  N  N43  1  0.08870787  0.10314314  0.59784567  1
  N  N44  1  0.87229596  0.19110730  0.33854834  1
  N  N45  1  0.78120372  0.09299218  0.06987939  1
  N  N46  1  0.55054174  0.20598860  0.83906549  1
  N  N47  1  0.44620109  0.09194584  0.58322460  1
  N  N48  1  0.21907521  0.54390498  0.34306478  1
  N  N49  1  0.11012937  0.42788575  0.09192911  1
  N  N50  1  0.88976498  0.54061365  0.83896251  1
  N  N51  1  0.78796009  0.40221540  0.59761168  1
  N  N52  1  0.55655483  0.53927480  0.33370843  1
  N  N53  1  0.44401371  0.42774708  0.08983625  1
  N  N54  1  0.22268208  0.53863748  0.83819899  1
  N  N55  1  0.11095332  0.42769355  0.58894683  1
  N  N56  1  0.88313717  0.54138348  0.34349715  1
  N  N57  1  0.78054982  0.42460006  0.08504569  1
  N  N58  1  0.54390281  0.56519876  0.84784144  1
  N  N59  1  0.44571057  0.42771151  0.58920662  1
  N  N60  1  0.22033913  0.87313809  0.33665706  1
  N  N61  1  0.10796629  0.76266208  0.08778318  1
  N  N62  1  0.89366882  0.86506954  0.82121986  1
  N  N63  1  0.78656691  0.77731050  0.59249757  1
  N  N64  1  0.55497097  0.87041791  0.31233765  1
  N  N65  1  0.45688682  0.77339903  0.07586416  1
  N  N66  1  0.25050819  0.85883506  0.84782415  1
  N  N67  1  0.08816646  0.77607782  0.59800228  1
  N  N68  1  0.87168951  0.90382239  0.33779591  1
  N  N69  1  0.75390993  0.77469734  0.09248164  1
  N  N70  1  0.54395172  0.85897506  0.84154865  1
  N  N71  1  0.44639179  0.76143035  0.58201370  1
