# generated using pymatgen
data_Al31B5N36
_symmetry_space_group_name_H-M   'P 1'
_cell_length_a   9.16574621
_cell_length_b   9.16028573
_cell_length_c   9.83553959
_cell_angle_alpha   89.86840066
_cell_angle_beta   90.02158831
_cell_angle_gamma   60.03932390
_symmetry_Int_Tables_number   1
_chemical_formula_structural   Al31B5N36
_chemical_formula_sum   'Al31 B5 N36'
_cell_volume   715.44426666
_cell_formula_units_Z   1
loop_
 _symmetry_equiv_pos_site_id
 _symmetry_equiv_pos_as_xyz
  1  'x, y, z'
loop_
 _atom_site_type_symbol
 _atom_site_label
 _atom_site_symmetry_multiplicity
 _atom_site_fract_x
 _atom_site_fract_y
 _atom_site_fract_z
 _atom_site_occupancy
  Al  Al0  1  0.10629208  0.09255286  0.32084361  1
  Al  Al1  1  0.22581645  0.19924001  0.06569007  1
  Al  Al2  1  0.78211488  0.09126560  0.80911954  1
  Al  Al3  1  0.45211328  0.08828896  0.31651081  1
  Al  Al4  1  0.56439948  0.19712104  0.07221660  1
  Al  Al5  1  0.10870208  0.09386732  0.81048432  1
  Al  Al6  1  0.21651511  0.20776376  0.56391193  1
  Al  Al7  1  0.88797392  0.20295910  0.07267817  1
  Al  Al8  1  0.44484748  0.08726042  0.81885029  1
  Al  Al9  1  0.56666608  0.19947343  0.56189284  1
  Al  Al10  1  0.11062498  0.42889959  0.31301881  1
  Al  Al11  1  0.22222669  0.54122522  0.06384822  1
  Al  Al12  1  0.77621665  0.42590322  0.81061950  1
  Al  Al13  1  0.88869868  0.54017387  0.56552392  1
  Al  Al14  1  0.45004091  0.42513636  0.31464311  1
  Al  Al15  1  0.55720350  0.54827927  0.05999376  1
  Al  Al16  1  0.10983495  0.42780892  0.81573661  1
  Al  Al17  1  0.21606381  0.54295942  0.56447950  1
  Al  Al18  1  0.77697142  0.42186687  0.32266157  1
  Al  Al19  1  0.88095784  0.54434889  0.06549460  1
  Al  Al20  1  0.44415577  0.43062787  0.81560394  1
  Al  Al21  1  0.55669005  0.53638029  0.56985643  1
  Al  Al22  1  0.10676326  0.76813651  0.32044562  1
  Al  Al23  1  0.23131634  0.87252073  0.05959993  1
  Al  Al24  1  0.77274967  0.76530783  0.81466729  1
  Al  Al25  1  0.44732397  0.76344509  0.31626510  1
  Al  Al26  1  0.10792061  0.76436709  0.81105302  1
  Al  Al27  1  0.21556290  0.87540368  0.56968239  1
  Al  Al28  1  0.77297889  0.77070722  0.32404525  1
  Al  Al29  1  0.88302292  0.87724680  0.07328537  1
  Al  Al30  1  0.55720256  0.87401750  0.57603227  1
  B  B31  1  0.89001624  0.19183684  0.55762340  1
  B  B32  1  0.77929169  0.09366287  0.32533842  1
  B  B33  1  0.88985503  0.88325080  0.55897754  1
  B  B34  1  0.55545803  0.87050244  0.08330159  1
  B  B35  1  0.44710910  0.76177981  0.81189012  1
  N  N36  1  0.22394371  0.20516829  0.37155824  1
  N  N37  1  0.11166814  0.09214439  0.12814760  1
  N  N38  1  0.88707019  0.20357753  0.88053466  1
  N  N39  1  0.80147547  0.08229915  0.61445404  1
  N  N40  1  0.58011336  0.19291361  0.36814387  1
  N  N41  1  0.45961290  0.06618172  0.11955460  1
  N  N42  1  0.22044307  0.20413018  0.87422691  1
  N  N43  1  0.08369339  0.10740486  0.61469574  1
  N  N44  1  0.87788932  0.19192286  0.38927920  1
  N  N45  1  0.78227714  0.09235685  0.15642052  1
  N  N46  1  0.56031226  0.20195628  0.87726802  1
  N  N47  1  0.44156820  0.09964967  0.62545630  1
  N  N48  1  0.22315415  0.53894718  0.37300611  1
  N  N49  1  0.11035727  0.42835631  0.12153574  1
  N  N50  1  0.88545116  0.54012346  0.87217202  1
  N  N51  1  0.78905333  0.40012039  0.61584257  1
  N  N52  1  0.55353100  0.54214542  0.37783389  1
  N  N53  1  0.44755371  0.42868385  0.12147781  1
  N  N54  1  0.22040241  0.54145867  0.87216544  1
  N  N55  1  0.10929339  0.42835366  0.62504004  1
  N  N56  1  0.88798420  0.54084709  0.37367346  1
  N  N57  1  0.77695415  0.42673106  0.12890134  1
  N  N58  1  0.54485064  0.56230640  0.86563033  1
  N  N59  1  0.44293749  0.42543746  0.62339066  1
  N  N60  1  0.22697150  0.87003043  0.37862239  1
  N  N61  1  0.11215471  0.76403094  0.12653720  1
  N  N62  1  0.88684399  0.87460370  0.88199104  1
  N  N63  1  0.79063227  0.77799760  0.61808784  1
  N  N64  1  0.55405502  0.87210742  0.38584708  1
  N  N65  1  0.45895602  0.77540582  0.12263966  1
  N  N66  1  0.24434407  0.86094490  0.86346493  1
  N  N67  1  0.08354683  0.77574928  0.61529414  1
  N  N68  1  0.87783683  0.89680123  0.38811541  1
  N  N69  1  0.75047232  0.77612831  0.12440103  1
  N  N70  1  0.54391865  0.85733689  0.86661662  1
  N  N71  1  0.44371660  0.76062674  0.64463137  1
