# generated using pymatgen
data_Al31B5N36
_symmetry_space_group_name_H-M   'P 1'
_cell_length_a   9.15624094
_cell_length_b   9.19815070
_cell_length_c   10.18921163
_cell_angle_alpha   89.53880826
_cell_angle_beta   89.25063056
_cell_angle_gamma   59.93111414
_symmetry_Int_Tables_number   1
_chemical_formula_structural   Al31B5N36
_chemical_formula_sum   'Al31 B5 N36'
_cell_volume   742.59030046
_cell_formula_units_Z   1
loop_
 _symmetry_equiv_pos_site_id
 _symmetry_equiv_pos_as_xyz
  1  'x, y, z'
loop_
 _atom_site_type_symbol
 _atom_site_label
 _atom_site_symmetry_multiplicity
 _atom_site_fract_x
 _atom_site_fract_y
 _atom_site_fract_z
 _atom_site_occupancy
  Al  Al0  1  0.09638978  0.10245085  0.39349388  1
  Al  Al1  1  0.22255230  0.19773436  0.13676853  1
  Al  Al2  1  0.77953607  0.08511885  0.81098492  1
  Al  Al3  1  0.44678018  0.08969650  0.37725988  1
  Al  Al4  1  0.55735774  0.20476316  0.07234210  1
  Al  Al5  1  0.11219038  0.09690441  0.87653341  1
  Al  Al6  1  0.22549164  0.20657140  0.63773196  1
  Al  Al7  1  0.88668430  0.20923716  0.13912548  1
  Al  Al8  1  0.44569303  0.08008122  0.89242679  1
  Al  Al9  1  0.57659999  0.18917202  0.56015038  1
  Al  Al10  1  0.10991288  0.42544393  0.38392832  1
  Al  Al11  1  0.22612709  0.54279947  0.07017003  1
  Al  Al12  1  0.77752046  0.43425508  0.87800133  1
  Al  Al13  1  0.89550329  0.54180048  0.63907696  1
  Al  Al14  1  0.45505853  0.42439095  0.31787769  1
  Al  Al15  1  0.54651062  0.55495281  0.06114409  1
  Al  Al16  1  0.10966926  0.42618294  0.88974368  1
  Al  Al17  1  0.22309654  0.54272337  0.56703761  1
  Al  Al18  1  0.78695616  0.41550557  0.39226391  1
  Al  Al19  1  0.87900723  0.54212981  0.14028817  1
  Al  Al20  1  0.44635482  0.42886387  0.81643807  1
  Al  Al21  1  0.55301528  0.53696260  0.57740188  1
  Al  Al22  1  0.10898059  0.77133641  0.31653735  1
  Al  Al23  1  0.23587329  0.86696598  0.05901403  1
  Al  Al24  1  0.76534161  0.76450616  0.89830005  1
  Al  Al25  1  0.44349366  0.76194735  0.31917864  1
  Al  Al26  1  0.10872386  0.76250219  0.82403915  1
  Al  Al27  1  0.20679324  0.87499586  0.58154193  1
  Al  Al28  1  0.78070221  0.77156726  0.38026728  1
  Al  Al29  1  0.88427487  0.87628751  0.09501835  1
  Al  Al30  1  0.56049949  0.87484233  0.63949787  1
  B  B31  1  0.91514635  0.23566919  0.65211823  1
  B  B32  1  0.77358781  0.08929752  0.30305250  1
  B  B33  1  0.88255176  0.86381749  0.60549783  1
  B  B34  1  0.55781739  0.87228930  0.14537891  1
  B  B35  1  0.44032381  0.75827265  0.80681412  1
  N  N36  1  0.21885367  0.20323850  0.32311538  1
  N  N37  1  0.10242692  0.10034855  0.06440795  1
  N  N38  1  0.89278112  0.21638880  0.79893537  1
  N  N39  1  0.78062009  0.04072752  0.63415697  1
  N  N40  1  0.58530611  0.19442377  0.37010833  1
  N  N41  1  0.45326944  0.06481408  0.08359300  1
  N  N42  1  0.22778725  0.20686144  0.82343718  1
  N  N43  1  0.08131662  0.11767020  0.58791103  1
  N  N44  1  0.88053890  0.19861226  0.32487414  1
  N  N45  1  0.76548103  0.09894323  0.14476662  1
  N  N46  1  0.56115112  0.20793026  0.88381905  1
  N  N47  1  0.43913226  0.08643496  0.56513129  1
  N  N48  1  0.22688815  0.54449518  0.37778808  1
  N  N49  1  0.10706112  0.42538944  0.07916971  1
  N  N50  1  0.89020093  0.54719541  0.82443500  1
  N  N51  1  0.79806137  0.40362000  0.58737664  1
  N  N52  1  0.55356582  0.54449664  0.38908943  1
  N  N53  1  0.44742854  0.43064072  0.13053596  1
  N  N54  1  0.22695883  0.54176452  0.87995505  1
  N  N55  1  0.11141626  0.42243349  0.57356856  1
  N  N56  1  0.88640180  0.53994036  0.32718427  1
  N  N57  1  0.78070445  0.42397674  0.06639346  1
  N  N58  1  0.53851460  0.56938468  0.86722868  1
  N  N59  1  0.44952276  0.41504567  0.62987502  1
  N  N60  1  0.22579941  0.86972468  0.39345023  1
  N  N61  1  0.12121983  0.76235470  0.12903086  1
  N  N62  1  0.89229168  0.87912570  0.89901922  1
  N  N63  1  0.79061018  0.76376814  0.57348860  1
  N  N64  1  0.56312063  0.87602427  0.31004759  1
  N  N65  1  0.45169441  0.77235229  0.13130053  1
  N  N66  1  0.24935244  0.85803281  0.86481911  1
  N  N67  1  0.07722462  0.76925288  0.63326367  1
  N  N68  1  0.87754439  0.89879622  0.33604352  1
  N  N69  1  0.74594029  0.76965566  0.08655088  1
  N  N70  1  0.54853517  0.86228135  0.82403890  1
  N  N71  1  0.43443169  0.75630110  0.64681517  1
