# generated using pymatgen
data_Al31B5N36
_symmetry_space_group_name_H-M   'P 1'
_cell_length_a   9.16491444
_cell_length_b   9.16094644
_cell_length_c   9.85196818
_cell_angle_alpha   90.06515472
_cell_angle_beta   89.73646647
_cell_angle_gamma   60.03296302
_symmetry_Int_Tables_number   1
_chemical_formula_structural   Al31B5N36
_chemical_formula_sum   'Al31 B5 N36'
_cell_volume   716.56986768
_cell_formula_units_Z   1
loop_
 _symmetry_equiv_pos_site_id
 _symmetry_equiv_pos_as_xyz
  1  'x, y, z'
loop_
 _atom_site_type_symbol
 _atom_site_label
 _atom_site_symmetry_multiplicity
 _atom_site_fract_x
 _atom_site_fract_y
 _atom_site_fract_z
 _atom_site_occupancy
  Al  Al0  1  0.10009984  0.09370954  0.40329994  1
  Al  Al1  1  0.22425211  0.20040710  0.14913684  1
  Al  Al2  1  0.78062487  0.09293102  0.87909865  1
  Al  Al3  1  0.45004604  0.08888687  0.39058479  1
  Al  Al4  1  0.56259222  0.19804370  0.14304735  1
  Al  Al5  1  0.11504106  0.09163487  0.89430829  1
  Al  Al6  1  0.21938620  0.20575603  0.64768136  1
  Al  Al7  1  0.88608193  0.20285438  0.14483486  1
  Al  Al8  1  0.44602441  0.08603339  0.90133173  1
  Al  Al9  1  0.56804816  0.19821208  0.64327061  1
  Al  Al10  1  0.10854374  0.42883326  0.39931799  1
  Al  Al11  1  0.22043879  0.54103651  0.15031130  1
  Al  Al12  1  0.77733745  0.42920284  0.89206963  1
  Al  Al13  1  0.88886115  0.54044247  0.64723951  1
  Al  Al14  1  0.44935115  0.42584457  0.39733376  1
  Al  Al15  1  0.55676116  0.54486903  0.14080342  1
  Al  Al16  1  0.11155313  0.42807115  0.89916940  1
  Al  Al17  1  0.21755267  0.54290431  0.64793460  1
  Al  Al18  1  0.77500411  0.41901192  0.40371378  1
  Al  Al19  1  0.88130358  0.54387171  0.14940165  1
  Al  Al20  1  0.44355067  0.43183750  0.89781239  1
  Al  Al21  1  0.55695922  0.53929261  0.65264282  1
  Al  Al22  1  0.09943222  0.77337584  0.40318121  1
  Al  Al23  1  0.22734931  0.87267260  0.14202545  1
  Al  Al24  1  0.77156706  0.76357295  0.89587592  1
  Al  Al25  1  0.44518344  0.76233805  0.39044841  1
  Al  Al26  1  0.11480953  0.76100629  0.89427231  1
  Al  Al27  1  0.22132440  0.87333172  0.65289626  1
  Al  Al28  1  0.77215753  0.77325541  0.39713123  1
  Al  Al29  1  0.88092805  0.87889544  0.14464808  1
  Al  Al30  1  0.55779844  0.87177628  0.65014123  1
  B  B31  1  0.89523966  0.19133298  0.65433613  1
  B  B32  1  0.77849665  0.09408593  0.37266080  1
  B  B33  1  0.89458242  0.88117559  0.65328612  1
  B  B34  1  0.55641075  0.87234793  0.14400287  1
  B  B35  1  0.44972756  0.76495823  0.90191667  1
  N  N36  1  0.21890314  0.20386947  0.34111322  1
  N  N37  1  0.10833602  0.09597083  0.08591724  1
  N  N38  1  0.89365993  0.20477342  0.81861967  1
  N  N39  1  0.80503300  0.08086332  0.60878761  1
  N  N40  1  0.58369262  0.19143180  0.34173744  1
  N  N41  1  0.45695296  0.07034615  0.09613922  1
  N  N42  1  0.22516339  0.20502180  0.83953448  1
  N  N43  1  0.08875195  0.10331370  0.59766421  1
  N  N44  1  0.87312031  0.19118899  0.33948230  1
  N  N45  1  0.77989244  0.09358826  0.07235847  1
  N  N46  1  0.55192227  0.20545297  0.83746131  1
  N  N47  1  0.44585874  0.09201114  0.58336001  1
  N  N48  1  0.21926678  0.54364421  0.34264605  1
  N  N49  1  0.10983257  0.42799459  0.09174684  1
  N  N50  1  0.88974789  0.54069443  0.83869042  1
  N  N51  1  0.78791581  0.40216721  0.59746883  1
  N  N52  1  0.55668424  0.53903499  0.33347671  1
  N  N53  1  0.44437846  0.42653034  0.09045490  1
  N  N54  1  0.22291432  0.53852422  0.83830749  1
  N  N55  1  0.11098669  0.42766742  0.58872162  1
  N  N56  1  0.88316932  0.54129273  0.34323810  1
  N  N57  1  0.78060339  0.42419842  0.08458249  1
  N  N58  1  0.54379707  0.56505300  0.84794158  1
  N  N59  1  0.44538792  0.42803945  0.58917904  1
  N  N60  1  0.22051601  0.87301779  0.33630046  1
  N  N61  1  0.10746600  0.76293649  0.08700925  1
  N  N62  1  0.89220169  0.86792222  0.81945972  1
  N  N63  1  0.78663242  0.77761031  0.59242755  1
  N  N64  1  0.55516956  0.87031032  0.31235992  1
  N  N65  1  0.45676163  0.77357294  0.07562278  1
  N  N66  1  0.25064900  0.85885887  0.84736774  1
  N  N67  1  0.08821303  0.77584281  0.59772308  1
  N  N68  1  0.87260054  0.90274486  0.33873559  1
  N  N69  1  0.75400701  0.77489435  0.09223856  1
  N  N70  1  0.54383254  0.85948177  0.84168485  1
  N  N71  1  0.44661086  0.76135306  0.58187725  1
