# generated using pymatgen
data_Al31B5N36
_symmetry_space_group_name_H-M   'P 1'
_cell_length_a   9.21001430
_cell_length_b   9.20491639
_cell_length_c   9.93252791
_cell_angle_alpha   90.24352671
_cell_angle_beta   89.97421668
_cell_angle_gamma   59.87778547
_symmetry_Int_Tables_number   1
_chemical_formula_structural   Al31B5N36
_chemical_formula_sum   'Al31 B5 N36'
_cell_volume   728.33060610
_cell_formula_units_Z   1
loop_
 _symmetry_equiv_pos_site_id
 _symmetry_equiv_pos_as_xyz
  1  'x, y, z'
loop_
 _atom_site_type_symbol
 _atom_site_label
 _atom_site_symmetry_multiplicity
 _atom_site_fract_x
 _atom_site_fract_y
 _atom_site_fract_z
 _atom_site_occupancy
  Al  Al0  1  0.10600360  0.09087653  0.32779257  1
  Al  Al1  1  0.22656715  0.19677238  0.07971114  1
  Al  Al2  1  0.78142110  0.08753160  0.82508368  1
  Al  Al3  1  0.45656830  0.08331221  0.33009776  1
  Al  Al4  1  0.56112183  0.20061492  0.07795932  1
  Al  Al5  1  0.10908476  0.09304309  0.81812310  1
  Al  Al6  1  0.21957144  0.20086891  0.57064849  1
  Al  Al7  1  0.88765394  0.20828208  0.07762298  1
  Al  Al8  1  0.44143601  0.09210150  0.82120891  1
  Al  Al9  1  0.57048161  0.19470244  0.56805402  1
  Al  Al10  1  0.10960762  0.43062644  0.37805438  1
  Al  Al11  1  0.22625161  0.54310201  0.07289818  1
  Al  Al12  1  0.77127881  0.42203116  0.81837863  1
  Al  Al13  1  0.89280015  0.54309395  0.63968247  1
  Al  Al14  1  0.45103351  0.42397956  0.32130046  1
  Al  Al15  1  0.55884904  0.54937032  0.06918195  1
  Al  Al16  1  0.10419201  0.42966261  0.87948708  1
  Al  Al17  1  0.22154897  0.54457558  0.57617827  1
  Al  Al18  1  0.77612657  0.41794787  0.33547113  1
  Al  Al19  1  0.88127757  0.55089593  0.15099885  1
  Al  Al20  1  0.44498534  0.42946513  0.82219653  1
  Al  Al21  1  0.55825239  0.53149176  0.57515994  1
  Al  Al22  1  0.10947114  0.76824617  0.31921217  1
  Al  Al23  1  0.23411449  0.87444960  0.06624749  1
  Al  Al24  1  0.75870716  0.76437147  0.89586609  1
  Al  Al25  1  0.44924458  0.76319558  0.33125363  1
  Al  Al26  1  0.10765382  0.76458335  0.83018626  1
  Al  Al27  1  0.21189584  0.87487657  0.57607523  1
  Al  Al28  1  0.78274693  0.77572149  0.40185891  1
  Al  Al29  1  0.88297526  0.88161183  0.10400063  1
  Al  Al30  1  0.55479073  0.87226177  0.60909033  1
  B  B31  1  0.89397443  0.19293520  0.56538927  1
  B  B32  1  0.77693866  0.09163436  0.31833735  1
  B  B33  1  0.89434614  0.87637354  0.61170314  1
  B  B34  1  0.55443552  0.87266131  0.11433764  1
  B  B35  1  0.44304489  0.76114950  0.81065760  1
  N  N36  1  0.22697286  0.19853441  0.37662413  1
  N  N37  1  0.10983566  0.09285528  0.13654652  1
  N  N38  1  0.88725443  0.20341721  0.88751794  1
  N  N39  1  0.80376430  0.07197871  0.62782916  1
  N  N40  1  0.58188753  0.19134305  0.37485091  1
  N  N41  1  0.46165117  0.06440710  0.13248915  1
  N  N42  1  0.22232036  0.19850698  0.88507398  1
  N  N43  1  0.08463460  0.10606043  0.62393448  1
  N  N44  1  0.88103662  0.19080487  0.39948113  1
  N  N45  1  0.77380959  0.10941775  0.15521491  1
  N  N46  1  0.55705062  0.20231083  0.88557295  1
  N  N47  1  0.43946263  0.10474720  0.63135740  1
  N  N48  1  0.22633659  0.54511989  0.38192538  1
  N  N49  1  0.10679674  0.43239385  0.09936293  1
  N  N50  1  0.88218589  0.54400345  0.83247381  1
  N  N51  1  0.78925876  0.39490828  0.62296160  1
  N  N52  1  0.55362324  0.54037224  0.38624577  1
  N  N53  1  0.44787109  0.43013942  0.13012112  1
  N  N54  1  0.22386175  0.54074388  0.87932547  1
  N  N55  1  0.11068762  0.42795664  0.59271682  1
  N  N56  1  0.88338018  0.55020712  0.34450823  1
  N  N57  1  0.77437373  0.42718615  0.13921648  1
  N  N58  1  0.54382979  0.56289374  0.87514105  1
  N  N59  1  0.44762937  0.42048883  0.63199677  1
  N  N60  1  0.22521468  0.86966193  0.38722025  1
  N  N61  1  0.12133100  0.76387969  0.12852177  1
  N  N62  1  0.88731472  0.87418096  0.89958968  1
  N  N63  1  0.79953395  0.78108967  0.59739469  1
  N  N64  1  0.55256244  0.87143945  0.40468173  1
  N  N65  1  0.45951400  0.77845127  0.13497529  1
  N  N66  1  0.24546564  0.86176213  0.87168481  1
  N  N67  1  0.08308800  0.77609582  0.63414112  1
  N  N68  1  0.87623387  0.89765742  0.33788391  1
  N  N69  1  0.74127675  0.77702278  0.09356319  1
  N  N70  1  0.54187802  0.85835851  0.83217000  1
  N  N71  1  0.43586614  0.75261164  0.64770885  1
