# generated using pymatgen
data_Al31B5N36
_symmetry_space_group_name_H-M   'P 1'
_cell_length_a   9.15517053
_cell_length_b   9.17692249
_cell_length_c   10.23806971
_cell_angle_alpha   89.42644758
_cell_angle_beta   89.40353540
_cell_angle_gamma   60.19775568
_symmetry_Int_Tables_number   1
_chemical_formula_structural   Al31B5N36
_chemical_formula_sum   'Al31 B5 N36'
_cell_volume   746.35237285
_cell_formula_units_Z   1
loop_
 _symmetry_equiv_pos_site_id
 _symmetry_equiv_pos_as_xyz
  1  'x, y, z'
loop_
 _atom_site_type_symbol
 _atom_site_label
 _atom_site_symmetry_multiplicity
 _atom_site_fract_x
 _atom_site_fract_y
 _atom_site_fract_z
 _atom_site_occupancy
  Al  Al0  1  0.09807599  0.10419859  0.39378452  1
  Al  Al1  1  0.22551579  0.19876772  0.13771808  1
  Al  Al2  1  0.77638254  0.08437903  0.82118282  1
  Al  Al3  1  0.44781244  0.09047899  0.37864587  1
  Al  Al4  1  0.56037110  0.20478543  0.06419454  1
  Al  Al5  1  0.10939184  0.09739627  0.87998024  1
  Al  Al6  1  0.22176269  0.20478139  0.63871076  1
  Al  Al7  1  0.88750195  0.20614162  0.13570923  1
  Al  Al8  1  0.44023663  0.07856313  0.89358831  1
  Al  Al9  1  0.57333124  0.18969228  0.56836008  1
  Al  Al10  1  0.11289126  0.43047000  0.38858729  1
  Al  Al11  1  0.22221983  0.53702061  0.14105413  1
  Al  Al12  1  0.77918052  0.42841346  0.88090717  1
  Al  Al13  1  0.89155422  0.54080828  0.63954345  1
  Al  Al14  1  0.46469835  0.42129321  0.31938434  1
  Al  Al15  1  0.54876673  0.55373215  0.06162950  1
  Al  Al16  1  0.11178116  0.42927186  0.89023000  1
  Al  Al17  1  0.21516580  0.53652890  0.63456342  1
  Al  Al18  1  0.78764259  0.41786613  0.39342716  1
  Al  Al19  1  0.88073641  0.54447475  0.14096958  1
  Al  Al20  1  0.45091611  0.42522839  0.81498370  1
  Al  Al21  1  0.55182208  0.53690057  0.57574125  1
  Al  Al22  1  0.10524985  0.78134258  0.31663710  1
  Al  Al23  1  0.23725914  0.86623019  0.05984481  1
  Al  Al24  1  0.76251353  0.75718758  0.89694715  1
  Al  Al25  1  0.44557266  0.76356317  0.31652793  1
  Al  Al26  1  0.10631890  0.76687945  0.82108877  1
  Al  Al27  1  0.20790560  0.87275389  0.57822074  1
  Al  Al28  1  0.78001803  0.77502087  0.38269053  1
  Al  Al29  1  0.88671570  0.87806484  0.07421889  1
  Al  Al30  1  0.55817556  0.87412692  0.64238972  1
  B  B31  1  0.91068322  0.22833803  0.65208626  1
  B  B32  1  0.78217537  0.09296739  0.34372179  1
  B  B33  1  0.88090056  0.87029700  0.60713558  1
  B  B34  1  0.56075260  0.87502194  0.14621663  1
  B  B35  1  0.43893294  0.75660068  0.80866182  1
  N  N36  1  0.21894243  0.20714625  0.32463622  1
  N  N37  1  0.10765619  0.10064626  0.06774903  1
  N  N38  1  0.89189990  0.21241766  0.80051806  1
  N  N39  1  0.78055589  0.04735594  0.63796544  1
  N  N40  1  0.59204875  0.19345500  0.37703421  1
  N  N41  1  0.45503126  0.06599333  0.08483754  1
  N  N42  1  0.22344281  0.20653614  0.82398766  1
  N  N43  1  0.07909743  0.11594142  0.58672039  1
  N  N44  1  0.87706321  0.19685817  0.32643446  1
  N  N45  1  0.77968672  0.10018782  0.09032198  1
  N  N46  1  0.55008869  0.20676293  0.87591279  1
  N  N47  1  0.43662776  0.08539944  0.56571459  1
  N  N48  1  0.22460057  0.54089845  0.33352178  1
  N  N49  1  0.11125895  0.42907567  0.07700135  1
  N  N50  1  0.88902373  0.54154213  0.82445659  1
  N  N51  1  0.79716750  0.40026722  0.58668290  1
  N  N52  1  0.55487821  0.54772746  0.38908864  1
  N  N53  1  0.45603694  0.42562012  0.13015726  1
  N  N54  1  0.21991340  0.53707059  0.82449922  1
  N  N55  1  0.11068676  0.42457288  0.57336207  1
  N  N56  1  0.88822527  0.54226490  0.32882335  1
  N  N57  1  0.78374034  0.42614460  0.06935884  1
  N  N58  1  0.53835511  0.56621325  0.86969317  1
  N  N59  1  0.45346645  0.41295498  0.62639771  1
  N  N60  1  0.22918332  0.87139242  0.39150336  1
  N  N61  1  0.11498935  0.76891787  0.12718185  1
  N  N62  1  0.89191776  0.86468041  0.88619087  1
  N  N63  1  0.78727295  0.76734643  0.57570538  1
  N  N64  1  0.56540536  0.87937403  0.30714402  1
  N  N65  1  0.45369703  0.77141467  0.13103606  1
  N  N66  1  0.24782787  0.85676957  0.86758665  1
  N  N67  1  0.07278064  0.77713964  0.62760806  1
  N  N68  1  0.87638311  0.90988158  0.34988827  1
  N  N69  1  0.74796131  0.77156263  0.08649819  1
  N  N70  1  0.54426106  0.85978172  0.82628455  1
  N  N71  1  0.43262221  0.75422615  0.64837425  1
