# generated using pymatgen
data_Al31B5N36
_symmetry_space_group_name_H-M   'P 1'
_cell_length_a   9.14742081
_cell_length_b   9.18210167
_cell_length_c   10.24788749
_cell_angle_alpha   89.42046242
_cell_angle_beta   89.34335927
_cell_angle_gamma   60.15618131
_symmetry_Int_Tables_number   1
_chemical_formula_structural   Al31B5N36
_chemical_formula_sum   'Al31 B5 N36'
_cell_volume   746.53974551
_cell_formula_units_Z   1
loop_
 _symmetry_equiv_pos_site_id
 _symmetry_equiv_pos_as_xyz
  1  'x, y, z'
loop_
 _atom_site_type_symbol
 _atom_site_label
 _atom_site_symmetry_multiplicity
 _atom_site_fract_x
 _atom_site_fract_y
 _atom_site_fract_z
 _atom_site_occupancy
  Al  Al0  1  0.09793896  0.10464697  0.39399246  1
  Al  Al1  1  0.22441904  0.19873144  0.13712262  1
  Al  Al2  1  0.77607439  0.08392388  0.81236629  1
  Al  Al3  1  0.44760129  0.09042626  0.37660214  1
  Al  Al4  1  0.56044930  0.20420465  0.06757072  1
  Al  Al5  1  0.11026178  0.09741640  0.87890271  1
  Al  Al6  1  0.22336881  0.20467216  0.63817447  1
  Al  Al7  1  0.88734131  0.20699818  0.13800253  1
  Al  Al8  1  0.44206000  0.07878602  0.89385653  1
  Al  Al9  1  0.57316095  0.18880714  0.56400757  1
  Al  Al10  1  0.11324723  0.43020287  0.38816894  1
  Al  Al11  1  0.22168635  0.53748046  0.14151611  1
  Al  Al12  1  0.77902866  0.43016162  0.88024227  1
  Al  Al13  1  0.89275247  0.54110614  0.63938735  1
  Al  Al14  1  0.46464154  0.42128478  0.31903665  1
  Al  Al15  1  0.54807663  0.55419043  0.06125149  1
  Al  Al16  1  0.11271715  0.42932987  0.89031640  1
  Al  Al17  1  0.21656771  0.53603351  0.63503417  1
  Al  Al18  1  0.78834512  0.41779609  0.39331590  1
  Al  Al19  1  0.88075214  0.54357977  0.14039357  1
  Al  Al20  1  0.45244180  0.42483519  0.81601135  1
  Al  Al21  1  0.55188928  0.53696614  0.57605741  1
  Al  Al22  1  0.10480159  0.78121366  0.31787703  1
  Al  Al23  1  0.23662527  0.86635417  0.05961850  1
  Al  Al24  1  0.76298242  0.75917253  0.89712353  1
  Al  Al25  1  0.44533492  0.76341323  0.31687091  1
  Al  Al26  1  0.10570021  0.76769903  0.82169241  1
  Al  Al27  1  0.20656482  0.87320779  0.57864633  1
  Al  Al28  1  0.78053589  0.77401867  0.38140923  1
  Al  Al29  1  0.88578419  0.87839338  0.07788737  1
  Al  Al30  1  0.55842503  0.87393972  0.64136741  1
  B  B31  1  0.91311252  0.23314318  0.65218820  1
  B  B32  1  0.78028636  0.09215775  0.32853922  1
  B  B33  1  0.87970061  0.86721755  0.60261305  1
  B  B34  1  0.56030060  0.87438017  0.14601058  1
  B  B35  1  0.43873444  0.75703493  0.80826711  1
  N  N36  1  0.21858036  0.20713702  0.32357625  1
  N  N37  1  0.10548566  0.10099334  0.06621014  1
  N  N38  1  0.89164365  0.21364761  0.79920160  1
  N  N39  1  0.77620330  0.04241128  0.63614519  1
  N  N40  1  0.59017871  0.19390175  0.37473207  1
  N  N41  1  0.45414193  0.06575489  0.08417584  1
  N  N42  1  0.22508793  0.20672403  0.82365598  1
  N  N43  1  0.07930108  0.11715054  0.58712960  1
  N  N44  1  0.87879173  0.19847216  0.32657546  1
  N  N45  1  0.77377028  0.09675723  0.12072796  1
  N  N46  1  0.55581728  0.20616108  0.88007527  1
  N  N47  1  0.43627763  0.08431299  0.56360447  1
  N  N48  1  0.22465773  0.54096398  0.33351213  1
  N  N49  1  0.11145591  0.42890623  0.07658246  1
  N  N50  1  0.88986543  0.54315382  0.82449892  1
  N  N51  1  0.79802681  0.40212383  0.58694829  1
  N  N52  1  0.55493335  0.54749288  0.38964258  1
  N  N53  1  0.45550291  0.42648719  0.12973443  1
  N  N54  1  0.22072179  0.53742888  0.82504366  1
  N  N55  1  0.11213570  0.42432825  0.57319785  1
  N  N56  1  0.88870853  0.54155204  0.32762883  1
  N  N57  1  0.78349050  0.42479880  0.06807932  1
  N  N58  1  0.53843816  0.56727469  0.86954880  1
  N  N59  1  0.45573206  0.41069369  0.62754454  1
  N  N60  1  0.22895351  0.87160450  0.39237613  1
  N  N61  1  0.11486218  0.76923680  0.12774230  1
  N  N62  1  0.89072009  0.87160334  0.89025111  1
  N  N63  1  0.78684308  0.76387134  0.57359416  1
  N  N64  1  0.56547268  0.87883408  0.30588243  1
  N  N65  1  0.45303321  0.77143402  0.13110138  1
  N  N66  1  0.24792666  0.85713978  0.86742183  1
  N  N67  1  0.07176289  0.77653043  0.62846631  1
  N  N68  1  0.87751527  0.90763037  0.35312440  1
  N  N69  1  0.74797254  0.77061013  0.08583564  1
  N  N70  1  0.54512928  0.86067965  0.82539741  1
  N  N71  1  0.43187659  0.75439862  0.64875465  1
