# generated using pymatgen
data_Al31B5N36
_symmetry_space_group_name_H-M   'P 1'
_cell_length_a   9.20500807
_cell_length_b   9.20315038
_cell_length_c   9.85645053
_cell_angle_alpha   90.00665157
_cell_angle_beta   89.55467959
_cell_angle_gamma   59.95775024
_symmetry_Int_Tables_number   1
_chemical_formula_structural   Al31B5N36
_chemical_formula_sum   'Al31 B5 N36'
_cell_volume   722.78485978
_cell_formula_units_Z   1
loop_
 _symmetry_equiv_pos_site_id
 _symmetry_equiv_pos_as_xyz
  1  'x, y, z'
loop_
 _atom_site_type_symbol
 _atom_site_label
 _atom_site_symmetry_multiplicity
 _atom_site_fract_x
 _atom_site_fract_y
 _atom_site_fract_z
 _atom_site_occupancy
  Al  Al0  1  0.09986908  0.09363475  0.40399785  1
  Al  Al1  1  0.22520255  0.19999596  0.15051499  1
  Al  Al2  1  0.78248289  0.09134207  0.86188117  1
  Al  Al3  1  0.44870926  0.08708867  0.38960991  1
  Al  Al4  1  0.55921159  0.20161625  0.07647088  1
  Al  Al5  1  0.11401265  0.09168078  0.89733081  1
  Al  Al6  1  0.21915748  0.20613898  0.64833944  1
  Al  Al7  1  0.88599170  0.20235059  0.14367856  1
  Al  Al8  1  0.43989103  0.08031441  0.89960375  1
  Al  Al9  1  0.57849098  0.19621516  0.58900298  1
  Al  Al10  1  0.10748122  0.42927320  0.40098123  1
  Al  Al11  1  0.21642942  0.54215368  0.15068830  1
  Al  Al12  1  0.77682271  0.43026019  0.89444664  1
  Al  Al13  1  0.88851650  0.54096140  0.64872455  1
  Al  Al14  1  0.45092303  0.42339132  0.35333240  1
  Al  Al15  1  0.55810404  0.54636307  0.14079417  1
  Al  Al16  1  0.10988850  0.42756925  0.90023322  1
  Al  Al17  1  0.21364771  0.54504564  0.64627737  1
  Al  Al18  1  0.77605456  0.41902912  0.40491295  1
  Al  Al19  1  0.88118518  0.54381777  0.15062582  1
  Al  Al20  1  0.44287415  0.43174210  0.85165805  1
  Al  Al21  1  0.55969238  0.54244554  0.64954623  1
  Al  Al22  1  0.09849181  0.77522655  0.40451622  1
  Al  Al23  1  0.22729520  0.87231596  0.14311483  1
  Al  Al24  1  0.77136904  0.76247921  0.89792968  1
  Al  Al25  1  0.44476937  0.76396470  0.39225312  1
  Al  Al26  1  0.11451072  0.76077089  0.89796260  1
  Al  Al27  1  0.22114574  0.87375109  0.65445973  1
  Al  Al28  1  0.77213437  0.77344137  0.39769279  1
  Al  Al29  1  0.87946856  0.88060749  0.14396443  1
  Al  Al30  1  0.55805488  0.87264914  0.65088454  1
  B  B31  1  0.89814851  0.19206164  0.66049797  1
  B  B32  1  0.77836148  0.09445648  0.36234433  1
  B  B33  1  0.89725777  0.87909696  0.66002756  1
  B  B34  1  0.55626496  0.87297995  0.14516848  1
  B  B35  1  0.44983290  0.76365633  0.90347335  1
  N  N36  1  0.21839606  0.20460586  0.34244182  1
  N  N37  1  0.10962948  0.09577164  0.08850343  1
  N  N38  1  0.89591591  0.20893119  0.82210500  1
  N  N39  1  0.80595826  0.08066782  0.63480867  1
  N  N40  1  0.59016737  0.18824655  0.38076670  1
  N  N41  1  0.45595462  0.06679822  0.09687576  1
  N  N42  1  0.22234812  0.20509355  0.83967380  1
  N  N43  1  0.08832572  0.10352073  0.59875632  1
  N  N44  1  0.87250289  0.19075163  0.33957211  1
  N  N45  1  0.78891492  0.08945902  0.06905072  1
  N  N46  1  0.54795427  0.20477346  0.87673116  1
  N  N47  1  0.44429726  0.09136416  0.58502478  1
  N  N48  1  0.21379575  0.54706248  0.34607263  1
  N  N49  1  0.10949930  0.42706925  0.09253038  1
  N  N50  1  0.88859456  0.54074153  0.83999913  1
  N  N51  1  0.78952884  0.40218616  0.59796784  1
  N  N52  1  0.56049547  0.54293339  0.33637742  1
  N  N53  1  0.44585361  0.42481002  0.12527263  1
  N  N54  1  0.21578645  0.54144604  0.83954480  1
  N  N55  1  0.11002096  0.42759629  0.58986835  1
  N  N56  1  0.88354808  0.54146223  0.34423099  1
  N  N57  1  0.78116676  0.42438553  0.08612701  1
  N  N58  1  0.54459280  0.56652847  0.84889220  1
  N  N59  1  0.44628713  0.42808251  0.61564055  1
  N  N60  1  0.22076877  0.87315507  0.33780025  1
  N  N61  1  0.10759995  0.76274855  0.08961311  1
  N  N62  1  0.89487029  0.86095123  0.82302533  1
  N  N63  1  0.78641009  0.77762097  0.59317689  1
  N  N64  1  0.55553922  0.87041926  0.31311908  1
  N  N65  1  0.45636735  0.77306478  0.07614180  1
  N  N66  1  0.24956441  0.85884972  0.84906716  1
  N  N67  1  0.08702458  0.77791282  0.59900612  1
  N  N68  1  0.87171955  0.90465575  0.33905920  1
  N  N69  1  0.75384641  0.77477513  0.09385640  1
  N  N70  1  0.54443330  0.85661914  0.84197530  1
  N  N71  1  0.44562979  0.76408294  0.58298752  1
