# generated using pymatgen
data_Al31B5N36
_symmetry_space_group_name_H-M   'P 1'
_cell_length_a   9.18463737
_cell_length_b   9.15729523
_cell_length_c   10.14438842
_cell_angle_alpha   89.59471005
_cell_angle_beta   89.37323769
_cell_angle_gamma   60.22252971
_symmetry_Int_Tables_number   1
_chemical_formula_structural   Al31B5N36
_chemical_formula_sum   'Al31 B5 N36'
_cell_volume   740.50577940
_cell_formula_units_Z   1
loop_
 _symmetry_equiv_pos_site_id
 _symmetry_equiv_pos_as_xyz
  1  'x, y, z'
loop_
 _atom_site_type_symbol
 _atom_site_label
 _atom_site_symmetry_multiplicity
 _atom_site_fract_x
 _atom_site_fract_y
 _atom_site_fract_z
 _atom_site_occupancy
  Al  Al0  1  0.09729389  0.10364131  0.39489832  1
  Al  Al1  1  0.22483564  0.20068012  0.14003187  1
  Al  Al2  1  0.78145677  0.08724132  0.86518724  1
  Al  Al3  1  0.44662106  0.09156433  0.38252308  1
  Al  Al4  1  0.55459534  0.20740304  0.06546558  1
  Al  Al5  1  0.10994942  0.09583574  0.87886620  1
  Al  Al6  1  0.21750808  0.20675565  0.63938417  1
  Al  Al7  1  0.88702211  0.20711672  0.13339134  1
  Al  Al8  1  0.43907525  0.07773434  0.89348626  1
  Al  Al9  1  0.57747811  0.19395871  0.57185998  1
  Al  Al10  1  0.11029661  0.43083775  0.39104731  1
  Al  Al11  1  0.22073477  0.53944554  0.14142770  1
  Al  Al12  1  0.77972073  0.42544128  0.87655649  1
  Al  Al13  1  0.88759427  0.54049477  0.63857994  1
  Al  Al14  1  0.46293187  0.42203327  0.32011751  1
  Al  Al15  1  0.54979299  0.55272354  0.06068145  1
  Al  Al16  1  0.10937641  0.42855810  0.88984017  1
  Al  Al17  1  0.20600199  0.54780643  0.63783491  1
  Al  Al18  1  0.78471025  0.41657059  0.39639858  1
  Al  Al19  1  0.88009195  0.54312661  0.14199705  1
  Al  Al20  1  0.44872964  0.42531184  0.81303954  1
  Al  Al21  1  0.55176683  0.53684469  0.57685643  1
  Al  Al22  1  0.10220565  0.77345246  0.36661286  1
  Al  Al23  1  0.24346695  0.87085334  0.06558108  1
  Al  Al24  1  0.76389757  0.75694106  0.89810800  1
  Al  Al25  1  0.44641110  0.76225880  0.31708163  1
  Al  Al26  1  0.11771662  0.75333923  0.89080393  1
  Al  Al27  1  0.21478210  0.87312173  0.58123698  1
  Al  Al28  1  0.77730174  0.77608341  0.38210396  1
  Al  Al29  1  0.88207297  0.87856441  0.09921488  1
  Al  Al30  1  0.55952612  0.87638020  0.64382469  1
  B  B31  1  0.89729719  0.19231194  0.64935774  1
  B  B32  1  0.78075616  0.09359645  0.34157257  1
  B  B33  1  0.88983858  0.88292698  0.60370116  1
  B  B34  1  0.56081654  0.87384008  0.14882880  1
  B  B35  1  0.44056683  0.75696135  0.80946964  1
  N  N36  1  0.21846213  0.20769286  0.32821340  1
  N  N37  1  0.10760562  0.10196830  0.07122373  1
  N  N38  1  0.89163784  0.20424844  0.80655411  1
  N  N39  1  0.80504869  0.06988777  0.62191193  1
  N  N40  1  0.59289526  0.19128668  0.37406909  1
  N  N41  1  0.45480190  0.06626060  0.08770552  1
  N  N42  1  0.22284222  0.20615725  0.82570352  1
  N  N43  1  0.08149115  0.11084826  0.58824254  1
  N  N44  1  0.87503813  0.19408712  0.32491950  1
  N  N45  1  0.78102632  0.10380535  0.06734300  1
  N  N46  1  0.54564028  0.20708866  0.87428846  1
  N  N47  1  0.43958980  0.09050523  0.57105100  1
  N  N48  1  0.22127159  0.54198392  0.33116280  1
  N  N49  1  0.11021211  0.42925582  0.07881631  1
  N  N50  1  0.88786258  0.54043700  0.82474204  1
  N  N51  1  0.79187698  0.39747624  0.58748192  1
  N  N52  1  0.55301003  0.54737255  0.38772741  1
  N  N53  1  0.45520017  0.42618132  0.13089322  1
  N  N54  1  0.21691052  0.53999493  0.82580310  1
  N  N55  1  0.10801800  0.42770649  0.57601662  1
  N  N56  1  0.88617964  0.54152982  0.33178546  1
  N  N57  1  0.78309114  0.42622103  0.06901083  1
  N  N58  1  0.53859978  0.56405949  0.86851451  1
  N  N59  1  0.44600795  0.41883241  0.62429797  1
  N  N60  1  0.23204400  0.87299816  0.38748304  1
  N  N61  1  0.12089943  0.75982150  0.08912319  1
  N  N62  1  0.89067829  0.85932230  0.87984784  1
  N  N63  1  0.78646508  0.78260876  0.57657884  1
  N  N64  1  0.56335838  0.88020791  0.31079873  1
  N  N65  1  0.45828280  0.76982072  0.13155018  1
  N  N66  1  0.25334742  0.85725059  0.86967794  1
  N  N67  1  0.07579638  0.77584959  0.58348876  1
  N  N68  1  0.87481210  0.90692210  0.31957330  1
  N  N69  1  0.74699073  0.77149782  0.09035653  1
  N  N70  1  0.54583230  0.85803606  0.82858670  1
  N  N71  1  0.43651496  0.75533251  0.64763286  1
