# generated using pymatgen
data_Al31B5N36
_symmetry_space_group_name_H-M   'P 1'
_cell_length_a   9.16050267
_cell_length_b   9.20480985
_cell_length_c   10.16596507
_cell_angle_alpha   89.64280978
_cell_angle_beta   89.45696907
_cell_angle_gamma   60.07936391
_symmetry_Int_Tables_number   1
_chemical_formula_structural   Al31B5N36
_chemical_formula_sum   'Al31 B5 N36'
_cell_volume   742.91644131
_cell_formula_units_Z   1
loop_
 _symmetry_equiv_pos_site_id
 _symmetry_equiv_pos_as_xyz
  1  'x, y, z'
loop_
 _atom_site_type_symbol
 _atom_site_label
 _atom_site_symmetry_multiplicity
 _atom_site_fract_x
 _atom_site_fract_y
 _atom_site_fract_z
 _atom_site_occupancy
  Al  Al0  1  0.09659912  0.10449945  0.39342120  1
  Al  Al1  1  0.22227377  0.19697427  0.13596662  1
  Al  Al2  1  0.77782361  0.08488600  0.80876298  1
  Al  Al3  1  0.44608802  0.09049971  0.37391516  1
  Al  Al4  1  0.55931579  0.20347958  0.07406841  1
  Al  Al5  1  0.11211418  0.09675829  0.87588983  1
  Al  Al6  1  0.22602197  0.20515686  0.63753603  1
  Al  Al7  1  0.88694135  0.20789262  0.13951617  1
  Al  Al8  1  0.44533624  0.07996181  0.89364953  1
  Al  Al9  1  0.57581646  0.18744706  0.55821846  1
  Al  Al10  1  0.11116078  0.42772499  0.38538509  1
  Al  Al11  1  0.22175513  0.53884553  0.12303865  1
  Al  Al12  1  0.77824861  0.43271254  0.87742270  1
  Al  Al13  1  0.89456712  0.54221881  0.63905498  1
  Al  Al14  1  0.46034805  0.42342598  0.32124303  1
  Al  Al15  1  0.54665174  0.55459452  0.05961966  1
  Al  Al16  1  0.11319899  0.42910958  0.88849082  1
  Al  Al17  1  0.22131088  0.53943687  0.60312013  1
  Al  Al18  1  0.78815736  0.41691449  0.39238680  1
  Al  Al19  1  0.87863482  0.54182302  0.13924981  1
  Al  Al20  1  0.44972566  0.42599132  0.81604293  1
  Al  Al21  1  0.55443388  0.53661760  0.57735946  1
  Al  Al22  1  0.10534776  0.77800485  0.32157326  1
  Al  Al23  1  0.23567652  0.86591526  0.05810701  1
  Al  Al24  1  0.76454382  0.76266004  0.89693025  1
  Al  Al25  1  0.44421776  0.76271234  0.31759552  1
  Al  Al26  1  0.10630616  0.76508314  0.82097907  1
  Al  Al27  1  0.20720965  0.87545456  0.58000722  1
  Al  Al28  1  0.78032436  0.77192055  0.37926772  1
  Al  Al29  1  0.88472248  0.87689075  0.08639315  1
  Al  Al30  1  0.55995769  0.87446408  0.63960199  1
  B  B31  1  0.91516203  0.23561095  0.65175728  1
  B  B32  1  0.77496209  0.08909987  0.30671683  1
  B  B33  1  0.88015266  0.86683354  0.59614509  1
  B  B34  1  0.55892755  0.87273410  0.14626150  1
  B  B35  1  0.43927437  0.75760752  0.80673880  1
  N  N36  1  0.21752189  0.20555223  0.32233518  1
  N  N37  1  0.10220721  0.09968678  0.06422788  1
  N  N38  1  0.89243487  0.21517087  0.79835768  1
  N  N39  1  0.77683748  0.04092468  0.63303592  1
  N  N40  1  0.58537211  0.19447297  0.36929583  1
  N  N41  1  0.45319968  0.06553403  0.08478499  1
  N  N42  1  0.22789078  0.20634244  0.82399403  1
  N  N43  1  0.08091673  0.11811892  0.58769695  1
  N  N44  1  0.88019504  0.20025151  0.32551750  1
  N  N45  1  0.76830139  0.09397315  0.14727743  1
  N  N46  1  0.56224243  0.20679304  0.88547177  1
  N  N47  1  0.43778744  0.08435016  0.56227602  1
  N  N48  1  0.22539151  0.54303344  0.35416378  1
  N  N49  1  0.10889330  0.42650943  0.07776474  1
  N  N50  1  0.89014276  0.54581900  0.82495898  1
  N  N51  1  0.79923171  0.40353992  0.58731928  1
  N  N52  1  0.55508737  0.54698189  0.38954515  1
  N  N53  1  0.45295022  0.42835584  0.13117063  1
  N  N54  1  0.22313523  0.53938166  0.84101002  1
  N  N55  1  0.11187047  0.42255650  0.57290816  1
  N  N56  1  0.88739107  0.54046283  0.32626438  1
  N  N57  1  0.78127882  0.42245990  0.06618192  1
  N  N58  1  0.53881084  0.56853859  0.86696115  1
  N  N59  1  0.45714522  0.40968842  0.62668168  1
  N  N60  1  0.22808036  0.87217629  0.39254374  1
  N  N61  1  0.11611235  0.76789091  0.13029369  1
  N  N62  1  0.89104175  0.87869798  0.89596893  1
  N  N63  1  0.78786071  0.76260729  0.57172443  1
  N  N64  1  0.56423572  0.87736471  0.30570401  1
  N  N65  1  0.45181268  0.77133218  0.12995861  1
  N  N66  1  0.24838806  0.85762014  0.86467975  1
  N  N67  1  0.07308454  0.77569457  0.62695428  1
  N  N68  1  0.87717398  0.90358681  0.35111637  1
  N  N69  1  0.74741980  0.76944387  0.08611003  1
  N  N70  1  0.54709933  0.86238298  0.82472768  1
  N  N71  1  0.43347425  0.75525665  0.64727948  1
