# generated using pymatgen
data_Al31B5N36
_symmetry_space_group_name_H-M   'P 1'
_cell_length_a   9.19792820
_cell_length_b   9.23166464
_cell_length_c   9.95137358
_cell_angle_alpha   89.82825894
_cell_angle_beta   89.77403834
_cell_angle_gamma   59.99571251
_symmetry_Int_Tables_number   1
_chemical_formula_structural   Al31B5N36
_chemical_formula_sum   'Al31 B5 N36'
_cell_volume   731.74750373
_cell_formula_units_Z   1
loop_
 _symmetry_equiv_pos_site_id
 _symmetry_equiv_pos_as_xyz
  1  'x, y, z'
loop_
 _atom_site_type_symbol
 _atom_site_label
 _atom_site_symmetry_multiplicity
 _atom_site_fract_x
 _atom_site_fract_y
 _atom_site_fract_z
 _atom_site_occupancy
  Al  Al0  1  0.10852040  0.08865082  0.32500074  1
  Al  Al1  1  0.22795819  0.19375847  0.07867840  1
  Al  Al2  1  0.78185479  0.09017345  0.82501075  1
  Al  Al3  1  0.45572840  0.08291769  0.33036213  1
  Al  Al4  1  0.56100168  0.20011607  0.07669118  1
  Al  Al5  1  0.10618730  0.09456229  0.81798000  1
  Al  Al6  1  0.21788966  0.19957344  0.57008034  1
  Al  Al7  1  0.88580497  0.21071620  0.07653455  1
  Al  Al8  1  0.44017720  0.09361433  0.81953493  1
  Al  Al9  1  0.57014758  0.19641929  0.56635955  1
  Al  Al10  1  0.10757670  0.43174845  0.38855272  1
  Al  Al11  1  0.22786313  0.54261125  0.07291069  1
  Al  Al12  1  0.76799773  0.43151323  0.81478335  1
  Al  Al13  1  0.89369087  0.54915067  0.64403922  1
  Al  Al14  1  0.45186526  0.42320905  0.32072801  1
  Al  Al15  1  0.56046576  0.54868668  0.07061717  1
  Al  Al16  1  0.10208277  0.43105638  0.89247401  1
  Al  Al17  1  0.22456141  0.54233668  0.57695782  1
  Al  Al18  1  0.77847001  0.41710394  0.34411599  1
  Al  Al19  1  0.88229749  0.54881837  0.15192311  1
  Al  Al20  1  0.44555887  0.43078627  0.82274351  1
  Al  Al21  1  0.55575999  0.53933311  0.57620291  1
  Al  Al22  1  0.11025178  0.76596044  0.31831667  1
  Al  Al23  1  0.23409257  0.87354956  0.06567766  1
  Al  Al24  1  0.75825588  0.76649557  0.89670604  1
  Al  Al25  1  0.45025824  0.76169847  0.33069340  1
  Al  Al26  1  0.10794535  0.76391671  0.83076461  1
  Al  Al27  1  0.21357009  0.87124751  0.57470658  1
  Al  Al28  1  0.78248022  0.77453446  0.40137165  1
  Al  Al29  1  0.88300225  0.88121152  0.10453592  1
  Al  Al30  1  0.55455186  0.87218160  0.61033335  1
  B  B31  1  0.90791835  0.15575808  0.55610154  1
  B  B32  1  0.77614751  0.08875111  0.31543638  1
  B  B33  1  0.89675459  0.87252567  0.61159331  1
  B  B34  1  0.55514569  0.87167669  0.11490201  1
  B  B35  1  0.44035356  0.76381797  0.81114338  1
  N  N36  1  0.22527405  0.19901049  0.37576707  1
  N  N37  1  0.10913646  0.09159698  0.13484411  1
  N  N38  1  0.88333024  0.21028179  0.88523063  1
  N  N39  1  0.80876869  0.06928046  0.62385239  1
  N  N40  1  0.58239298  0.19002926  0.37373586  1
  N  N41  1  0.46209846  0.06319906  0.13246233  1
  N  N42  1  0.22092490  0.19900130  0.88299397  1
  N  N43  1  0.08218615  0.10165989  0.62144193  1
  N  N44  1  0.88403823  0.18272779  0.40012529  1
  N  N45  1  0.77378875  0.10861282  0.15358669  1
  N  N46  1  0.55693027  0.20253580  0.88397911  1
  N  N47  1  0.43908017  0.10546027  0.62957404  1
  N  N48  1  0.22749417  0.54395326  0.38183568  1
  N  N49  1  0.10628499  0.43083330  0.09226837  1
  N  N50  1  0.88510898  0.54783046  0.83656597  1
  N  N51  1  0.77807197  0.42876974  0.62420498  1
  N  N52  1  0.55291161  0.54000789  0.38648987  1
  N  N53  1  0.44895116  0.42817665  0.12989470  1
  N  N54  1  0.22441032  0.54067830  0.87927970  1
  N  N55  1  0.10953916  0.42783544  0.58670087  1
  N  N56  1  0.88501462  0.55050395  0.34322923  1
  N  N57  1  0.77491208  0.42532842  0.14408924  1
  N  N58  1  0.54157214  0.56633099  0.87724173  1
  N  N59  1  0.45064903  0.42032305  0.63239793  1
  N  N60  1  0.22533350  0.86834494  0.38600795  1
  N  N61  1  0.12188353  0.76210632  0.12810879  1
  N  N62  1  0.88685090  0.87710706  0.89892469  1
  N  N63  1  0.79981253  0.78344367  0.59702142  1
  N  N64  1  0.55205628  0.87079645  0.40507430  1
  N  N65  1  0.45958031  0.77810974  0.13502678  1
  N  N66  1  0.24310856  0.86393556  0.87218810  1
  N  N67  1  0.08449082  0.77323345  0.63403624  1
  N  N68  1  0.87599345  0.89570947  0.33458910  1
  N  N69  1  0.74164901  0.77620822  0.09380691  1
  N  N70  1  0.54177497  0.85975117  0.83028373  1
  N  N71  1  0.43000599  0.75809908  0.64885475  1
