# generated using pymatgen
data_Al31B5N36
_symmetry_space_group_name_H-M   'P 1'
_cell_length_a   9.19826379
_cell_length_b   9.18033620
_cell_length_c   9.95190770
_cell_angle_alpha   90.23985825
_cell_angle_beta   89.93541102
_cell_angle_gamma   59.90342341
_symmetry_Int_Tables_number   1
_chemical_formula_structural   Al31B5N36
_chemical_formula_sum   'Al31 B5 N36'
_cell_volume   727.06146304
_cell_formula_units_Z   1
loop_
 _symmetry_equiv_pos_site_id
 _symmetry_equiv_pos_as_xyz
  1  'x, y, z'
loop_
 _atom_site_type_symbol
 _atom_site_label
 _atom_site_symmetry_multiplicity
 _atom_site_fract_x
 _atom_site_fract_y
 _atom_site_fract_z
 _atom_site_occupancy
  Al  Al0  1  0.10633713  0.09158059  0.32184890  1
  Al  Al1  1  0.22411109  0.20106850  0.06946052  1
  Al  Al2  1  0.78152021  0.08773225  0.81863883  1
  Al  Al3  1  0.45632195  0.08351590  0.32399848  1
  Al  Al4  1  0.56093753  0.20067672  0.07155558  1
  Al  Al5  1  0.10904776  0.09416693  0.81188172  1
  Al  Al6  1  0.21705966  0.20656765  0.56266835  1
  Al  Al7  1  0.88764085  0.20830902  0.07113084  1
  Al  Al8  1  0.44159697  0.09180892  0.81513994  1
  Al  Al9  1  0.57016312  0.19489886  0.56186276  1
  Al  Al10  1  0.11862799  0.42627945  0.32033996  1
  Al  Al11  1  0.22372731  0.54039130  0.06434306  1
  Al  Al12  1  0.77152685  0.42305639  0.81275190  1
  Al  Al13  1  0.88750667  0.54445440  0.62877786  1
  Al  Al14  1  0.45115481  0.42378036  0.31520953  1
  Al  Al15  1  0.55727450  0.54935466  0.06275176  1
  Al  Al16  1  0.11451500  0.42519140  0.81817917  1
  Al  Al17  1  0.21886019  0.54160428  0.56733511  1
  Al  Al18  1  0.77668799  0.41765262  0.33055537  1
  Al  Al19  1  0.87615263  0.55351110  0.14347608  1
  Al  Al20  1  0.44455462  0.43012246  0.81606238  1
  Al  Al21  1  0.55680333  0.53188784  0.56891691  1
  Al  Al22  1  0.10970075  0.76742495  0.31316913  1
  Al  Al23  1  0.23351860  0.87464982  0.06017862  1
  Al  Al24  1  0.75984984  0.76310840  0.88924373  1
  Al  Al25  1  0.44934684  0.76304102  0.32445206  1
  Al  Al26  1  0.10783364  0.76405686  0.82409960  1
  Al  Al27  1  0.21201182  0.87497600  0.56984119  1
  Al  Al28  1  0.78404654  0.77424932  0.39529513  1
  Al  Al29  1  0.88327784  0.88182021  0.09716097  1
  Al  Al30  1  0.55390366  0.87313465  0.60150392  1
  B  B31  1  0.89397946  0.19195436  0.55912864  1
  B  B32  1  0.77757819  0.09151096  0.31245194  1
  B  B33  1  0.89482950  0.87615623  0.60509159  1
  B  B34  1  0.55294379  0.87397548  0.10750662  1
  B  B35  1  0.44321163  0.76149258  0.80477475  1
  N  N36  1  0.22535983  0.20279656  0.37324934  1
  N  N37  1  0.11015752  0.09419033  0.13019619  1
  N  N38  1  0.88718731  0.20366603  0.88132083  1
  N  N39  1  0.80401238  0.07217779  0.62141132  1
  N  N40  1  0.58210525  0.19118086  0.36887447  1
  N  N41  1  0.45981047  0.06577228  0.12608059  1
  N  N42  1  0.22023589  0.20405629  0.87912287  1
  N  N43  1  0.08467604  0.10696918  0.61718060  1
  N  N44  1  0.88108242  0.18985943  0.39300504  1
  N  N45  1  0.77370071  0.10951571  0.14912727  1
  N  N46  1  0.55716565  0.20249020  0.87925871  1
  N  N47  1  0.43852657  0.10516776  0.62501350  1
  N  N48  1  0.22439083  0.54207522  0.37763627  1
  N  N49  1  0.11373603  0.42902523  0.12630387  1
  N  N50  1  0.88157749  0.54417905  0.82738991  1
  N  N51  1  0.78841367  0.39489822  0.61608807  1
  N  N52  1  0.55327464  0.54034320  0.38023899  1
  N  N53  1  0.44616432  0.43056431  0.12398569  1
  N  N54  1  0.22224022  0.53890925  0.87512088  1
  N  N55  1  0.11689021  0.42451501  0.62478855  1
  N  N56  1  0.88577276  0.54733301  0.34259705  1
  N  N57  1  0.77304143  0.42745506  0.13346987  1
  N  N58  1  0.54313818  0.56320568  0.86902279  1
  N  N59  1  0.44591548  0.42125066  0.62572472  1
  N  N60  1  0.22540254  0.86947622  0.38089538  1
  N  N61  1  0.12163326  0.76219150  0.12227400  1
  N  N62  1  0.88749062  0.87444782  0.89333185  1
  N  N63  1  0.79934355  0.78124574  0.59015296  1
  N  N64  1  0.55290981  0.87115719  0.39790881  1
  N  N65  1  0.45901207  0.77855084  0.12866156  1
  N  N66  1  0.24512328  0.86239350  0.86559080  1
  N  N67  1  0.08352886  0.77497104  0.62750365  1
  N  N68  1  0.87675628  0.89720995  0.33181954  1
  N  N69  1  0.74046279  0.77840309  0.08727705  1
  N  N70  1  0.54161177  0.85871866  0.82724012  1
  N  N71  1  0.43608320  0.75307131  0.64176954  1
