# generated using pymatgen
data_Al31B5N36
_symmetry_space_group_name_H-M   'P 1'
_cell_length_a   9.14827628
_cell_length_b   9.12820401
_cell_length_c   10.22714697
_cell_angle_alpha   89.61196481
_cell_angle_beta   89.60725089
_cell_angle_gamma   60.43864140
_symmetry_Int_Tables_number   1
_chemical_formula_structural   Al31B5N36
_chemical_formula_sum   'Al31 B5 N36'
_cell_volume   742.84621573
_cell_formula_units_Z   1
loop_
 _symmetry_equiv_pos_site_id
 _symmetry_equiv_pos_as_xyz
  1  'x, y, z'
loop_
 _atom_site_type_symbol
 _atom_site_label
 _atom_site_symmetry_multiplicity
 _atom_site_fract_x
 _atom_site_fract_y
 _atom_site_fract_z
 _atom_site_occupancy
  Al  Al0  1  0.09641303  0.10282744  0.39628984  1
  Al  Al1  1  0.22464414  0.19834258  0.14017151  1
  Al  Al2  1  0.77942385  0.09098562  0.86881580  1
  Al  Al3  1  0.44674316  0.09099450  0.38251680  1
  Al  Al4  1  0.55466384  0.20698950  0.06736510  1
  Al  Al5  1  0.10953693  0.09721914  0.87975471  1
  Al  Al6  1  0.21749135  0.20463167  0.63959713  1
  Al  Al7  1  0.88794305  0.20593608  0.13447023  1
  Al  Al8  1  0.43811116  0.07862987  0.89455938  1
  Al  Al9  1  0.57762163  0.19325983  0.57087415  1
  Al  Al10  1  0.11110424  0.43063768  0.39026041  1
  Al  Al11  1  0.22241623  0.53609342  0.14148265  1
  Al  Al12  1  0.78044658  0.42570238  0.87830614  1
  Al  Al13  1  0.88857060  0.53911586  0.63938231  1
  Al  Al14  1  0.46270096  0.42246023  0.32116033  1
  Al  Al15  1  0.55008332  0.55322421  0.06125059  1
  Al  Al16  1  0.11059863  0.42981980  0.89081045  1
  Al  Al17  1  0.21276302  0.53761722  0.63578304  1
  Al  Al18  1  0.78549294  0.41718418  0.39647908  1
  Al  Al19  1  0.87991952  0.54413236  0.14298275  1
  Al  Al20  1  0.44977634  0.42553303  0.81432881  1
  Al  Al21  1  0.55269869  0.53653754  0.57591007  1
  Al  Al22  1  0.10605473  0.78042598  0.31571681  1
  Al  Al23  1  0.23889153  0.86549345  0.05969275  1
  Al  Al24  1  0.76258308  0.75571871  0.89803473  1
  Al  Al25  1  0.44515432  0.76317304  0.31654943  1
  Al  Al26  1  0.10653426  0.76776313  0.82187347  1
  Al  Al27  1  0.21420420  0.87033434  0.57745964  1
  Al  Al28  1  0.77894462  0.77712749  0.38498805  1
  Al  Al29  1  0.88775940  0.87419737  0.08044098  1
  Al  Al30  1  0.55948562  0.87592708  0.64461721  1
  B  B31  1  0.89659290  0.19209335  0.64974360  1
  B  B32  1  0.78134968  0.09335892  0.34670005  1
  B  B33  1  0.88839815  0.88436725  0.60956317  1
  B  B34  1  0.55994160  0.87460828  0.14824122  1
  B  B35  1  0.44049753  0.75620611  0.80938014  1
  N  N36  1  0.21808059  0.20629789  0.32734637  1
  N  N37  1  0.10783538  0.09961048  0.06889549  1
  N  N38  1  0.89143452  0.20493069  0.80662506  1
  N  N39  1  0.80336219  0.07060958  0.62494094  1
  N  N40  1  0.59187330  0.19313346  0.37658106  1
  N  N41  1  0.45429980  0.06607715  0.08748794  1
  N  N42  1  0.22259404  0.20698807  0.82501015  1
  N  N43  1  0.08100551  0.10920022  0.58802209  1
  N  N44  1  0.87517621  0.19565485  0.32445138  1
  N  N45  1  0.78136944  0.10267472  0.06805776  1
  N  N46  1  0.54503802  0.20820838  0.87711437  1
  N  N47  1  0.43924809  0.08902341  0.57038228  1
  N  N48  1  0.22341012  0.54036972  0.33381747  1
  N  N49  1  0.11010595  0.42874457  0.07835355  1
  N  N50  1  0.88861912  0.54091543  0.82445369  1
  N  N51  1  0.79266432  0.39672937  0.58706758  1
  N  N52  1  0.55337217  0.54852674  0.38859618  1
  N  N53  1  0.45609452  0.42595669  0.13205760  1
  N  N54  1  0.21937952  0.53753654  0.82551395  1
  N  N55  1  0.10783464  0.42560147  0.57425830  1
  N  N56  1  0.88630895  0.54304308  0.33146744  1
  N  N57  1  0.78392080  0.42563761  0.06901409  1
  N  N58  1  0.53921059  0.56512964  0.86994178  1
  N  N59  1  0.44977678  0.41619754  0.62618142  1
  N  N60  1  0.22979088  0.86986072  0.39025577  1
  N  N61  1  0.11664771  0.76797161  0.12692403  1
  N  N62  1  0.89380516  0.85926871  0.88725443  1
  N  N63  1  0.78848717  0.78133186  0.57978451  1
  N  N64  1  0.56439934  0.87996808  0.30975170  1
  N  N65  1  0.45450634  0.77112719  0.13133391  1
  N  N66  1  0.24978932  0.85614136  0.86844025  1
  N  N67  1  0.07671768  0.77920324  0.62876540  1
  N  N68  1  0.87436031  0.91039753  0.33808087  1
  N  N69  1  0.74676476  0.77189109  0.08866181  1
  N  N70  1  0.54459820  0.85946853  0.82837030  1
  N  N71  1  0.43616601  0.75418135  0.64848047  1
