# generated using pymatgen
data_Al31B5N36
_symmetry_space_group_name_H-M   'P 1'
_cell_length_a   9.20665067
_cell_length_b   9.18900562
_cell_length_c   9.90531260
_cell_angle_alpha   90.22286507
_cell_angle_beta   89.91097351
_cell_angle_gamma   59.93376618
_symmetry_Int_Tables_number   1
_chemical_formula_structural   Al31B5N36
_chemical_formula_sum   'Al31 B5 N36'
_cell_volume   725.22357780
_cell_formula_units_Z   1
loop_
 _symmetry_equiv_pos_site_id
 _symmetry_equiv_pos_as_xyz
  1  'x, y, z'
loop_
 _atom_site_type_symbol
 _atom_site_label
 _atom_site_symmetry_multiplicity
 _atom_site_fract_x
 _atom_site_fract_y
 _atom_site_fract_z
 _atom_site_occupancy
  Al  Al0  1  0.10632417  0.09121557  0.31916460  1
  Al  Al1  1  0.22420851  0.20109151  0.06689639  1
  Al  Al2  1  0.78165278  0.08866357  0.81605384  1
  Al  Al3  1  0.45608015  0.08368437  0.32140265  1
  Al  Al4  1  0.56098461  0.20074884  0.06874331  1
  Al  Al5  1  0.10868608  0.09485624  0.80935140  1
  Al  Al6  1  0.21820101  0.20509045  0.56001281  1
  Al  Al7  1  0.88757893  0.20871173  0.06806856  1
  Al  Al8  1  0.44119296  0.09254039  0.81276033  1
  Al  Al9  1  0.57040091  0.19469875  0.55927890  1
  Al  Al10  1  0.11731246  0.42653282  0.31929351  1
  Al  Al11  1  0.22360606  0.54056344  0.06162420  1
  Al  Al12  1  0.77246520  0.42490361  0.80868228  1
  Al  Al13  1  0.88910265  0.54042850  0.60982621  1
  Al  Al14  1  0.45082955  0.42364739  0.31264604  1
  Al  Al15  1  0.55705105  0.54960998  0.06001479  1
  Al  Al16  1  0.11216639  0.42672965  0.81421969  1
  Al  Al17  1  0.21922813  0.54139633  0.56511435  1
  Al  Al18  1  0.77658081  0.41770500  0.32878150  1
  Al  Al19  1  0.87729744  0.55159881  0.13236141  1
  Al  Al20  1  0.44453778  0.43032268  0.81375021  1
  Al  Al21  1  0.55617232  0.53187317  0.56625735  1
  Al  Al22  1  0.11022316  0.76694273  0.31058375  1
  Al  Al23  1  0.23363382  0.87479116  0.05735132  1
  Al  Al24  1  0.76038355  0.76403796  0.88429181  1
  Al  Al25  1  0.44928923  0.76301553  0.32172838  1
  Al  Al26  1  0.10759242  0.76428656  0.82193689  1
  Al  Al27  1  0.21221457  0.87463878  0.56755089  1
  Al  Al28  1  0.78286660  0.77591647  0.39122014  1
  Al  Al29  1  0.88313453  0.88235533  0.09611518  1
  Al  Al30  1  0.55468596  0.87261973  0.60018109  1
  B  B31  1  0.89374026  0.18980616  0.55587364  1
  B  B32  1  0.77797503  0.09235223  0.30936161  1
  B  B33  1  0.89507182  0.87564387  0.60271884  1
  B  B34  1  0.55300768  0.87403296  0.10479432  1
  B  B35  1  0.44324347  0.76141210  0.80186852  1
  N  N36  1  0.22543390  0.20228486  0.36994392  1
  N  N37  1  0.10994730  0.09439146  0.12693560  1
  N  N38  1  0.88663420  0.20514796  0.87791527  1
  N  N39  1  0.80462590  0.07209260  0.61817728  1
  N  N40  1  0.58214071  0.19107898  0.36583890  1
  N  N41  1  0.45977480  0.06587483  0.12280273  1
  N  N42  1  0.21984437  0.20508646  0.87593578  1
  N  N43  1  0.08459743  0.10657125  0.61393064  1
  N  N44  1  0.88057773  0.18870676  0.38932050  1
  N  N45  1  0.77340932  0.11060303  0.14587016  1
  N  N46  1  0.55729268  0.20271907  0.87606570  1
  N  N47  1  0.43907850  0.10477651  0.62189533  1
  N  N48  1  0.22426019  0.54188608  0.37470198  1
  N  N49  1  0.11304873  0.42951343  0.12483459  1
  N  N50  1  0.88219101  0.54370236  0.82917309  1
  N  N51  1  0.78817737  0.39423300  0.61202708  1
  N  N52  1  0.55278528  0.54039496  0.37696312  1
  N  N53  1  0.44600846  0.43053525  0.12073410  1
  N  N54  1  0.22189488  0.53884337  0.87174476  1
  N  N55  1  0.11739654  0.42348920  0.62104254  1
  N  N56  1  0.88667006  0.54433132  0.35149209  1
  N  N57  1  0.77304831  0.42775197  0.13182211  1
  N  N58  1  0.54326546  0.56349762  0.86572041  1
  N  N59  1  0.44597342  0.42086323  0.62280210  1
  N  N60  1  0.22549035  0.86929983  0.37791913  1
  N  N61  1  0.12201267  0.76212933  0.11901406  1
  N  N62  1  0.88727096  0.87560502  0.89081054  1
  N  N63  1  0.79944003  0.78178613  0.58764063  1
  N  N64  1  0.55273263  0.87124373  0.39484612  1
  N  N65  1  0.45900797  0.77876021  0.12544643  1
  N  N66  1  0.24503853  0.86278830  0.86240224  1
  N  N67  1  0.08358806  0.77472669  0.62455268  1
  N  N68  1  0.87709068  0.89692181  0.32702294  1
  N  N69  1  0.74042497  0.77890060  0.08575122  1
  N  N70  1  0.54149269  0.85928278  0.82387122  1
  N  N71  1  0.43615916  0.75282466  0.63863803  1
