# generated using pymatgen
data_Al31B5N36
_symmetry_space_group_name_H-M   'P 1'
_cell_length_a   9.16654431
_cell_length_b   9.20380353
_cell_length_c   10.19607070
_cell_angle_alpha   89.50446551
_cell_angle_beta   89.20760052
_cell_angle_gamma   59.90141978
_symmetry_Int_Tables_number   1
_chemical_formula_structural   Al31B5N36
_chemical_formula_sum   'Al31 B5 N36'
_cell_volume   744.15224633
_cell_formula_units_Z   1
loop_
 _symmetry_equiv_pos_site_id
 _symmetry_equiv_pos_as_xyz
  1  'x, y, z'
loop_
 _atom_site_type_symbol
 _atom_site_label
 _atom_site_symmetry_multiplicity
 _atom_site_fract_x
 _atom_site_fract_y
 _atom_site_fract_z
 _atom_site_occupancy
  Al  Al0  1  0.09659712  0.10186206  0.39297572  1
  Al  Al1  1  0.22231164  0.19700848  0.13705752  1
  Al  Al2  1  0.78050175  0.08545732  0.81061785  1
  Al  Al3  1  0.44661091  0.08846040  0.38397155  1
  Al  Al4  1  0.55764427  0.20440394  0.07022635  1
  Al  Al5  1  0.11173917  0.09733856  0.87685063  1
  Al  Al6  1  0.22367682  0.20876661  0.63909955  1
  Al  Al7  1  0.88618554  0.20939541  0.13968545  1
  Al  Al8  1  0.44597181  0.08131516  0.88565804  1
  Al  Al9  1  0.57775116  0.19059595  0.56142586  1
  Al  Al10  1  0.11035528  0.42456686  0.38400905  1
  Al  Al11  1  0.22606294  0.54262798  0.06999641  1
  Al  Al12  1  0.77744895  0.43438607  0.87819822  1
  Al  Al13  1  0.89619214  0.54144098  0.63990861  1
  Al  Al14  1  0.45505897  0.42259461  0.31788239  1
  Al  Al15  1  0.54655690  0.55424043  0.06126796  1
  Al  Al16  1  0.10942154  0.42667972  0.89040341  1
  Al  Al17  1  0.22338976  0.54284847  0.56680957  1
  Al  Al18  1  0.78667856  0.41535542  0.39176425  1
  Al  Al19  1  0.87777378  0.54240328  0.14090530  1
  Al  Al20  1  0.44629006  0.43017394  0.81578091  1
  Al  Al21  1  0.55269571  0.53787447  0.57574956  1
  Al  Al22  1  0.10856130  0.77053879  0.31607570  1
  Al  Al23  1  0.23474632  0.86764319  0.05887764  1
  Al  Al24  1  0.76648885  0.76512485  0.89340024  1
  Al  Al25  1  0.44536611  0.76262167  0.32231874  1
  Al  Al26  1  0.10992373  0.76263738  0.82427206  1
  Al  Al27  1  0.20718408  0.87503591  0.58047819  1
  Al  Al28  1  0.78189761  0.77002679  0.38584398  1
  Al  Al29  1  0.88329904  0.87675337  0.09686103  1
  Al  Al30  1  0.55970894  0.87476741  0.63195292  1
  B  B31  1  0.91481931  0.23530458  0.65161864  1
  B  B32  1  0.77190397  0.08842973  0.30237424  1
  B  B33  1  0.88487251  0.86354604  0.60875081  1
  B  B34  1  0.55332324  0.87122674  0.11818292  1
  B  B35  1  0.44095050  0.75919221  0.80562902  1
  N  N36  1  0.22059682  0.20190453  0.32312131  1
  N  N37  1  0.10186244  0.10059003  0.06484998  1
  N  N38  1  0.89285026  0.21682016  0.79912487  1
  N  N39  1  0.78361204  0.04205693  0.63353844  1
  N  N40  1  0.58551252  0.19285186  0.37039368  1
  N  N41  1  0.45379199  0.06140638  0.07943257  1
  N  N42  1  0.22581781  0.20821690  0.82443634  1
  N  N43  1  0.08178365  0.11794827  0.58771925  1
  N  N44  1  0.88061734  0.19796197  0.32484233  1
  N  N45  1  0.76418437  0.10012493  0.14378696  1
  N  N46  1  0.56115936  0.20833581  0.88250490  1
  N  N47  1  0.43772994  0.09416896  0.57219088  1
  N  N48  1  0.22678344  0.54379004  0.37742815  1
  N  N49  1  0.10671413  0.42558179  0.07970454  1
  N  N50  1  0.89077505  0.54625184  0.82509227  1
  N  N51  1  0.79790110  0.40420249  0.58719019  1
  N  N52  1  0.55330481  0.54193175  0.38727001  1
  N  N53  1  0.44717018  0.42982335  0.13002894  1
  N  N54  1  0.22716704  0.54167055  0.88017219  1
  N  N55  1  0.11100329  0.42335011  0.57354353  1
  N  N56  1  0.88716400  0.53932950  0.32718295  1
  N  N57  1  0.78029752  0.42420184  0.06680840  1
  N  N58  1  0.53851815  0.57008732  0.86783447  1
  N  N59  1  0.44971329  0.41682051  0.62980391  1
  N  N60  1  0.22398471  0.86906799  0.39216749  1
  N  N61  1  0.12171266  0.76195519  0.12837428  1
  N  N62  1  0.89270258  0.87919838  0.89905235  1
  N  N63  1  0.79576478  0.76366881  0.57875758  1
  N  N64  1  0.56099694  0.86910399  0.34700771  1
  N  N65  1  0.45322790  0.77524471  0.13008683  1
  N  N66  1  0.24993901  0.85855637  0.86544231  1
  N  N67  1  0.07944643  0.76935913  0.63405934  1
  N  N68  1  0.87633982  0.89652655  0.33093919  1
  N  N69  1  0.74199655  0.77092498  0.08359794  1
  N  N70  1  0.54918117  0.86229718  0.82046470  1
  N  N71  1  0.43398813  0.75650826  0.64633137  1
