# generated using pymatgen
data_Al31B5N36
_symmetry_space_group_name_H-M   'P 1'
_cell_length_a   9.16977494
_cell_length_b   9.16821217
_cell_length_c   9.80040397
_cell_angle_alpha   90.11384281
_cell_angle_beta   90.03446094
_cell_angle_gamma   60.05092187
_symmetry_Int_Tables_number   1
_chemical_formula_structural   Al31B5N36
_chemical_formula_sum   'Al31 B5 N36'
_cell_volume   713.90374015
_cell_formula_units_Z   1
loop_
 _symmetry_equiv_pos_site_id
 _symmetry_equiv_pos_as_xyz
  1  'x, y, z'
loop_
 _atom_site_type_symbol
 _atom_site_label
 _atom_site_symmetry_multiplicity
 _atom_site_fract_x
 _atom_site_fract_y
 _atom_site_fract_z
 _atom_site_occupancy
  Al  Al0  1  0.10254082  0.09367062  0.40723873  1
  Al  Al1  1  0.22459943  0.20002288  0.15307596  1
  Al  Al2  1  0.77953164  0.09351756  0.88877323  1
  Al  Al3  1  0.45037869  0.08897728  0.39629293  1
  Al  Al4  1  0.56459479  0.19714455  0.15673586  1
  Al  Al5  1  0.11303199  0.09218061  0.89768080  1
  Al  Al6  1  0.21919591  0.20601693  0.65298393  1
  Al  Al7  1  0.88599883  0.20179531  0.15510070  1
  Al  Al8  1  0.44683790  0.08670790  0.90663901  1
  Al  Al9  1  0.56513110  0.19973754  0.64431161  1
  Al  Al10  1  0.10969994  0.42821363  0.40298228  1
  Al  Al11  1  0.22091072  0.54086943  0.15414307  1
  Al  Al12  1  0.77694610  0.42850556  0.89652662  1
  Al  Al13  1  0.88953126  0.54027443  0.65186164  1
  Al  Al14  1  0.44990138  0.42533694  0.40261345  1
  Al  Al15  1  0.55717198  0.54406700  0.14518142  1
  Al  Al16  1  0.11116081  0.42839938  0.90442115  1
  Al  Al17  1  0.21738288  0.54303526  0.65289033  1
  Al  Al18  1  0.77663203  0.41858576  0.40756378  1
  Al  Al19  1  0.88146768  0.54369705  0.15364027  1
  Al  Al20  1  0.44413701  0.43067610  0.90262413  1
  Al  Al21  1  0.55623109  0.54018384  0.65799572  1
  Al  Al22  1  0.10202094  0.77088297  0.40692496  1
  Al  Al23  1  0.22694557  0.87282869  0.14581972  1
  Al  Al24  1  0.77115112  0.76486871  0.90068905  1
  Al  Al25  1  0.44627744  0.76170944  0.39471757  1
  Al  Al26  1  0.11280784  0.76261583  0.89742224  1
  Al  Al27  1  0.22024898  0.87389337  0.65721810  1
  Al  Al28  1  0.77392087  0.77208526  0.40109405  1
  Al  Al29  1  0.88100172  0.88009943  0.15496521  1
  Al  Al30  1  0.55704396  0.87184705  0.65564554  1
  B  B31  1  0.89419044  0.19858197  0.65350914  1
  B  B32  1  0.78621295  0.09009107  0.40981456  1
  B  B33  1  0.89304981  0.87505996  0.65217384  1
  B  B34  1  0.55690572  0.87293776  0.14971491  1
  B  B35  1  0.44950031  0.76550686  0.90800435  1
  N  N36  1  0.22002606  0.20353988  0.34564935  1
  N  N37  1  0.10662991  0.09658741  0.09037151  1
  N  N38  1  0.88989018  0.20371594  0.81859345  1
  N  N39  1  0.80022568  0.08312282  0.58721188  1
  N  N40  1  0.58324086  0.19150434  0.35455232  1
  N  N41  1  0.45801077  0.07092561  0.10229592  1
  N  N42  1  0.22449577  0.20542324  0.84558428  1
  N  N43  1  0.08809136  0.10457100  0.60237031  1
  N  N44  1  0.87587520  0.19089505  0.34948979  1
  N  N45  1  0.77921395  0.09382890  0.08068308  1
  N  N46  1  0.55402785  0.20453086  0.83894585  1
  N  N47  1  0.44409409  0.09130881  0.58966218  1
  N  N48  1  0.22050277  0.54269922  0.34709808  1
  N  N49  1  0.10962723  0.42797407  0.09700666  1
  N  N50  1  0.88893651  0.54128807  0.84405388  1
  N  N51  1  0.78798777  0.40300739  0.60243816  1
  N  N52  1  0.55741096  0.53858892  0.33866211  1
  N  N53  1  0.44544575  0.42427188  0.09619744  1
  N  N54  1  0.22211816  0.53906861  0.84404056  1
  N  N55  1  0.11098403  0.42765286  0.59364862  1
  N  N56  1  0.88387149  0.54092633  0.34810486  1
  N  N57  1  0.78131955  0.42245217  0.08992704  1
  N  N58  1  0.54328526  0.56530766  0.85364924  1
  N  N59  1  0.44384837  0.43034903  0.59524996  1
  N  N60  1  0.22162893  0.87249467  0.34099755  1
  N  N61  1  0.10584049  0.76367242  0.09130025  1
  N  N62  1  0.88850175  0.87281607  0.81921287  1
  N  N63  1  0.78661691  0.77716961  0.59750667  1
  N  N64  1  0.55595228  0.87003825  0.31788146  1
  N  N65  1  0.45672926  0.77366467  0.08046588  1
  N  N66  1  0.24976564  0.85942612  0.85209596  1
  N  N67  1  0.08748521  0.77530701  0.60217146  1
  N  N68  1  0.87544413  0.90016699  0.34870655  1
  N  N69  1  0.75471433  0.77557053  0.09793424  1
  N  N70  1  0.54326713  0.86003475  0.84739680  1
  N  N71  1  0.44616265  0.76157981  0.58701070  1
