# generated using pymatgen
data_Al31B5N36
_symmetry_space_group_name_H-M   'P 1'
_cell_length_a   9.18145065
_cell_length_b   9.17293279
_cell_length_c   9.93131794
_cell_angle_alpha   90.15052580
_cell_angle_beta   89.86699796
_cell_angle_gamma   59.96723170
_symmetry_Int_Tables_number   1
_chemical_formula_structural   Al31B5N36
_chemical_formula_sum   'Al31 B5 N36'
_cell_volume   724.11610574
_cell_formula_units_Z   1
loop_
 _symmetry_equiv_pos_site_id
 _symmetry_equiv_pos_as_xyz
  1  'x, y, z'
loop_
 _atom_site_type_symbol
 _atom_site_label
 _atom_site_symmetry_multiplicity
 _atom_site_fract_x
 _atom_site_fract_y
 _atom_site_fract_z
 _atom_site_occupancy
  Al  Al0  1  0.10582137  0.09262230  0.31877561  1
  Al  Al1  1  0.22676775  0.19851340  0.06623623  1
  Al  Al2  1  0.78165028  0.09063039  0.81234915  1
  Al  Al3  1  0.45406419  0.08613974  0.32096944  1
  Al  Al4  1  0.56255791  0.19908890  0.06944817  1
  Al  Al5  1  0.10912020  0.09406206  0.80868975  1
  Al  Al6  1  0.21686492  0.20712204  0.56004560  1
  Al  Al7  1  0.88796460  0.20569660  0.06848704  1
  Al  Al8  1  0.44077725  0.09347697  0.81130888  1
  Al  Al9  1  0.56940005  0.19605992  0.55798390  1
  Al  Al10  1  0.10990030  0.43054403  0.31339464  1
  Al  Al11  1  0.22401400  0.54022090  0.06135315  1
  Al  Al12  1  0.77495719  0.42687902  0.80925996  1
  Al  Al13  1  0.89298706  0.53247905  0.56906152  1
  Al  Al14  1  0.44975813  0.42464711  0.31272047  1
  Al  Al15  1  0.55738829  0.54916875  0.05963580  1
  Al  Al16  1  0.10960184  0.42786049  0.81551887  1
  Al  Al17  1  0.21719472  0.54125190  0.56439578  1
  Al  Al18  1  0.77770160  0.42214702  0.32246545  1
  Al  Al19  1  0.88455824  0.53797784  0.06853174  1
  Al  Al20  1  0.44489183  0.43029721  0.81300143  1
  Al  Al21  1  0.55623839  0.53274465  0.56555946  1
  Al  Al22  1  0.10837136  0.76823933  0.31180314  1
  Al  Al23  1  0.23370386  0.87371142  0.05719713  1
  Al  Al24  1  0.75856506  0.76970614  0.87684167  1
  Al  Al25  1  0.44934717  0.76342872  0.32017003  1
  Al  Al26  1  0.10893375  0.76366438  0.81695363  1
  Al  Al27  1  0.21205481  0.87492743  0.56515186  1
  Al  Al28  1  0.78024462  0.77777572  0.38888254  1
  Al  Al29  1  0.88391092  0.88043164  0.08551408  1
  Al  Al30  1  0.55465120  0.87225546  0.59995587  1
  B  B31  1  0.89360292  0.18933719  0.55556058  1
  B  B32  1  0.77928694  0.09272074  0.31376789  1
  B  B33  1  0.89420070  0.87574553  0.59377920  1
  B  B34  1  0.55640770  0.87226222  0.10509802  1
  B  B35  1  0.44236383  0.76097309  0.80065988  1
  N  N36  1  0.22290614  0.20609452  0.36978624  1
  N  N37  1  0.11079072  0.09329513  0.12669446  1
  N  N38  1  0.88690407  0.20498371  0.87796396  1
  N  N39  1  0.80381533  0.07461349  0.61633076  1
  N  N40  1  0.58114633  0.19266580  0.36567767  1
  N  N41  1  0.46065571  0.06526112  0.12322835  1
  N  N42  1  0.22041790  0.20424025  0.87551110  1
  N  N43  1  0.08416948  0.10675196  0.61332685  1
  N  N44  1  0.87906374  0.19286266  0.38908008  1
  N  N45  1  0.77664133  0.10417040  0.14793830  1
  N  N46  1  0.55812148  0.20214345  0.87618962  1
  N  N47  1  0.43827475  0.10575713  0.62105076  1
  N  N48  1  0.22173813  0.54146799  0.37368370  1
  N  N49  1  0.11196538  0.42866364  0.12291026  1
  N  N50  1  0.88714941  0.53580133  0.87422246  1
  N  N51  1  0.78806747  0.39916812  0.61609740  1
  N  N52  1  0.55381803  0.54056513  0.37591745  1
  N  N53  1  0.44693947  0.42985438  0.12070060  1
  N  N54  1  0.22170880  0.53940300  0.87144420  1
  N  N55  1  0.11128681  0.42634568  0.62647540  1
  N  N56  1  0.88829028  0.53990286  0.37656464  1
  N  N57  1  0.77635179  0.42768798  0.13006455  1
  N  N58  1  0.54388283  0.56357728  0.86502587  1
  N  N59  1  0.44484301  0.42180177  0.62213035  1
  N  N60  1  0.22570957  0.87010642  0.37634591  1
  N  N61  1  0.11915174  0.76236563  0.12014004  1
  N  N62  1  0.88835021  0.87633438  0.88613516  1
  N  N63  1  0.79841430  0.77906444  0.59076512  1
  N  N64  1  0.55096007  0.87321320  0.39393825  1
  N  N65  1  0.46001032  0.77785441  0.12450159  1
  N  N66  1  0.24519109  0.86196597  0.86209900  1
  N  N67  1  0.08348243  0.77486889  0.62154596  1
  N  N68  1  0.87884879  0.90135772  0.34520317  1
  N  N69  1  0.74230054  0.77887224  0.08491840  1
  N  N70  1  0.54096524  0.85929483  0.82072114  1
  N  N71  1  0.43457852  0.75338083  0.63768639  1
