# generated using pymatgen
data_Al31B5N36
_symmetry_space_group_name_H-M   'P 1'
_cell_length_a   9.17987864
_cell_length_b   9.15646781
_cell_length_c   10.14818232
_cell_angle_alpha   89.61898641
_cell_angle_beta   89.44625173
_cell_angle_gamma   60.28458149
_symmetry_Int_Tables_number   1
_chemical_formula_structural   Al31B5N36
_chemical_formula_sum   'Al31 B5 N36'
_cell_volume   740.79969509
_cell_formula_units_Z   1
loop_
 _symmetry_equiv_pos_site_id
 _symmetry_equiv_pos_as_xyz
  1  'x, y, z'
loop_
 _atom_site_type_symbol
 _atom_site_label
 _atom_site_symmetry_multiplicity
 _atom_site_fract_x
 _atom_site_fract_y
 _atom_site_fract_z
 _atom_site_occupancy
  Al  Al0  1  0.09667272  0.10326528  0.39539740  1
  Al  Al1  1  0.22485032  0.19981016  0.14059178  1
  Al  Al2  1  0.78088033  0.08838824  0.86496799  1
  Al  Al3  1  0.44661987  0.09171697  0.38258692  1
  Al  Al4  1  0.55484027  0.20708404  0.06571931  1
  Al  Al5  1  0.10968796  0.09662416  0.87972683  1
  Al  Al6  1  0.21739241  0.20574438  0.63896710  1
  Al  Al7  1  0.88691775  0.20753760  0.13372135  1
  Al  Al8  1  0.43889429  0.07763661  0.89361795  1
  Al  Al9  1  0.57751179  0.19390730  0.57174980  1
  Al  Al10  1  0.11067614  0.43161335  0.39111074  1
  Al  Al11  1  0.22293712  0.53498234  0.13915961  1
  Al  Al12  1  0.78015073  0.42549558  0.87666982  1
  Al  Al13  1  0.88774432  0.54070363  0.63836005  1
  Al  Al14  1  0.46233241  0.42236558  0.32044971  1
  Al  Al15  1  0.55016905  0.55303856  0.06080277  1
  Al  Al16  1  0.10941430  0.42763205  0.89039093  1
  Al  Al17  1  0.20796082  0.54481731  0.63779455  1
  Al  Al18  1  0.78490722  0.41678634  0.39658017  1
  Al  Al19  1  0.87974655  0.54348788  0.14287315  1
  Al  Al20  1  0.45039394  0.42402311  0.81362631  1
  Al  Al21  1  0.55158013  0.53708972  0.57679813  1
  Al  Al22  1  0.10708240  0.77842285  0.31841541  1
  Al  Al23  1  0.24219893  0.86946219  0.06453397  1
  Al  Al24  1  0.76309750  0.75580178  0.89901787  1
  Al  Al25  1  0.44634436  0.76257987  0.31791926  1
  Al  Al26  1  0.11426368  0.75934478  0.85915988  1
  Al  Al27  1  0.21205567  0.87061910  0.57852651  1
  Al  Al28  1  0.77887974  0.77679332  0.38340722  1
  Al  Al29  1  0.88140839  0.87887042  0.09226857  1
  Al  Al30  1  0.55939359  0.87614230  0.64336869  1
  B  B31  1  0.89731320  0.19190107  0.64947893  1
  B  B32  1  0.78026038  0.09380244  0.34236133  1
  B  B33  1  0.89146147  0.88273351  0.60786350  1
  B  B34  1  0.56052989  0.87373482  0.14939328  1
  B  B35  1  0.44153771  0.75606641  0.80905856  1
  N  N36  1  0.21814429  0.20737181  0.32850687  1
  N  N37  1  0.10764801  0.10142259  0.07098309  1
  N  N38  1  0.89223943  0.20425761  0.80688584  1
  N  N39  1  0.80393543  0.07063546  0.62432676  1
  N  N40  1  0.59214538  0.19230681  0.37464342  1
  N  N41  1  0.45466865  0.06626128  0.08781579  1
  N  N42  1  0.22296121  0.20560464  0.82549297  1
  N  N43  1  0.08140556  0.10993282  0.58783325  1
  N  N44  1  0.87481259  0.19473721  0.32474757  1
  N  N45  1  0.78057168  0.10507790  0.06727164  1
  N  N46  1  0.54605698  0.20609246  0.87441063  1
  N  N47  1  0.43960989  0.09032176  0.57117172  1
  N  N48  1  0.22241467  0.54053952  0.33121708  1
  N  N49  1  0.10945016  0.42856444  0.07856824  1
  N  N50  1  0.88825037  0.54082611  0.82472115  1
  N  N51  1  0.79179945  0.39762638  0.58778541  1
  N  N52  1  0.55315359  0.54751208  0.38786300  1
  N  N53  1  0.45593170  0.42600836  0.13011873  1
  N  N54  1  0.21999629  0.53589816  0.82914717  1
  N  N55  1  0.10814848  0.42710087  0.57614938  1
  N  N56  1  0.88623825  0.54205852  0.33216455  1
  N  N57  1  0.78331537  0.42647561  0.06888127  1
  N  N58  1  0.53919451  0.56416705  0.86842262  1
  N  N59  1  0.44671617  0.41836585  0.62511563  1
  N  N60  1  0.22933707  0.87122713  0.38718293  1
  N  N61  1  0.11897833  0.76532175  0.11570951  1
  N  N62  1  0.89162161  0.85924809  0.88849575  1
  N  N63  1  0.78736058  0.78218670  0.57772075  1
  N  N64  1  0.56371435  0.88004021  0.31130571  1
  N  N65  1  0.45728196  0.77015876  0.13188547  1
  N  N66  1  0.25289360  0.85645807  0.87160710  1
  N  N67  1  0.07582897  0.77778414  0.61452641  1
  N  N68  1  0.87255839  0.90942697  0.32346515  1
  N  N69  1  0.74622070  0.77143785  0.09052127  1
  N  N70  1  0.54567085  0.85798373  0.82851455  1
  N  N71  1  0.43519995  0.75584894  0.64753121  1
