# generated using pymatgen
data_Al31B5N36
_symmetry_space_group_name_H-M   'P 1'
_cell_length_a   9.14383916
_cell_length_b   9.19008904
_cell_length_c   10.20267789
_cell_angle_alpha   89.56820494
_cell_angle_beta   89.34428286
_cell_angle_gamma   59.99611143
_symmetry_Int_Tables_number   1
_chemical_formula_structural   Al31B5N36
_chemical_formula_sum   'Al31 B5 N36'
_cell_volume   742.41492246
_cell_formula_units_Z   1
loop_
 _symmetry_equiv_pos_site_id
 _symmetry_equiv_pos_as_xyz
  1  'x, y, z'
loop_
 _atom_site_type_symbol
 _atom_site_label
 _atom_site_symmetry_multiplicity
 _atom_site_fract_x
 _atom_site_fract_y
 _atom_site_fract_z
 _atom_site_occupancy
  Al  Al0  1  0.09665489  0.10330410  0.39354418  1
  Al  Al1  1  0.22231056  0.19810267  0.13617879  1
  Al  Al2  1  0.77842997  0.08489009  0.80981611  1
  Al  Al3  1  0.44677341  0.09062961  0.37441120  1
  Al  Al4  1  0.55854115  0.20468841  0.07410995  1
  Al  Al5  1  0.11254746  0.09612653  0.87583823  1
  Al  Al6  1  0.22603493  0.20553993  0.63667990  1
  Al  Al7  1  0.88725893  0.20858898  0.13925918  1
  Al  Al8  1  0.44595488  0.07989712  0.89402167  1
  Al  Al9  1  0.57484070  0.18870639  0.55928455  1
  Al  Al10  1  0.10981724  0.42630588  0.38339280  1
  Al  Al11  1  0.22612560  0.54306629  0.07003598  1
  Al  Al12  1  0.77776431  0.43318991  0.87738950  1
  Al  Al13  1  0.89518476  0.54160634  0.63832845  1
  Al  Al14  1  0.45488843  0.42621587  0.31816348  1
  Al  Al15  1  0.54715713  0.55473468  0.06061478  1
  Al  Al16  1  0.11003367  0.42552969  0.88889867  1
  Al  Al17  1  0.22275979  0.54273886  0.56688836  1
  Al  Al18  1  0.78689613  0.41674768  0.39249088  1
  Al  Al19  1  0.87989971  0.54171198  0.13955752  1
  Al  Al20  1  0.44633782  0.42802106  0.81671667  1
  Al  Al21  1  0.55280777  0.53648847  0.57798298  1
  Al  Al22  1  0.10852703  0.77289852  0.31766395  1
  Al  Al23  1  0.23593482  0.86645504  0.05889672  1
  Al  Al24  1  0.76496034  0.76335677  0.89797307  1
  Al  Al25  1  0.44423445  0.76276377  0.31813206  1
  Al  Al26  1  0.10828247  0.76205236  0.82194705  1
  Al  Al27  1  0.20669866  0.87469442  0.58076948  1
  Al  Al28  1  0.78077689  0.77253173  0.37910878  1
  Al  Al29  1  0.88549277  0.87654498  0.08923916  1
  Al  Al30  1  0.56006688  0.87444437  0.63998650  1
  B  B31  1  0.91507203  0.23545257  0.65174798  1
  B  B32  1  0.77535453  0.08967376  0.30572728  1
  B  B33  1  0.88062230  0.86421723  0.60108663  1
  B  B34  1  0.55916366  0.87283865  0.14638284  1
  B  B35  1  0.43959343  0.75765011  0.80702871  1
  N  N36  1  0.21816931  0.20453733  0.32200235  1
  N  N37  1  0.10264482  0.09993671  0.06365813  1
  N  N38  1  0.89282762  0.21548121  0.79815363  1
  N  N39  1  0.77738699  0.03987944  0.63430292  1
  N  N40  1  0.58478379  0.19627767  0.36994091  1
  N  N41  1  0.45345968  0.06567353  0.08442917  1
  N  N42  1  0.22875032  0.20598691  0.82254867  1
  N  N43  1  0.08077357  0.11733465  0.58753080  1
  N  N44  1  0.88051869  0.20010937  0.32481746  1
  N  N45  1  0.76757488  0.09581402  0.14685249  1
  N  N46  1  0.56183230  0.20778010  0.88549147  1
  N  N47  1  0.43836292  0.08407755  0.56200209  1
  N  N48  1  0.22687690  0.54555813  0.37800528  1
  N  N49  1  0.10745512  0.42508476  0.07805348  1
  N  N50  1  0.89019595  0.54666121  0.82362330  1
  N  N51  1  0.79790342  0.40317988  0.58722997  1
  N  N52  1  0.55350889  0.54634446  0.38989702  1
  N  N53  1  0.44771733  0.43121731  0.13098140  1
  N  N54  1  0.22673064  0.54200628  0.87976065  1
  N  N55  1  0.11132329  0.42186605  0.57287463  1
  N  N56  1  0.88640250  0.54079932  0.32609164  1
  N  N57  1  0.78145173  0.42306118  0.06564200  1
  N  N58  1  0.53860393  0.56875121  0.86717167  1
  N  N59  1  0.44915764  0.41400054  0.63021901  1
  N  N60  1  0.22738221  0.87072856  0.39306506  1
  N  N61  1  0.11978832  0.76289399  0.13001728  1
  N  N62  1  0.89220020  0.87862716  0.89730242  1
  N  N63  1  0.78849852  0.76256192  0.57163792  1
  N  N64  1  0.56438768  0.87758947  0.30571530  1
  N  N65  1  0.45219449  0.77176661  0.13079297  1
  N  N66  1  0.24888053  0.85722377  0.86492892  1
  N  N67  1  0.07605554  0.76944658  0.63182005  1
  N  N68  1  0.87878938  0.90203702  0.34611350  1
  N  N69  1  0.74763171  0.76950073  0.08621133  1
  N  N70  1  0.54784556  0.86244526  0.82462812  1
  N  N71  1  0.43369273  0.75562644  0.64770596  1
