# generated using pymatgen
data_Al31B5N36
_symmetry_space_group_name_H-M   'P 1'
_cell_length_a   9.20456489
_cell_length_b   9.18643453
_cell_length_c   9.92131773
_cell_angle_alpha   90.22718416
_cell_angle_beta   89.91921838
_cell_angle_gamma   59.92534682
_symmetry_Int_Tables_number   1
_chemical_formula_structural   Al31B5N36
_chemical_formula_sum   'Al31 B5 N36'
_cell_volume   725.96600756
_cell_formula_units_Z   1
loop_
 _symmetry_equiv_pos_site_id
 _symmetry_equiv_pos_as_xyz
  1  'x, y, z'
loop_
 _atom_site_type_symbol
 _atom_site_label
 _atom_site_symmetry_multiplicity
 _atom_site_fract_x
 _atom_site_fract_y
 _atom_site_fract_z
 _atom_site_occupancy
  Al  Al0  1  0.10635950  0.09121677  0.31897233  1
  Al  Al1  1  0.22402905  0.20130178  0.06682870  1
  Al  Al2  1  0.78162476  0.08829301  0.81596252  1
  Al  Al3  1  0.45628431  0.08347710  0.32121226  1
  Al  Al4  1  0.56096907  0.20075235  0.06868317  1
  Al  Al5  1  0.10881977  0.09461809  0.80915921  1
  Al  Al6  1  0.21780758  0.20547736  0.55982123  1
  Al  Al7  1  0.88756759  0.20877852  0.06812821  1
  Al  Al8  1  0.44136699  0.09227669  0.81259422  1
  Al  Al9  1  0.57031179  0.19475730  0.55915306  1
  Al  Al10  1  0.11819873  0.42619219  0.31872127  1
  Al  Al11  1  0.22352435  0.54045816  0.06158712  1
  Al  Al12  1  0.77181483  0.42403419  0.80899118  1
  Al  Al13  1  0.88824881  0.54256500  0.61945882  1
  Al  Al14  1  0.45095232  0.42365463  0.31240713  1
  Al  Al15  1  0.55725657  0.54949705  0.06000808  1
  Al  Al16  1  0.11337034  0.42599050  0.81442390  1
  Al  Al17  1  0.21916326  0.54144945  0.56480168  1
  Al  Al18  1  0.77649299  0.41741160  0.32855607  1
  Al  Al19  1  0.87645130  0.55295229  0.13904147  1
  Al  Al20  1  0.44449369  0.43030049  0.81356712  1
  Al  Al21  1  0.55640888  0.53182543  0.56610798  1
  Al  Al22  1  0.11008920  0.76705417  0.31037595  1
  Al  Al23  1  0.23362190  0.87474946  0.05730615  1
  Al  Al24  1  0.76030199  0.76345515  0.88525932  1
  Al  Al25  1  0.44930846  0.76302258  0.32163746  1
  Al  Al26  1  0.10764559  0.76429222  0.82173863  1
  Al  Al27  1  0.21219791  0.87468998  0.56734468  1
  Al  Al28  1  0.78342391  0.77513240  0.39178418  1
  Al  Al29  1  0.88314247  0.88211186  0.09566998  1
  Al  Al30  1  0.55443160  0.87280952  0.59960586  1
  B  B31  1  0.89378870  0.19046569  0.55592323  1
  B  B32  1  0.77788543  0.09201621  0.30927609  1
  B  B33  1  0.89507150  0.87581027  0.60251761  1
  B  B34  1  0.55304980  0.87392394  0.10455975  1
  B  B35  1  0.44325406  0.76148858  0.80182178  1
  N  N36  1  0.22548076  0.20225525  0.37000302  1
  N  N37  1  0.11002469  0.09431046  0.12696586  1
  N  N38  1  0.88684596  0.20470369  0.87802831  1
  N  N39  1  0.80446655  0.07205794  0.61823719  1
  N  N40  1  0.58214112  0.19108039  0.36583210  1
  N  N41  1  0.45987096  0.06574887  0.12281325  1
  N  N42  1  0.21989575  0.20481017  0.87597722  1
  N  N43  1  0.08463683  0.10661937  0.61400410  1
  N  N44  1  0.88080541  0.18884193  0.38948127  1
  N  N45  1  0.77350769  0.11029134  0.14588030  1
  N  N46  1  0.55725600  0.20268804  0.87611118  1
  N  N47  1  0.43889574  0.10488472  0.62195904  1
  N  N48  1  0.22440532  0.54195474  0.37468198  1
  N  N49  1  0.11325614  0.42935682  0.12419495  1
  N  N50  1  0.88154201  0.54451993  0.82426153  1
  N  N51  1  0.78826965  0.39430117  0.61209183  1
  N  N52  1  0.55287005  0.54037913  0.37705883  1
  N  N53  1  0.44601872  0.43057504  0.12074718  1
  N  N54  1  0.22191739  0.53892467  0.87184615  1
  N  N55  1  0.11734478  0.42374099  0.62083363  1
  N  N56  1  0.88604601  0.54603012  0.34430160  1
  N  N57  1  0.77299994  0.42768724  0.13122255  1
  N  N58  1  0.54323285  0.56344170  0.86585545  1
  N  N59  1  0.44596459  0.42098255  0.62282858  1
  N  N60  1  0.22547385  0.86929307  0.37793059  1
  N  N61  1  0.12193525  0.76214721  0.11904274  1
  N  N62  1  0.88733339  0.87514812  0.89065581  1
  N  N63  1  0.79950489  0.78157847  0.58723564  1
  N  N64  1  0.55287077  0.87111774  0.39490133  1
  N  N65  1  0.45900694  0.77870284  0.12551861  1
  N  N66  1  0.24509675  0.86268707  0.86245174  1
  N  N67  1  0.08359201  0.77477189  0.62456548  1
  N  N68  1  0.87692795  0.89687769  0.32729058  1
  N  N69  1  0.74055328  0.77837004  0.08496419  1
  N  N70  1  0.54161873  0.85907052  0.82400577  1
  N  N71  1  0.43620953  0.75285607  0.63869872  1
