# generated using pymatgen
data_Al31B5N36
_symmetry_space_group_name_H-M   'P 1'
_cell_length_a   9.17020374
_cell_length_b   9.14748491
_cell_length_c   10.16623971
_cell_angle_alpha   89.61217243
_cell_angle_beta   89.34478942
_cell_angle_gamma   60.20999747
_symmetry_Int_Tables_number   1
_chemical_formula_structural   Al31B5N36
_chemical_formula_sum   'Al31 B5 N36'
_cell_volume   740.04485066
_cell_formula_units_Z   1
loop_
 _symmetry_equiv_pos_site_id
 _symmetry_equiv_pos_as_xyz
  1  'x, y, z'
loop_
 _atom_site_type_symbol
 _atom_site_label
 _atom_site_symmetry_multiplicity
 _atom_site_fract_x
 _atom_site_fract_y
 _atom_site_fract_z
 _atom_site_occupancy
  Al  Al0  1  0.09809934  0.10249009  0.39540203  1
  Al  Al1  1  0.22476891  0.20062702  0.13972819  1
  Al  Al2  1  0.78193773  0.08678276  0.86858657  1
  Al  Al3  1  0.44654811  0.09085403  0.38247078  1
  Al  Al4  1  0.55452577  0.20729411  0.06599565  1
  Al  Al5  1  0.10949663  0.09634039  0.87780175  1
  Al  Al6  1  0.21764419  0.20758478  0.63966246  1
  Al  Al7  1  0.88722005  0.20617671  0.13286418  1
  Al  Al8  1  0.43933778  0.07806223  0.89367603  1
  Al  Al9  1  0.57782025  0.19415720  0.57078824  1
  Al  Al10  1  0.11015173  0.43025487  0.39057224  1
  Al  Al11  1  0.21902379  0.54221674  0.14269920  1
  Al  Al12  1  0.77925837  0.42571784  0.87639716  1
  Al  Al13  1  0.88738148  0.54047978  0.63919387  1
  Al  Al14  1  0.46225125  0.42236235  0.32037590  1
  Al  Al15  1  0.54918569  0.55259639  0.06053367  1
  Al  Al16  1  0.10962716  0.42921410  0.89001738  1
  Al  Al17  1  0.20625993  0.54731429  0.63791184  1
  Al  Al18  1  0.78491031  0.41612071  0.39615201  1
  Al  Al19  1  0.88036524  0.54275365  0.14098855  1
  Al  Al20  1  0.44835951  0.42593747  0.81270787  1
  Al  Al21  1  0.55214390  0.53685640  0.57636147  1
  Al  Al22  1  0.10143806  0.77108687  0.38440933  1
  Al  Al23  1  0.24247859  0.87027979  0.06337868  1
  Al  Al24  1  0.76616812  0.75908985  0.89692631  1
  Al  Al25  1  0.44528244  0.76223812  0.31634307  1
  Al  Al26  1  0.11356911  0.75509467  0.88932448  1
  Al  Al27  1  0.21694605  0.87449457  0.58398243  1
  Al  Al28  1  0.77643161  0.77462324  0.38283925  1
  Al  Al29  1  0.88342918  0.87855714  0.11854248  1
  Al  Al30  1  0.56034581  0.87658825  0.64481965  1
  B  B31  1  0.89633628  0.19208295  0.64846718  1
  B  B32  1  0.78119548  0.09363403  0.34391585  1
  B  B33  1  0.88875235  0.88363274  0.60854126  1
  B  B34  1  0.56064868  0.87454629  0.14800238  1
  B  B35  1  0.44093720  0.75705604  0.80978960  1
  N  N36  1  0.21855000  0.20710777  0.32770135  1
  N  N37  1  0.10761963  0.10179260  0.07038713  1
  N  N38  1  0.89032403  0.20434616  0.80618542  1
  N  N39  1  0.80604518  0.07200796  0.61597413  1
  N  N40  1  0.59285316  0.19064221  0.37316269  1
  N  N41  1  0.45499724  0.06606200  0.08761813  1
  N  N42  1  0.22304000  0.20672668  0.82561830  1
  N  N43  1  0.08186507  0.11157696  0.58880965  1
  N  N44  1  0.87547594  0.19307023  0.32466768  1
  N  N45  1  0.78332112  0.09870686  0.06701514  1
  N  N46  1  0.54555666  0.20836612  0.87568903  1
  N  N47  1  0.43988092  0.09035150  0.57072112  1
  N  N48  1  0.21997393  0.54380848  0.33215621  1
  N  N49  1  0.11094198  0.42930760  0.07901447  1
  N  N50  1  0.88783897  0.54026218  0.82512174  1
  N  N51  1  0.79208397  0.39757210  0.58688299  1
  N  N52  1  0.55301805  0.54727431  0.38755175  1
  N  N53  1  0.45464736  0.42635005  0.13189587  1
  N  N54  1  0.21620427  0.54080989  0.82420415  1
  N  N55  1  0.10770504  0.42810423  0.57526282  1
  N  N56  1  0.88603596  0.54093863  0.33075113  1
  N  N57  1  0.78277312  0.42549895  0.06885481  1
  N  N58  1  0.53805260  0.56439196  0.86899418  1
  N  N59  1  0.44632222  0.41872581  0.62395943  1
  N  N60  1  0.23285858  0.87206687  0.38995276  1
  N  N61  1  0.11775815  0.75964932  0.08214406  1
  N  N62  1  0.88982985  0.86004932  0.85746628  1
  N  N63  1  0.78634576  0.78253375  0.57593728  1
  N  N64  1  0.56347321  0.87977811  0.30963232  1
  N  N65  1  0.45749190  0.77010881  0.13089172  1
  N  N66  1  0.25243511  0.85775621  0.86781401  1
  N  N67  1  0.07660211  0.77557926  0.58005692  1
  N  N68  1  0.87716979  0.90447393  0.31970829  1
  N  N69  1  0.74951750  0.77256284  0.08958778  1
  N  N70  1  0.54620556  0.85819634  0.82918558  1
  N  N71  1  0.43849184  0.75455823  0.64839963  1
