# generated using pymatgen
data_Al31B5N36
_symmetry_space_group_name_H-M   'P 1'
_cell_length_a   9.15529850
_cell_length_b   9.16396369
_cell_length_c   10.22874864
_cell_angle_alpha   89.46513528
_cell_angle_beta   89.45872225
_cell_angle_gamma   60.25704502
_symmetry_Int_Tables_number   1
_chemical_formula_structural   Al31B5N36
_chemical_formula_sum   'Al31 B5 N36'
_cell_volume   745.07926102
_cell_formula_units_Z   1
loop_
 _symmetry_equiv_pos_site_id
 _symmetry_equiv_pos_as_xyz
  1  'x, y, z'
loop_
 _atom_site_type_symbol
 _atom_site_label
 _atom_site_symmetry_multiplicity
 _atom_site_fract_x
 _atom_site_fract_y
 _atom_site_fract_z
 _atom_site_occupancy
  Al  Al0  1  0.09780106  0.10376186  0.39388149  1
  Al  Al1  1  0.22568652  0.19869316  0.13819061  1
  Al  Al2  1  0.77682677  0.08548047  0.82831820  1
  Al  Al3  1  0.44779546  0.09068900  0.37970388  1
  Al  Al4  1  0.55984565  0.20503036  0.06358141  1
  Al  Al5  1  0.10913803  0.09745355  0.88011370  1
  Al  Al6  1  0.22038267  0.20467368  0.63876160  1
  Al  Al7  1  0.88766865  0.20587645  0.13466151  1
  Al  Al8  1  0.43925222  0.07852607  0.89357195  1
  Al  Al9  1  0.57438063  0.19072148  0.56957942  1
  Al  Al10  1  0.11251161  0.43054096  0.38879806  1
  Al  Al11  1  0.22237485  0.53673713  0.14079672  1
  Al  Al12  1  0.77948199  0.42742870  0.88061356  1
  Al  Al13  1  0.89050187  0.54023970  0.63941402  1
  Al  Al14  1  0.46435802  0.42145987  0.31955218  1
  Al  Al15  1  0.54915192  0.55354282  0.06150963  1
  Al  Al16  1  0.11121904  0.42933012  0.89013934  1
  Al  Al17  1  0.21420966  0.53683115  0.63442406  1
  Al  Al18  1  0.78715598  0.41749541  0.39377629  1
  Al  Al19  1  0.88055381  0.54469979  0.14145258  1
  Al  Al20  1  0.45016280  0.42550757  0.81447380  1
  Al  Al21  1  0.55197765  0.53656890  0.57540937  1
  Al  Al22  1  0.10546753  0.78119106  0.31606443  1
  Al  Al23  1  0.23772806  0.86606034  0.05974061  1
  Al  Al24  1  0.76224119  0.75631570  0.89686107  1
  Al  Al25  1  0.44573450  0.76352790  0.31622903  1
  Al  Al26  1  0.10658055  0.76685507  0.82092724  1
  Al  Al27  1  0.20956223  0.87212253  0.57760840  1
  Al  Al28  1  0.77980145  0.77578791  0.38359378  1
  Al  Al29  1  0.88707275  0.87744284  0.07359502  1
  Al  Al30  1  0.55806182  0.87440809  0.64290855  1
  B  B31  1  0.90664751  0.22031860  0.65123330  1
  B  B32  1  0.78232892  0.09321705  0.34546417  1
  B  B33  1  0.88291133  0.87402215  0.60840604  1
  B  B34  1  0.56080604  0.87516404  0.14642031  1
  B  B35  1  0.43922932  0.75633822  0.80876726  1
  N  N36  1  0.21901951  0.20692814  0.32528522  1
  N  N37  1  0.10820848  0.10034682  0.06818399  1
  N  N38  1  0.89210240  0.21103760  0.80221404  1
  N  N39  1  0.78640633  0.05409538  0.63747853  1
  N  N40  1  0.59246796  0.19338447  0.37734076  1
  N  N41  1  0.45519063  0.06612374  0.08527337  1
  N  N42  1  0.22288116  0.20656923  0.82407379  1
  N  N43  1  0.07940285  0.11407046  0.58661157  1
  N  N44  1  0.87662889  0.19641259  0.32551214  1
  N  N45  1  0.78123022  0.10115840  0.08071883  1
  N  N46  1  0.54792452  0.20703198  0.87485162  1
  N  N47  1  0.43741147  0.08637693  0.56713877  1
  N  N48  1  0.22443987  0.54078044  0.33339296  1
  N  N49  1  0.11090607  0.42907090  0.07722786  1
  N  N50  1  0.88866434  0.54099360  0.82430210  1
  N  N51  1  0.79604596  0.39820644  0.58660101  1
  N  N52  1  0.55468927  0.54790306  0.38858679  1
  N  N53  1  0.45619793  0.42534055  0.13024182  1
  N  N54  1  0.21947707  0.53712300  0.82440420  1
  N  N55  1  0.10956415  0.42481025  0.57340067  1
  N  N56  1  0.88768682  0.54270081  0.32970107  1
  N  N57  1  0.78374963  0.42640100  0.06952205  1
  N  N58  1  0.53846689  0.56573749  0.86961610  1
  N  N59  1  0.45195757  0.41421198  0.62589370  1
  N  N60  1  0.22960091  0.87094119  0.39069916  1
  N  N61  1  0.11506940  0.76878833  0.12669169  1
  N  N62  1  0.89227077  0.86220386  0.88488498  1
  N  N63  1  0.78752182  0.77118287  0.57753374  1
  N  N64  1  0.56541123  0.87962267  0.30780189  1
  N  N65  1  0.45406456  0.77142282  0.13082375  1
  N  N66  1  0.24813853  0.85655910  0.86760480  1
  N  N67  1  0.07383069  0.77776885  0.62731669  1
  N  N68  1  0.87616969  0.91036858  0.34805486  1
  N  N69  1  0.74782849  0.77190194  0.08678920  1
  N  N70  1  0.54396224  0.85950798  0.82678597  1
  N  N71  1  0.43352877  0.75398383  0.64805765  1
