# generated using pymatgen
data_Al31B5N36
_symmetry_space_group_name_H-M   'P 1'
_cell_length_a   9.16421620
_cell_length_b   9.15982281
_cell_length_c   9.83898422
_cell_angle_alpha   90.07773106
_cell_angle_beta   89.81076280
_cell_angle_gamma   60.04235323
_symmetry_Int_Tables_number   1
_chemical_formula_structural   Al31B5N36
_chemical_formula_sum   'Al31 B5 N36'
_cell_volume   715.55579273
_cell_formula_units_Z   1
loop_
 _symmetry_equiv_pos_site_id
 _symmetry_equiv_pos_as_xyz
  1  'x, y, z'
loop_
 _atom_site_type_symbol
 _atom_site_label
 _atom_site_symmetry_multiplicity
 _atom_site_fract_x
 _atom_site_fract_y
 _atom_site_fract_z
 _atom_site_occupancy
  Al  Al0  1  0.10068999  0.09376701  0.40296108  1
  Al  Al1  1  0.22426878  0.20033353  0.14882762  1
  Al  Al2  1  0.78022756  0.09313437  0.88159502  1
  Al  Al3  1  0.45009772  0.08896026  0.39081987  1
  Al  Al4  1  0.56319152  0.19777066  0.14626210  1
  Al  Al5  1  0.11447896  0.09171063  0.89366834  1
  Al  Al6  1  0.21934601  0.20580447  0.64771224  1
  Al  Al7  1  0.88601402  0.20260289  0.14653911  1
  Al  Al8  1  0.44633376  0.08624836  0.90149885  1
  Al  Al9  1  0.56714336  0.19869724  0.64214760  1
  Al  Al10  1  0.10877337  0.42869151  0.39891214  1
  Al  Al11  1  0.22049427  0.54103386  0.14996785  1
  Al  Al12  1  0.77727319  0.42886195  0.89169977  1
  Al  Al13  1  0.88906861  0.54037998  0.64704227  1
  Al  Al14  1  0.44945539  0.42563737  0.39743007  1
  Al  Al15  1  0.55685520  0.54464572  0.14058945  1
  Al  Al16  1  0.11148801  0.42814128  0.89921990  1
  Al  Al17  1  0.21752065  0.54293656  0.64788384  1
  Al  Al18  1  0.77543698  0.41885658  0.40334218  1
  Al  Al19  1  0.88125913  0.54386198  0.14911209  1
  Al  Al20  1  0.44379353  0.43144008  0.89785008  1
  Al  Al21  1  0.55677836  0.53944076  0.65269728  1
  Al  Al22  1  0.10008076  0.77265435  0.40278881  1
  Al  Al23  1  0.22718569  0.87274884  0.14165033  1
  Al  Al24  1  0.77151245  0.76400714  0.89562480  1
  Al  Al25  1  0.44544373  0.76216899  0.39016913  1
  Al  Al26  1  0.11425760  0.76154308  0.89357290  1
  Al  Al27  1  0.22117965  0.87340514  0.65260735  1
  Al  Al28  1  0.77264014  0.77295770  0.39679485  1
  Al  Al29  1  0.88091508  0.87922537  0.14637428  1
  Al  Al30  1  0.55763073  0.87187542  0.65025200  1
  B  B31  1  0.89474026  0.19324244  0.65198998  1
  B  B32  1  0.78081043  0.09287037  0.38410467  1
  B  B33  1  0.89393380  0.87968613  0.65084529  1
  B  B34  1  0.55650172  0.87253963  0.14409605  1
  B  B35  1  0.44970794  0.76508887  0.90210735  1
  N  N36  1  0.21918977  0.20379503  0.34091944  1
  N  N37  1  0.10778154  0.09618383  0.08555182  1
  N  N38  1  0.89235086  0.20397128  0.81674880  1
  N  N39  1  0.80363902  0.08153542  0.59852606  1
  N  N40  1  0.58380616  0.19130521  0.34430870  1
  N  N41  1  0.45722522  0.07062118  0.09648770  1
  N  N42  1  0.22505091  0.20511027  0.83974543  1
  N  N43  1  0.08864272  0.10357388  0.59749147  1
  N  N44  1  0.87399780  0.19120680  0.34086346  1
  N  N45  1  0.77955447  0.09372619  0.07368185  1
  N  N46  1  0.55290670  0.20502610  0.83627594  1
  N  N47  1  0.44533127  0.09185765  0.58370096  1
  N  N48  1  0.21958306  0.54335431  0.34241720  1
  N  N49  1  0.10969827  0.42802690  0.09172501  1
  N  N50  1  0.88960756  0.54081402  0.83863887  1
  N  N51  1  0.78797791  0.40219465  0.59739873  1
  N  N52  1  0.55684249  0.53888662  0.33344269  1
  N  N53  1  0.44467291  0.42577682  0.09069750  1
  N  N54  1  0.22276725  0.53863746  0.83844630  1
  N  N55  1  0.11097779  0.42766272  0.58861965  1
  N  N56  1  0.88327063  0.54122121  0.34312785  1
  N  N57  1  0.78078409  0.42368319  0.08443631  1
  N  N58  1  0.54370206  0.56506047  0.84803957  1
  N  N59  1  0.44491009  0.42868916  0.58943605  1
  N  N60  1  0.22078341  0.87287859  0.33612580  1
  N  N61  1  0.10694790  0.76317713  0.08659852  1
  N  N62  1  0.89093331  0.87001532  0.81752455  1
  N  N63  1  0.78672597  0.77768042  0.59241804  1
  N  N64  1  0.55535859  0.87024481  0.31241213  1
  N  N65  1  0.45671602  0.77362401  0.07546785  1
  N  N66  1  0.25056303  0.85894373  0.84713058  1
  N  N67  1  0.08809824  0.77567957  0.59747703  1
  N  N68  1  0.87351667  0.90178683  0.34011570  1
  N  N69  1  0.75419429  0.77510774  0.09222133  1
  N  N70  1  0.54373198  0.85967095  0.84180219  1
  N  N71  1  0.44668388  0.76133075  0.58182572  1
