# generated using pymatgen
data_Al31B5N36
_symmetry_space_group_name_H-M   'P 1'
_cell_length_a   9.17163059
_cell_length_b   9.16707847
_cell_length_c   10.06792069
_cell_angle_alpha   89.43994652
_cell_angle_beta   89.29617652
_cell_angle_gamma   59.99503113
_symmetry_Int_Tables_number   1
_chemical_formula_structural   Al31B5N36
_chemical_formula_sum   'Al31 B5 N36'
_cell_volume   732.97571441
_cell_formula_units_Z   1
loop_
 _symmetry_equiv_pos_site_id
 _symmetry_equiv_pos_as_xyz
  1  'x, y, z'
loop_
 _atom_site_type_symbol
 _atom_site_label
 _atom_site_symmetry_multiplicity
 _atom_site_fract_x
 _atom_site_fract_y
 _atom_site_fract_z
 _atom_site_occupancy
  Al  Al0  1  0.10213792  0.09307704  0.39548042  1
  Al  Al1  1  0.22574257  0.19960216  0.14057447  1
  Al  Al2  1  0.78094301  0.09071825  0.85067179  1
  Al  Al3  1  0.44853115  0.09058612  0.38438521  1
  Al  Al4  1  0.55786938  0.20503291  0.06223788  1
  Al  Al5  1  0.11420779  0.09072652  0.88581727  1
  Al  Al6  1  0.21894870  0.20594457  0.63881888  1
  Al  Al7  1  0.88396578  0.20517356  0.13046246  1
  Al  Al8  1  0.43888603  0.07899303  0.89196778  1
  Al  Al9  1  0.57999297  0.19587018  0.57334964  1
  Al  Al10  1  0.11069058  0.42872531  0.39008604  1
  Al  Al11  1  0.21522453  0.54277707  0.14046193  1
  Al  Al12  1  0.78015439  0.42741540  0.87789535  1
  Al  Al13  1  0.88668796  0.53915770  0.63821851  1
  Al  Al14  1  0.46066017  0.42044532  0.31712109  1
  Al  Al15  1  0.54437608  0.55841720  0.06366561  1
  Al  Al16  1  0.11071800  0.42692130  0.89004819  1
  Al  Al17  1  0.20830466  0.54604769  0.63750966  1
  Al  Al18  1  0.78867562  0.41186612  0.39279127  1
  Al  Al19  1  0.87842147  0.54431047  0.13952757  1
  Al  Al20  1  0.44720699  0.42863029  0.81261056  1
  Al  Al21  1  0.55245493  0.53784120  0.56796680  1
  Al  Al22  1  0.10158684  0.77213220  0.39531020  1
  Al  Al23  1  0.21973263  0.87766071  0.13922427  1
  Al  Al24  1  0.76893010  0.76101373  0.88841522  1
  Al  Al25  1  0.45265555  0.75958285  0.32682055  1
  Al  Al26  1  0.11467195  0.75824062  0.88683482  1
  Al  Al27  1  0.21505789  0.87569151  0.63838731  1
  Al  Al28  1  0.77735151  0.77336086  0.39114016  1
  Al  Al29  1  0.87945539  0.88027487  0.13344069  1
  Al  Al30  1  0.55816454  0.87340033  0.63763578  1
  B  B31  1  0.89626844  0.19486882  0.64779348  1
  B  B32  1  0.78070669  0.09398498  0.34885158  1
  B  B33  1  0.89497411  0.87846826  0.64910203  1
  B  B34  1  0.55825651  0.87582345  0.14585843  1
  B  B35  1  0.44269753  0.75940270  0.82932381  1
  N  N36  1  0.21984351  0.20441342  0.32987861  1
  N  N37  1  0.10937811  0.09681557  0.07432597  1
  N  N38  1  0.89619829  0.20711987  0.80896190  1
  N  N39  1  0.80452173  0.08007856  0.62556836  1
  N  N40  1  0.59227971  0.19072143  0.37278401  1
  N  N41  1  0.45599115  0.06698390  0.08625629  1
  N  N42  1  0.22241633  0.20472132  0.82744223  1
  N  N43  1  0.08698427  0.10544296  0.58639176  1
  N  N44  1  0.87583071  0.19015142  0.32426645  1
  N  N45  1  0.78901853  0.08971968  0.05812176  1
  N  N46  1  0.54562942  0.20835701  0.87157169  1
  N  N47  1  0.44317327  0.09381350  0.57409601  1
  N  N48  1  0.21797214  0.54526363  0.33251844  1
  N  N49  1  0.10949876  0.42745555  0.07973791  1
  N  N50  1  0.88869935  0.54068386  0.82607980  1
  N  N51  1  0.79409713  0.39571284  0.58587863  1
  N  N52  1  0.55855912  0.53752037  0.37794790  1
  N  N53  1  0.45170394  0.42625380  0.12660982  1
  N  N54  1  0.21583257  0.54076209  0.82725266  1
  N  N55  1  0.10872767  0.42752135  0.57639107  1
  N  N56  1  0.88572630  0.54168141  0.33046911  1
  N  N57  1  0.77925047  0.42648118  0.06989198  1
  N  N58  1  0.53469687  0.57110921  0.86801362  1
  N  N59  1  0.44715210  0.42234078  0.62365164  1
  N  N60  1  0.21702508  0.87576872  0.33133431  1
  N  N61  1  0.10964978  0.76288216  0.07618267  1
  N  N62  1  0.89332493  0.85996234  0.81220669  1
  N  N63  1  0.78748373  0.77674090  0.58273685  1
  N  N64  1  0.56672814  0.87941207  0.31003056  1
  N  N65  1  0.45751166  0.77350391  0.12991792  1
  N  N66  1  0.24608834  0.85934682  0.83046335  1
  N  N67  1  0.08429023  0.77687814  0.58655636  1
  N  N68  1  0.87568697  0.90373101  0.32652286  1
  N  N69  1  0.75302056  0.77515136  0.08260649  1
  N  N70  1  0.54150859  0.85616533  0.82796600  1
  N  N71  1  0.44276946  0.76346437  0.59893854  1
