# generated using pymatgen
data_Al31B5N36
_symmetry_space_group_name_H-M   'P 1'
_cell_length_a   9.18311260
_cell_length_b   9.14540584
_cell_length_c   10.16538550
_cell_angle_alpha   89.41500917
_cell_angle_beta   89.32972363
_cell_angle_gamma   60.24911867
_symmetry_Int_Tables_number   1
_chemical_formula_structural   Al31B5N36
_chemical_formula_sum   'Al31 B5 N36'
_cell_volume   741.13411808
_cell_formula_units_Z   1
loop_
 _symmetry_equiv_pos_site_id
 _symmetry_equiv_pos_as_xyz
  1  'x, y, z'
loop_
 _atom_site_type_symbol
 _atom_site_label
 _atom_site_symmetry_multiplicity
 _atom_site_fract_x
 _atom_site_fract_y
 _atom_site_fract_z
 _atom_site_occupancy
  Al  Al0  1  0.10113415  0.09548401  0.37029207  1
  Al  Al1  1  0.22720310  0.19974809  0.13753580  1
  Al  Al2  1  0.78104775  0.09088406  0.82124110  1
  Al  Al3  1  0.44791595  0.08998552  0.39335758  1
  Al  Al4  1  0.55788705  0.20317982  0.06586942  1
  Al  Al5  1  0.10985549  0.09667140  0.88794830  1
  Al  Al6  1  0.21481064  0.20937085  0.64079410  1
  Al  Al7  1  0.88463470  0.20876259  0.12362260  1
  Al  Al8  1  0.44219883  0.08146796  0.87719581  1
  Al  Al9  1  0.57760270  0.20093131  0.56356913  1
  Al  Al10  1  0.10968140  0.42397375  0.38684949  1
  Al  Al11  1  0.22487852  0.54261259  0.06627818  1
  Al  Al12  1  0.77618686  0.43064562  0.88700589  1
  Al  Al13  1  0.89212676  0.53834971  0.64034903  1
  Al  Al14  1  0.45280580  0.42128623  0.31634902  1
  Al  Al15  1  0.54592004  0.55545408  0.06455383  1
  Al  Al16  1  0.10457217  0.42747160  0.88907259  1
  Al  Al17  1  0.22092170  0.54454573  0.56789175  1
  Al  Al18  1  0.78499636  0.41215692  0.38604203  1
  Al  Al19  1  0.87661360  0.54742901  0.14534332  1
  Al  Al20  1  0.44435935  0.43202897  0.81525780  1
  Al  Al21  1  0.55263417  0.53647722  0.57199727  1
  Al  Al22  1  0.10776563  0.76762130  0.31312230  1
  Al  Al23  1  0.23837992  0.86552439  0.06407943  1
  Al  Al24  1  0.76333351  0.76231742  0.88515515  1
  Al  Al25  1  0.45240748  0.76126185  0.32420520  1
  Al  Al26  1  0.11193292  0.76473887  0.82234330  1
  Al  Al27  1  0.21554080  0.87301217  0.57083368  1
  Al  Al28  1  0.78508019  0.77327906  0.39611742  1
  Al  Al29  1  0.88331324  0.87693462  0.08441984  1
  Al  Al30  1  0.55677278  0.87556140  0.61567362  1
  B  B31  1  0.89885313  0.19381079  0.60848032  1
  B  B32  1  0.77594643  0.08872233  0.30031842  1
  B  B33  1  0.89857012  0.87563676  0.60609040  1
  B  B34  1  0.55315009  0.87264050  0.10071390  1
  B  B35  1  0.44176610  0.75955743  0.80614947  1
  N  N36  1  0.22728837  0.20179326  0.32397140  1
  N  N37  1  0.11241829  0.09480041  0.08045378  1
  N  N38  1  0.88586289  0.20534299  0.86193001  1
  N  N39  1  0.80922963  0.07637103  0.62538662  1
  N  N40  1  0.58745138  0.19154441  0.37120947  1
  N  N41  1  0.45498492  0.06154957  0.07623770  1
  N  N42  1  0.21957540  0.20817279  0.82649297  1
  N  N43  1  0.08260478  0.10977621  0.58306494  1
  N  N44  1  0.88013035  0.19633422  0.31678830  1
  N  N45  1  0.76380118  0.09646108  0.14066549  1
  N  N46  1  0.55642008  0.20660757  0.87694939  1
  N  N47  1  0.43636694  0.10741034  0.58360584  1
  N  N48  1  0.22648486  0.54255293  0.37774052  1
  N  N49  1  0.10325326  0.42848839  0.07993116  1
  N  N50  1  0.88663548  0.54167276  0.82439094  1
  N  N51  1  0.79480164  0.38869055  0.58328786  1
  N  N52  1  0.55333910  0.53934469  0.38285072  1
  N  N53  1  0.44468269  0.42881435  0.12795197  1
  N  N54  1  0.22442172  0.54166232  0.87647368  1
  N  N55  1  0.10591407  0.42607013  0.57561778  1
  N  N56  1  0.88608508  0.54294630  0.33303369  1
  N  N57  1  0.77446707  0.43491316  0.07805158  1
  N  N58  1  0.53766574  0.56939412  0.87089264  1
  N  N59  1  0.44451461  0.42318994  0.62940512  1
  N  N60  1  0.22857521  0.86479844  0.38207121  1
  N  N61  1  0.11795937  0.76181972  0.12552563  1
  N  N62  1  0.89091673  0.87266389  0.88950079  1
  N  N63  1  0.80142487  0.78083558  0.59160527  1
  N  N64  1  0.55909534  0.86155087  0.39593296  1
  N  N65  1  0.45841120  0.77787187  0.13253146  1
  N  N66  1  0.25132288  0.85785620  0.87043925  1
  N  N67  1  0.08596886  0.77484043  0.63042167  1
  N  N68  1  0.87835572  0.89904662  0.33821768  1
  N  N69  1  0.74060378  0.77452687  0.08144905  1
  N  N70  1  0.54635146  0.86086709  0.81702981  1
  N  N71  1  0.43506955  0.75438494  0.64525373  1
