# generated using pymatgen
data_Al31B5N36
_symmetry_space_group_name_H-M   'P 1'
_cell_length_a   9.17616935
_cell_length_b   9.15074736
_cell_length_c   10.16038804
_cell_angle_alpha   89.59913638
_cell_angle_beta   89.34838965
_cell_angle_gamma   60.20597565
_symmetry_Int_Tables_number   1
_chemical_formula_structural   Al31B5N36
_chemical_formula_sum   'Al31 B5 N36'
_cell_volume   740.33446136
_cell_formula_units_Z   1
loop_
 _symmetry_equiv_pos_site_id
 _symmetry_equiv_pos_as_xyz
  1  'x, y, z'
loop_
 _atom_site_type_symbol
 _atom_site_label
 _atom_site_symmetry_multiplicity
 _atom_site_fract_x
 _atom_site_fract_y
 _atom_site_fract_z
 _atom_site_occupancy
  Al  Al0  1  0.09791906  0.10275629  0.39508689  1
  Al  Al1  1  0.22478933  0.20077926  0.13974496  1
  Al  Al2  1  0.78172595  0.08701198  0.86778878  1
  Al  Al3  1  0.44656765  0.09109611  0.38244982  1
  Al  Al4  1  0.55437357  0.20749487  0.06585861  1
  Al  Al5  1  0.10966858  0.09618185  0.87815868  1
  Al  Al6  1  0.21757559  0.20739893  0.63963622  1
  Al  Al7  1  0.88718764  0.20654940  0.13310918  1
  Al  Al8  1  0.43923964  0.07800313  0.89361812  1
  Al  Al9  1  0.57768392  0.19403051  0.57109334  1
  Al  Al10  1  0.11019591  0.43034530  0.39065561  1
  Al  Al11  1  0.21941931  0.54175073  0.14280359  1
  Al  Al12  1  0.77935698  0.42562377  0.87650572  1
  Al  Al13  1  0.88746476  0.54040010  0.63897121  1
  Al  Al14  1  0.46250310  0.42219139  0.32038928  1
  Al  Al15  1  0.54931067  0.55260449  0.06065080  1
  Al  Al16  1  0.10948543  0.42924709  0.88992701  1
  Al  Al17  1  0.20620970  0.54739617  0.63761648  1
  Al  Al18  1  0.78485283  0.41616227  0.39618147  1
  Al  Al19  1  0.88028568  0.54281878  0.14133772  1
  Al  Al20  1  0.44833411  0.42584876  0.81271810  1
  Al  Al21  1  0.55209285  0.53678296  0.57646291  1
  Al  Al22  1  0.10126997  0.77159244  0.38164963  1
  Al  Al23  1  0.24288660  0.87050683  0.06416885  1
  Al  Al24  1  0.76526107  0.75829810  0.89756675  1
  Al  Al25  1  0.44546622  0.76224263  0.31657314  1
  Al  Al26  1  0.11532002  0.75422100  0.89039325  1
  Al  Al27  1  0.21656258  0.87432562  0.58323753  1
  Al  Al28  1  0.77668099  0.77514028  0.38194217  1
  Al  Al29  1  0.88334965  0.87830792  0.11123214  1
  Al  Al30  1  0.56011126  0.87658494  0.64447078  1
  B  B31  1  0.89675880  0.19231344  0.64884295  1
  B  B32  1  0.78127011  0.09325605  0.34259242  1
  B  B33  1  0.88861808  0.88362655  0.60536566  1
  B  B34  1  0.56065610  0.87424533  0.14830907  1
  B  B35  1  0.44080818  0.75708455  0.80969163  1
  N  N36  1  0.21854606  0.20727557  0.32779649  1
  N  N37  1  0.10762449  0.10191930  0.07065031  1
  N  N38  1  0.89071832  0.20427868  0.80626685  1
  N  N39  1  0.80573967  0.07090617  0.61805554  1
  N  N40  1  0.59311973  0.19060567  0.37347019  1
  N  N41  1  0.45490612  0.06616121  0.08760073  1
  N  N42  1  0.22290555  0.20668042  0.82568224  1
  N  N43  1  0.08169195  0.11144995  0.58866651  1
  N  N44  1  0.87540970  0.19329796  0.32474854  1
  N  N45  1  0.78227037  0.10089694  0.06733221  1
  N  N46  1  0.54548959  0.20806413  0.87517830  1
  N  N47  1  0.43969999  0.09045820  0.57080841  1
  N  N48  1  0.22035436  0.54334763  0.33222654  1
  N  N49  1  0.11073597  0.42955643  0.07898802  1
  N  N50  1  0.88774443  0.54032277  0.82492424  1
  N  N51  1  0.79205817  0.39741980  0.58706903  1
  N  N52  1  0.55305927  0.54725801  0.38762119  1
  N  N53  1  0.45469440  0.42635792  0.13174695  1
  N  N54  1  0.21621612  0.54078791  0.82418234  1
  N  N55  1  0.10772836  0.42799627  0.57543962  1
  N  N56  1  0.88608702  0.54100264  0.33108631  1
  N  N57  1  0.78286126  0.42577832  0.06889838  1
  N  N58  1  0.53815971  0.56427155  0.86886364  1
  N  N59  1  0.44625407  0.41873653  0.62394285  1
  N  N60  1  0.23265971  0.87231780  0.38940083  1
  N  N61  1  0.11958124  0.75925402  0.08358650  1
  N  N62  1  0.89016385  0.85973514  0.86710367  1
  N  N63  1  0.78642995  0.78273748  0.57586137  1
  N  N64  1  0.56322190  0.87995561  0.31001256  1
  N  N65  1  0.45776538  0.77002189  0.13111390  1
  N  N66  1  0.25277702  0.85770649  0.86816710  1
  N  N67  1  0.07620187  0.77569603  0.57962547  1
  N  N68  1  0.87684818  0.90488555  0.31912023  1
  N  N69  1  0.74845889  0.77206769  0.09001798  1
  N  N70  1  0.54609447  0.85817994  0.82892630  1
  N  N71  1  0.43804278  0.75470534  0.64816313  1
