# generated using pymatgen
data_Al31B5N36
_symmetry_space_group_name_H-M   'P 1'
_cell_length_a   9.19532783
_cell_length_b   9.23959837
_cell_length_c   9.98476450
_cell_angle_alpha   89.86164202
_cell_angle_beta   89.81131649
_cell_angle_gamma   60.12279937
_symmetry_Int_Tables_number   1
_chemical_formula_structural   Al31B5N36
_chemical_formula_sum   'Al31 B5 N36'
_cell_volume   735.56712540
_cell_formula_units_Z   1
loop_
 _symmetry_equiv_pos_site_id
 _symmetry_equiv_pos_as_xyz
  1  'x, y, z'
loop_
 _atom_site_type_symbol
 _atom_site_label
 _atom_site_symmetry_multiplicity
 _atom_site_fract_x
 _atom_site_fract_y
 _atom_site_fract_z
 _atom_site_occupancy
  Al  Al0  1  0.10950113  0.08752795  0.32454767  1
  Al  Al1  1  0.22764313  0.19544362  0.07854994  1
  Al  Al2  1  0.78255467  0.08880548  0.82306488  1
  Al  Al3  1  0.45702728  0.08163699  0.32974110  1
  Al  Al4  1  0.56139198  0.20162456  0.07625401  1
  Al  Al5  1  0.10742984  0.09366829  0.81554974  1
  Al  Al6  1  0.21797356  0.19945860  0.56840368  1
  Al  Al7  1  0.88751467  0.20718186  0.07296050  1
  Al  Al8  1  0.44027584  0.09385693  0.81911383  1
  Al  Al9  1  0.56975438  0.19593350  0.56560287  1
  Al  Al10  1  0.10802798  0.43030965  0.38414770  1
  Al  Al11  1  0.22671994  0.54385925  0.07377803  1
  Al  Al12  1  0.77227180  0.43781497  0.87253358  1
  Al  Al13  1  0.89206033  0.54801128  0.64859869  1
  Al  Al14  1  0.45545857  0.42210203  0.32067425  1
  Al  Al15  1  0.54787612  0.55724843  0.06770004  1
  Al  Al16  1  0.10359679  0.43181892  0.89373323  1
  Al  Al17  1  0.22265281  0.54106047  0.57500744  1
  Al  Al18  1  0.78723739  0.41936181  0.41384919  1
  Al  Al19  1  0.87694170  0.54539435  0.14832469  1
  Al  Al20  1  0.44489135  0.43130470  0.82137068  1
  Al  Al21  1  0.54781764  0.54541835  0.58270976  1
  Al  Al22  1  0.11136139  0.76475776  0.31738934  1
  Al  Al23  1  0.23183900  0.87693830  0.06522511  1
  Al  Al24  1  0.75796477  0.76946504  0.89784501  1
  Al  Al25  1  0.45278895  0.75863068  0.33059967  1
  Al  Al26  1  0.10801771  0.76432908  0.83117429  1
  Al  Al27  1  0.21387320  0.86942459  0.57303910  1
  Al  Al28  1  0.78385518  0.77016071  0.39929126  1
  Al  Al29  1  0.88206466  0.88219932  0.10744369  1
  Al  Al30  1  0.55572221  0.87141040  0.60913533  1
  B  B31  1  0.91579667  0.13732454  0.55448419  1
  B  B32  1  0.77677658  0.08865444  0.31641671  1
  B  B33  1  0.89745150  0.86831088  0.61165325  1
  B  B34  1  0.55493786  0.87340281  0.11493762  1
  B  B35  1  0.43826535  0.76526869  0.81060913  1
  N  N36  1  0.22656508  0.19746221  0.37530523  1
  N  N37  1  0.10788926  0.09423546  0.13575030  1
  N  N38  1  0.88872596  0.20142092  0.88075348  1
  N  N39  1  0.81016876  0.06436388  0.62266353  1
  N  N40  1  0.58329604  0.18903958  0.37402377  1
  N  N41  1  0.46191285  0.06484445  0.13213755  1
  N  N42  1  0.22057713  0.20001150  0.88256726  1
  N  N43  1  0.08248111  0.09907571  0.61981003  1
  N  N44  1  0.88705968  0.17489674  0.40268282  1
  N  N45  1  0.77360495  0.11162854  0.15532988  1
  N  N46  1  0.55763594  0.20347010  0.88346860  1
  N  N47  1  0.43902893  0.10494064  0.62927090  1
  N  N48  1  0.22814000  0.54270170  0.38038429  1
  N  N49  1  0.10598752  0.43180581  0.09316419  1
  N  N50  1  0.88710839  0.55057890  0.83585266  1
  N  N51  1  0.77529427  0.44223935  0.60219199  1
  N  N52  1  0.55561571  0.53773868  0.38629750  1
  N  N53  1  0.44835021  0.42933827  0.13035645  1
  N  N54  1  0.22474332  0.54152852  0.88028918  1
  N  N55  1  0.10655597  0.42768640  0.58378353  1
  N  N56  1  0.88344828  0.54290820  0.33736815  1
  N  N57  1  0.77618512  0.43598984  0.07724263  1
  N  N58  1  0.53296069  0.57289547  0.87257552  1
  N  N59  1  0.44865640  0.41982538  0.63207652  1
  N  N60  1  0.22665681  0.86683529  0.38520686  1
  N  N61  1  0.12199944  0.76349026  0.12783204  1
  N  N62  1  0.88701740  0.87758493  0.89929686  1
  N  N63  1  0.80102296  0.78042638  0.59520502  1
  N  N64  1  0.55320283  0.86969369  0.40428919  1
  N  N65  1  0.45723368  0.78124654  0.13549435  1
  N  N66  1  0.24226680  0.86574318  0.87224791  1
  N  N67  1  0.08510088  0.77120316  0.63381957  1
  N  N68  1  0.87623522  0.89323630  0.33186161  1
  N  N69  1  0.74087798  0.77843525  0.09484078  1
  N  N70  1  0.54227569  0.86028573  0.83007108  1
  N  N71  1  0.42639056  0.76305666  0.64905568  1
