# generated using pymatgen
data_Al31B5N36
_symmetry_space_group_name_H-M   'P 1'
_cell_length_a   9.20648168
_cell_length_b   9.18956465
_cell_length_c   9.90001485
_cell_angle_alpha   90.22256157
_cell_angle_beta   89.90705333
_cell_angle_gamma   59.93889579
_symmetry_Int_Tables_number   1
_chemical_formula_structural   Al31B5N36
_chemical_formula_sum   'Al31 B5 N36'
_cell_volume   724.90384818
_cell_formula_units_Z   1
loop_
 _symmetry_equiv_pos_site_id
 _symmetry_equiv_pos_as_xyz
  1  'x, y, z'
loop_
 _atom_site_type_symbol
 _atom_site_label
 _atom_site_symmetry_multiplicity
 _atom_site_fract_x
 _atom_site_fract_y
 _atom_site_fract_z
 _atom_site_occupancy
  Al  Al0  1  0.10630051  0.09124922  0.31927793  1
  Al  Al1  1  0.22437116  0.20088470  0.06688647  1
  Al  Al2  1  0.78166400  0.08886006  0.81608180  1
  Al  Al3  1  0.45592319  0.08384218  0.32149455  1
  Al  Al4  1  0.56099019  0.20073027  0.06874427  1
  Al  Al5  1  0.10862190  0.09496644  0.80945070  1
  Al  Al6  1  0.21833540  0.20501868  0.56016012  1
  Al  Al7  1  0.88760002  0.20858999  0.06802130  1
  Al  Al8  1  0.44108768  0.09267725  0.81280067  1
  Al  Al9  1  0.57044483  0.19467098  0.55931984  1
  Al  Al10  1  0.11646003  0.42691689  0.31943403  1
  Al  Al11  1  0.22369541  0.54064255  0.06160641  1
  Al  Al12  1  0.77301193  0.42549980  0.80854138  1
  Al  Al13  1  0.88988950  0.53883412  0.60073736  1
  Al  Al14  1  0.45077443  0.42364107  0.31278934  1
  Al  Al15  1  0.55687328  0.54968405  0.05999621  1
  Al  Al16  1  0.11128064  0.42724049  0.81419764  1
  Al  Al17  1  0.21919521  0.54136509  0.56530931  1
  Al  Al18  1  0.77676336  0.41806370  0.32872610  1
  Al  Al19  1  0.87805434  0.55028478  0.12438058  1
  Al  Al20  1  0.44457538  0.43032656  0.81380617  1
  Al  Al21  1  0.55608586  0.53191224  0.56635735  1
  Al  Al22  1  0.11029358  0.76688021  0.31068594  1
  Al  Al23  1  0.23363033  0.87480963  0.05734560  1
  Al  Al24  1  0.76029313  0.76461445  0.88370917  1
  Al  Al25  1  0.44929072  0.76299053  0.32176035  1
  Al  Al26  1  0.10759077  0.76424430  0.82199363  1
  Al  Al27  1  0.21221882  0.87462240  0.56761948  1
  Al  Al28  1  0.78250213  0.77645217  0.39082093  1
  Al  Al29  1  0.88313021  0.88248943  0.09631293  1
  Al  Al30  1  0.55483374  0.87250088  0.60045302  1
  B  B31  1  0.89377149  0.18950013  0.55591419  1
  B  B32  1  0.77797690  0.09254115  0.30943671  1
  B  B33  1  0.89503510  0.87554261  0.60287918  1
  B  B34  1  0.55295983  0.87413234  0.10500295  1
  B  B35  1  0.44323353  0.76134724  0.80189728  1
  N  N36  1  0.22534762  0.20243049  0.36995432  1
  N  N37  1  0.10990869  0.09443819  0.12695803  1
  N  N38  1  0.88652512  0.20532285  0.87789402  1
  N  N39  1  0.80468291  0.07214582  0.61816510  1
  N  N40  1  0.58214497  0.19107144  0.36585327  1
  N  N41  1  0.45966647  0.06600253  0.12284501  1
  N  N42  1  0.21987736  0.20517030  0.87594795  1
  N  N43  1  0.08457895  0.10656935  0.61390931  1
  N  N44  1  0.88044124  0.18878013  0.38929475  1
  N  N45  1  0.77335130  0.11075624  0.14590527  1
  N  N46  1  0.55730281  0.20271672  0.87606200  1
  N  N47  1  0.43912785  0.10475257  0.62186272  1
  N  N48  1  0.22412117  0.54181629  0.37472652  1
  N  N49  1  0.11287244  0.42963793  0.12533877  1
  N  N50  1  0.88287835  0.54268432  0.83558286  1
  N  N51  1  0.78815606  0.39443554  0.61230735  1
  N  N52  1  0.55281923  0.54037330  0.37692967  1
  N  N53  1  0.44602081  0.43049750  0.12077293  1
  N  N54  1  0.22192888  0.53877670  0.87173600  1
  N  N55  1  0.11705383  0.42357948  0.62158317  1
  N  N56  1  0.88724583  0.54298830  0.35828076  1
  N  N57  1  0.77315644  0.42783823  0.13234285  1
  N  N58  1  0.54327677  0.56350654  0.86566606  1
  N  N59  1  0.44596165  0.42081136  0.62277429  1
  N  N60  1  0.22549426  0.86931592  0.37791251  1
  N  N61  1  0.12203575  0.76211532  0.11903414  1
  N  N62  1  0.88725274  0.87585695  0.89089924  1
  N  N63  1  0.79938880  0.78186070  0.58806381  1
  N  N64  1  0.55263838  0.87133660  0.39481168  1
  N  N65  1  0.45899385  0.77877844  0.12542919  1
  N  N66  1  0.24500904  0.86282694  0.86239615  1
  N  N67  1  0.08359691  0.77471669  0.62455537  1
  N  N68  1  0.87718746  0.89697096  0.32694716  1
  N  N69  1  0.74022389  0.77944879  0.08639659  1
  N  N70  1  0.54141818  0.85937647  0.82378262  1
  N  N71  1  0.43610274  0.75283454  0.63861335  1
