# generated using pymatgen
data_Al31B5N36
_symmetry_space_group_name_H-M   'P 1'
_cell_length_a   9.16390973
_cell_length_b   9.20222284
_cell_length_c   10.19378977
_cell_angle_alpha   89.50760923
_cell_angle_beta   89.21253281
_cell_angle_gamma   59.90688178
_symmetry_Int_Tables_number   1
_chemical_formula_structural   Al31B5N36
_chemical_formula_sum   'Al31 B5 N36'
_cell_volume   743.68619467
_cell_formula_units_Z   1
loop_
 _symmetry_equiv_pos_site_id
 _symmetry_equiv_pos_as_xyz
  1  'x, y, z'
loop_
 _atom_site_type_symbol
 _atom_site_label
 _atom_site_symmetry_multiplicity
 _atom_site_fract_x
 _atom_site_fract_y
 _atom_site_fract_z
 _atom_site_occupancy
  Al  Al0  1  0.09653765  0.10201035  0.39306980  1
  Al  Al1  1  0.22247192  0.19712060  0.13701199  1
  Al  Al2  1  0.78029407  0.08538453  0.81078762  1
  Al  Al3  1  0.44666892  0.08877856  0.38223860  1
  Al  Al4  1  0.55748079  0.20440508  0.07078452  1
  Al  Al5  1  0.11183754  0.09725750  0.87680342  1
  Al  Al6  1  0.22410781  0.20821557  0.63878096  1
  Al  Al7  1  0.88627616  0.20935458  0.13952871  1
  Al  Al8  1  0.44585961  0.08094180  0.88768095  1
  Al  Al9  1  0.57754512  0.19027828  0.56110192  1
  Al  Al10  1  0.11025022  0.42477128  0.38397720  1
  Al  Al11  1  0.22606637  0.54264512  0.07006081  1
  Al  Al12  1  0.77746574  0.43438533  0.87818771  1
  Al  Al13  1  0.89601762  0.54148517  0.63971381  1
  Al  Al14  1  0.45508098  0.42300404  0.31784565  1
  Al  Al15  1  0.54646449  0.55450473  0.06122659  1
  Al  Al16  1  0.10946193  0.42657551  0.89028521  1
  Al  Al17  1  0.22331916  0.54282648  0.56683774  1
  Al  Al18  1  0.78678906  0.41533588  0.39185476  1
  Al  Al19  1  0.87800875  0.54243862  0.14076920  1
  Al  Al20  1  0.44630562  0.42986153  0.81596478  1
  Al  Al21  1  0.55281742  0.53759977  0.57614107  1
  Al  Al22  1  0.10871247  0.77069653  0.31613223  1
  Al  Al23  1  0.23508766  0.86742555  0.05888586  1
  Al  Al24  1  0.76618115  0.76496837  0.89491555  1
  Al  Al25  1  0.44473479  0.76233995  0.32128566  1
  Al  Al26  1  0.10962204  0.76261833  0.82428495  1
  Al  Al27  1  0.20704496  0.87506999  0.58074365  1
  Al  Al28  1  0.78151313  0.77047428  0.38434110  1
  Al  Al29  1  0.88344255  0.87654263  0.09660049  1
  Al  Al30  1  0.56002509  0.87495713  0.63500906  1
  B  B31  1  0.91491296  0.23541897  0.65175348  1
  B  B32  1  0.77230273  0.08860305  0.30249677  1
  B  B33  1  0.88429665  0.86367702  0.60799334  1
  B  B34  1  0.55451085  0.87154683  0.12738325  1
  B  B35  1  0.44080532  0.75893815  0.80599024  1
  N  N36  1  0.22014798  0.20225385  0.32320979  1
  N  N37  1  0.10198712  0.10052064  0.06474251  1
  N  N38  1  0.89283440  0.21674355  0.79906953  1
  N  N39  1  0.78291869  0.04173942  0.63370848  1
  N  N40  1  0.58547803  0.19326167  0.37041965  1
  N  N41  1  0.45362619  0.06220481  0.08052773  1
  N  N42  1  0.22632976  0.20788915  0.82416019  1
  N  N43  1  0.08167680  0.11789055  0.58776084  1
  N  N44  1  0.88060485  0.19809145  0.32485059  1
  N  N45  1  0.76444521  0.09987027  0.14402944  1
  N  N46  1  0.56112800  0.20823642  0.88278716  1
  N  N47  1  0.43827571  0.09182322  0.57028852  1
  N  N48  1  0.22683792  0.54393872  0.37752274  1
  N  N49  1  0.10677786  0.42551130  0.07960435  1
  N  N50  1  0.89062780  0.54652279  0.82489044  1
  N  N51  1  0.79794712  0.40404953  0.58722022  1
  N  N52  1  0.55338905  0.54259607  0.38776917  1
  N  N53  1  0.44723095  0.42998983  0.13014364  1
  N  N54  1  0.22711920  0.54169006  0.88011792  1
  N  N55  1  0.11113381  0.42313005  0.57356799  1
  N  N56  1  0.88697780  0.53947422  0.32728317  1
  N  N57  1  0.78035709  0.42416034  0.06671698  1
  N  N58  1  0.53851744  0.56993486  0.86759000  1
  N  N59  1  0.44964278  0.41639067  0.62982006  1
  N  N60  1  0.22445558  0.86920573  0.39256002  1
  N  N61  1  0.12159104  0.76203390  0.12850367  1
  N  N62  1  0.89262526  0.87919869  0.89905788  1
  N  N63  1  0.79412736  0.76383375  0.57729101  1
  N  N64  1  0.56184995  0.87143079  0.33385129  1
  N  N65  1  0.45259668  0.77429588  0.13043266  1
  N  N66  1  0.24981570  0.85844251  0.86517169  1
  N  N67  1  0.07884070  0.76931443  0.63387602  1
  N  N68  1  0.87671406  0.89702329  0.33207634  1
  N  N69  1  0.74304817  0.77048790  0.08429571  1
  N  N70  1  0.54903730  0.86230114  0.82152868  1
  N  N71  1  0.43423892  0.75654564  0.64625026  1
