# generated using pymatgen
data_Al31B5N36
_symmetry_space_group_name_H-M   'P 1'
_cell_length_a   9.14175090
_cell_length_b   9.18184320
_cell_length_c   10.23546983
_cell_angle_alpha   89.51542710
_cell_angle_beta   89.37730627
_cell_angle_gamma   60.17053042
_symmetry_Int_Tables_number   1
_chemical_formula_structural   Al31B5N36
_chemical_formula_sum   'Al31 B5 N36'
_cell_volume   745.26899493
_cell_formula_units_Z   1
loop_
 _symmetry_equiv_pos_site_id
 _symmetry_equiv_pos_as_xyz
  1  'x, y, z'
loop_
 _atom_site_type_symbol
 _atom_site_label
 _atom_site_symmetry_multiplicity
 _atom_site_fract_x
 _atom_site_fract_y
 _atom_site_fract_z
 _atom_site_occupancy
  Al  Al0  1  0.09695668  0.10480353  0.39390199  1
  Al  Al1  1  0.22289826  0.19856073  0.13689825  1
  Al  Al2  1  0.77672741  0.08466337  0.80852766  1
  Al  Al3  1  0.44645865  0.09053626  0.37498506  1
  Al  Al4  1  0.56013423  0.20343827  0.07315691  1
  Al  Al5  1  0.11145090  0.09754122  0.87727751  1
  Al  Al6  1  0.22487680  0.20458470  0.63740217  1
  Al  Al7  1  0.88769642  0.20826711  0.13997348  1
  Al  Al8  1  0.44412029  0.07942768  0.89443297  1
  Al  Al9  1  0.57478238  0.18802374  0.55901313  1
  Al  Al10  1  0.11299326  0.42972689  0.38774632  1
  Al  Al11  1  0.22116878  0.53766101  0.14168121  1
  Al  Al12  1  0.77907888  0.43184831  0.87877427  1
  Al  Al13  1  0.89343311  0.54158372  0.63887470  1
  Al  Al14  1  0.46337564  0.42167047  0.31938816  1
  Al  Al15  1  0.54744378  0.55457371  0.06048160  1
  Al  Al16  1  0.11339469  0.42964420  0.89026266  1
  Al  Al17  1  0.21782555  0.53567852  0.63561456  1
  Al  Al18  1  0.78854272  0.41722085  0.39306309  1
  Al  Al19  1  0.88039522  0.54236987  0.14020442  1
  Al  Al20  1  0.45395302  0.42418620  0.81746382  1
  Al  Al21  1  0.55227760  0.53649493  0.57659658  1
  Al  Al22  1  0.10435512  0.78042543  0.31915145  1
  Al  Al23  1  0.23633671  0.86631978  0.05894566  1
  Al  Al24  1  0.76359530  0.76151362  0.89752538  1
  Al  Al25  1  0.44475384  0.76293322  0.31739052  1
  Al  Al26  1  0.10486070  0.76892078  0.82300063  1
  Al  Al27  1  0.20638625  0.87337586  0.57900597  1
  Al  Al28  1  0.78062613  0.77274565  0.38044431  1
  Al  Al29  1  0.88505404  0.87749804  0.08431676  1
  Al  Al30  1  0.55893104  0.87418787  0.64045217  1
  B  B31  1  0.91413482  0.23450270  0.65174489  1
  B  B32  1  0.77606000  0.08950877  0.30771341  1
  B  B33  1  0.87974717  0.86658094  0.59854135  1
  B  B34  1  0.55942586  0.87321085  0.14645802  1
  B  B35  1  0.43894927  0.75750403  0.80763946  1
  N  N36  1  0.21774690  0.20675845  0.32293728  1
  N  N37  1  0.10310385  0.10090877  0.06450899  1
  N  N38  1  0.89213310  0.21469849  0.79840291  1
  N  N39  1  0.77556340  0.04126129  0.63413993  1
  N  N40  1  0.58647033  0.19438370  0.37087549  1
  N  N41  1  0.45340645  0.06551065  0.08452737  1
  N  N42  1  0.22718994  0.20705835  0.82351425  1
  N  N43  1  0.07999901  0.11741333  0.58741225  1
  N  N44  1  0.88054816  0.20064639  0.32514047  1
  N  N45  1  0.76899101  0.09396040  0.14702561  1
  N  N46  1  0.56168989  0.20588571  0.88580890  1
  N  N47  1  0.43685824  0.08379402  0.56228376  1
  N  N48  1  0.22402528  0.54091725  0.33350273  1
  N  N49  1  0.11109619  0.42854587  0.07645982  1
  N  N50  1  0.89054971  0.54523045  0.82449853  1
  N  N51  1  0.79850655  0.40283147  0.58712216  1
  N  N52  1  0.55460776  0.54714621  0.39012061  1
  N  N53  1  0.45508563  0.42734686  0.12954931  1
  N  N54  1  0.22160576  0.53812208  0.82616181  1
  N  N55  1  0.11303291  0.42431057  0.57318795  1
  N  N56  1  0.88845737  0.54085402  0.32702576  1
  N  N57  1  0.78288547  0.42309714  0.06638067  1
  N  N58  1  0.53873515  0.56844886  0.86899464  1
  N  N59  1  0.45771262  0.40836849  0.62866674  1
  N  N60  1  0.22849286  0.87146988  0.39283574  1
  N  N61  1  0.11542682  0.76925848  0.12792184  1
  N  N62  1  0.88977218  0.87831468  0.89557950  1
  N  N63  1  0.78676783  0.76272595  0.57232066  1
  N  N64  1  0.56497470  0.87804218  0.30538774  1
  N  N65  1  0.45244058  0.77135206  0.13095306  1
  N  N66  1  0.24858383  0.85758451  0.86684269  1
  N  N67  1  0.07145755  0.77636122  0.62929207  1
  N  N68  1  0.87761634  0.90463948  0.35226884  1
  N  N69  1  0.74759253  0.76971461  0.08585600  1
  N  N70  1  0.54626141  0.86195025  0.82488422  1
  N  N71  1  0.43213931  0.75448211  0.64871918  1
