# generated using pymatgen
data_Al31B5N36
_symmetry_space_group_name_H-M   'P 1'
_cell_length_a   9.14382454
_cell_length_b   9.19017199
_cell_length_c   10.20321394
_cell_angle_alpha   89.56847039
_cell_angle_beta   89.33932305
_cell_angle_gamma   59.99426531
_symmetry_Int_Tables_number   1
_chemical_formula_structural   Al31B5N36
_chemical_formula_sum   'Al31 B5 N36'
_cell_volume   742.44497548
_cell_formula_units_Z   1
loop_
 _symmetry_equiv_pos_site_id
 _symmetry_equiv_pos_as_xyz
  1  'x, y, z'
loop_
 _atom_site_type_symbol
 _atom_site_label
 _atom_site_symmetry_multiplicity
 _atom_site_fract_x
 _atom_site_fract_y
 _atom_site_fract_z
 _atom_site_occupancy
  Al  Al0  1  0.09665705  0.10326400  0.39286739  1
  Al  Al1  1  0.22233283  0.19811162  0.13550476  1
  Al  Al2  1  0.77845883  0.08488350  0.80920712  1
  Al  Al3  1  0.44677965  0.09061294  0.37373791  1
  Al  Al4  1  0.55851189  0.20473358  0.07337713  1
  Al  Al5  1  0.11255848  0.09613779  0.87516276  1
  Al  Al6  1  0.22604917  0.20550278  0.63599735  1
  Al  Al7  1  0.88727577  0.20864407  0.13855289  1
  Al  Al8  1  0.44596571  0.07989025  0.89333735  1
  Al  Al9  1  0.57488028  0.18864612  0.55861162  1
  Al  Al10  1  0.10981438  0.42627602  0.38271629  1
  Al  Al11  1  0.22615465  0.54306661  0.06932522  1
  Al  Al12  1  0.77777169  0.43322563  0.87671804  1
  Al  Al13  1  0.89519396  0.54156988  0.63765487  1
  Al  Al14  1  0.45489185  0.42618666  0.31747880  1
  Al  Al15  1  0.54715841  0.55474912  0.05994638  1
  Al  Al16  1  0.11004836  0.42552585  0.88821949  1
  Al  Al17  1  0.22275493  0.54269731  0.56621780  1
  Al  Al18  1  0.78690007  0.41671603  0.39180256  1
  Al  Al19  1  0.87991282  0.54172483  0.13888966  1
  Al  Al20  1  0.44635432  0.42802201  0.81601835  1
  Al  Al21  1  0.55279552  0.53647552  0.57729221  1
  Al  Al22  1  0.10857430  0.77284185  0.31692543  1
  Al  Al23  1  0.23597028  0.86648011  0.05821028  1
  Al  Al24  1  0.76499948  0.76338817  0.89734927  1
  Al  Al25  1  0.44422520  0.76274781  0.31746715  1
  Al  Al26  1  0.10829860  0.76205796  0.82136064  1
  Al  Al27  1  0.20667850  0.87466529  0.58012348  1
  Al  Al28  1  0.78079078  0.77252061  0.37840171  1
  Al  Al29  1  0.88548993  0.87655783  0.08878359  1
  Al  Al30  1  0.56008406  0.87442398  0.63931891  1
  B  B31  1  0.91508295  0.23546069  0.65108371  1
  B  B32  1  0.77532339  0.08969067  0.30491202  1
  B  B33  1  0.88063065  0.86409675  0.60065707  1
  B  B34  1  0.55917661  0.87282510  0.14572215  1
  B  B35  1  0.43961492  0.75764045  0.80635942  1
  N  N36  1  0.21817744  0.20450203  0.32132470  1
  N  N37  1  0.10267202  0.09996565  0.06296605  1
  N  N38  1  0.89283255  0.21550023  0.79748020  1
  N  N39  1  0.77738340  0.03978884  0.63370386  1
  N  N40  1  0.58481254  0.19623859  0.36925887  1
  N  N41  1  0.45348097  0.06567653  0.08374574  1
  N  N42  1  0.22876650  0.20598050  0.82185426  1
  N  N43  1  0.08076795  0.11730940  0.58685571  1
  N  N44  1  0.88054222  0.20007719  0.32410927  1
  N  N45  1  0.76752077  0.09597658  0.14607892  1
  N  N46  1  0.56180883  0.20779905  0.88478979  1
  N  N47  1  0.43838490  0.08404097  0.56131668  1
  N  N48  1  0.22686785  0.54553441  0.37733736  1
  N  N49  1  0.10747482  0.42509295  0.07737241  1
  N  N50  1  0.89021283  0.54668431  0.82294171  1
  N  N51  1  0.79789899  0.40316041  0.58654798  1
  N  N52  1  0.55350507  0.54631844  0.38921801  1
  N  N53  1  0.44771730  0.43123107  0.13030561  1
  N  N54  1  0.22675504  0.54198808  0.87908054  1
  N  N55  1  0.11132931  0.42181701  0.57218384  1
  N  N56  1  0.88640301  0.54077555  0.32541858  1
  N  N57  1  0.78146114  0.42311093  0.06495419  1
  N  N58  1  0.53860978  0.56875184  0.86650070  1
  N  N59  1  0.44916508  0.41397124  0.62953026  1
  N  N60  1  0.22735733  0.87067955  0.39242316  1
  N  N61  1  0.11989186  0.76287296  0.12929996  1
  N  N62  1  0.89222343  0.87865559  0.89673096  1
  N  N63  1  0.78855204  0.76252787  0.57095633  1
  N  N64  1  0.56437488  0.87756897  0.30505956  1
  N  N65  1  0.45220425  0.77178251  0.13013262  1
  N  N66  1  0.24890686  0.85723356  0.86425954  1
  N  N67  1  0.07604830  0.76939236  0.63122939  1
  N  N68  1  0.87876249  0.90194611  0.34499149  1
  N  N69  1  0.74763381  0.76950411  0.08556296  1
  N  N70  1  0.54789310  0.86242695  0.82395043  1
  N  N71  1  0.43369902  0.75561364  0.64703967  1
