# generated using pymatgen
data_Al31B5N36
_symmetry_space_group_name_H-M   'P 1'
_cell_length_a   9.15971220
_cell_length_b   9.20380002
_cell_length_c   10.16963233
_cell_angle_alpha   89.64417684
_cell_angle_beta   89.45629898
_cell_angle_gamma   60.08849477
_symmetry_Int_Tables_number   1
_chemical_formula_structural   Al31B5N36
_chemical_formula_sum   'Al31 B5 N36'
_cell_volume   743.10688296
_cell_formula_units_Z   1
loop_
 _symmetry_equiv_pos_site_id
 _symmetry_equiv_pos_as_xyz
  1  'x, y, z'
loop_
 _atom_site_type_symbol
 _atom_site_label
 _atom_site_symmetry_multiplicity
 _atom_site_fract_x
 _atom_site_fract_y
 _atom_site_fract_z
 _atom_site_occupancy
  Al  Al0  1  0.09660399  0.10455747  0.39337586  1
  Al  Al1  1  0.22225107  0.19720722  0.13586932  1
  Al  Al2  1  0.77774804  0.08490004  0.80862641  1
  Al  Al3  1  0.44602218  0.09049554  0.37387417  1
  Al  Al4  1  0.55927594  0.20358593  0.07406409  1
  Al  Al5  1  0.11208581  0.09690391  0.87595784  1
  Al  Al6  1  0.22598461  0.20508373  0.63737890  1
  Al  Al7  1  0.88693736  0.20789275  0.13949329  1
  Al  Al8  1  0.44527222  0.07991434  0.89369407  1
  Al  Al9  1  0.57583419  0.18742901  0.55807759  1
  Al  Al10  1  0.11151003  0.42809924  0.38570198  1
  Al  Al11  1  0.22120121  0.53831670  0.13137510  1
  Al  Al12  1  0.77837800  0.43269439  0.87750212  1
  Al  Al13  1  0.89444427  0.54220530  0.63887575  1
  Al  Al14  1  0.46110845  0.42297644  0.32102973  1
  Al  Al15  1  0.54660421  0.55453246  0.05968213  1
  Al  Al16  1  0.11346266  0.42942399  0.88862441  1
  Al  Al17  1  0.22050512  0.53839537  0.61413786  1
  Al  Al18  1  0.78822493  0.41692580  0.39233927  1
  Al  Al19  1  0.87885880  0.54180538  0.13914396  1
  Al  Al20  1  0.45092509  0.42544146  0.81613907  1
  Al  Al21  1  0.55428029  0.53663445  0.57717590  1
  Al  Al22  1  0.10495208  0.77869212  0.32137906  1
  Al  Al23  1  0.23563768  0.86589913  0.05816897  1
  Al  Al24  1  0.76446656  0.76260635  0.89695431  1
  Al  Al25  1  0.44421703  0.76270325  0.31748728  1
  Al  Al26  1  0.10580848  0.76617019  0.82120333  1
  Al  Al27  1  0.20719665  0.87523599  0.57982214  1
  Al  Al28  1  0.78031552  0.77187414  0.37925538  1
  Al  Al29  1  0.88483420  0.87684495  0.08631951  1
  Al  Al30  1  0.55995293  0.87447094  0.63957512  1
  B  B31  1  0.91513300  0.23558653  0.65170467  1
  B  B32  1  0.77493081  0.08907682  0.30664082  1
  B  B33  1  0.88017383  0.86692065  0.59604024  1
  B  B34  1  0.55891567  0.87272043  0.14623166  1
  B  B35  1  0.43929308  0.75764750  0.80668350  1
  N  N36  1  0.21742078  0.20568930  0.32232520  1
  N  N37  1  0.10223239  0.09983236  0.06417114  1
  N  N38  1  0.89241520  0.21517136  0.79831588  1
  N  N39  1  0.77670525  0.04099685  0.63300610  1
  N  N40  1  0.58542495  0.19433633  0.36924984  1
  N  N41  1  0.45320077  0.06552303  0.08474696  1
  N  N42  1  0.22786652  0.20647736  0.82391974  1
  N  N43  1  0.08091144  0.11813788  0.58764271  1
  N  N44  1  0.88017914  0.20024752  0.32547679  1
  N  N45  1  0.76831056  0.09392762  0.14723866  1
  N  N46  1  0.56221511  0.20670141  0.88550015  1
  N  N47  1  0.43775293  0.08430293  0.56221392  1
  N  N48  1  0.22472387  0.54227985  0.34675014  1
  N  N49  1  0.10951697  0.42709857  0.07721928  1
  N  N50  1  0.89024484  0.54579707  0.82488544  1
  N  N51  1  0.79929343  0.40354798  0.58725640  1
  N  N52  1  0.55502046  0.54701009  0.38953411  1
  N  N53  1  0.45339032  0.42818889  0.13055681  1
  N  N54  1  0.22245424  0.53885125  0.83354257  1
  N  N55  1  0.11229881  0.42298801  0.57263970  1
  N  N56  1  0.88752155  0.54037694  0.32625468  1
  N  N57  1  0.78141726  0.42249096  0.06612681  1
  N  N58  1  0.53872251  0.56857056  0.86705577  1
  N  N59  1  0.45795608  0.40916615  0.62644904  1
  N  N60  1  0.22810629  0.87209102  0.39252867  1
  N  N61  1  0.11594118  0.76824526  0.12960776  1
  N  N62  1  0.89087693  0.87872102  0.89592964  1
  N  N63  1  0.78779021  0.76261758  0.57168515  1
  N  N64  1  0.56423590  0.87735973  0.30567252  1
  N  N65  1  0.45183480  0.77134512  0.12993205  1
  N  N66  1  0.24842100  0.85757073  0.86476384  1
  N  N67  1  0.07267762  0.77629378  0.62667630  1
  N  N68  1  0.87702385  0.90367701  0.35113475  1
  N  N69  1  0.74741383  0.76944977  0.08606607  1
  N  N70  1  0.54705004  0.86235468  0.82469718  1
  N  N71  1  0.43341449  0.75520920  0.64731865  1
