# generated using pymatgen
data_Al31B5N36
_symmetry_space_group_name_H-M   'P 1'
_cell_length_a   9.19830200
_cell_length_b   9.18488202
_cell_length_c   9.90249765
_cell_angle_alpha   90.23697354
_cell_angle_beta   89.89359930
_cell_angle_gamma   59.95893948
_symmetry_Int_Tables_number   1
_chemical_formula_structural   Al31B5N36
_chemical_formula_sum   'Al31 B5 N36'
_cell_volume   724.21681128
_cell_formula_units_Z   1
loop_
 _symmetry_equiv_pos_site_id
 _symmetry_equiv_pos_as_xyz
  1  'x, y, z'
loop_
 _atom_site_type_symbol
 _atom_site_label
 _atom_site_symmetry_multiplicity
 _atom_site_fract_x
 _atom_site_fract_y
 _atom_site_fract_z
 _atom_site_occupancy
  Al  Al0  1  0.10615499  0.09155603  0.31954501  1
  Al  Al1  1  0.22510005  0.20033851  0.06726420  1
  Al  Al2  1  0.78170560  0.08955539  0.81599431  1
  Al  Al3  1  0.45515938  0.08454270  0.32164499  1
  Al  Al4  1  0.56094123  0.20058065  0.06890047  1
  Al  Al5  1  0.10865320  0.09488596  0.80966209  1
  Al  Al6  1  0.21797406  0.20568424  0.56078370  1
  Al  Al7  1  0.88745477  0.20831314  0.06837504  1
  Al  Al8  1  0.44073123  0.09314714  0.81263310  1
  Al  Al9  1  0.57051800  0.19461928  0.55924415  1
  Al  Al10  1  0.11232443  0.42894310  0.31755924  1
  Al  Al11  1  0.22386272  0.54056010  0.06195709  1
  Al  Al12  1  0.77445066  0.42705840  0.80946405  1
  Al  Al13  1  0.89280936  0.53389428  0.57462716  1
  Al  Al14  1  0.45056208  0.42364323  0.31325327  1
  Al  Al15  1  0.55666772  0.54974481  0.06063653  1
  Al  Al16  1  0.10924615  0.42831990  0.81557532  1
  Al  Al17  1  0.21846613  0.54120891  0.56599480  1
  Al  Al18  1  0.77780494  0.42018404  0.32649265  1
  Al  Al19  1  0.88198505  0.54263723  0.08281259  1
  Al  Al20  1  0.44474628  0.43033663  0.81385586  1
  Al  Al21  1  0.55625768  0.53212324  0.56664837  1
  Al  Al22  1  0.11050511  0.76661630  0.31088464  1
  Al  Al23  1  0.23369987  0.87479232  0.05750825  1
  Al  Al24  1  0.75868866  0.76901241  0.88248891  1
  Al  Al25  1  0.44937997  0.76286609  0.32166145  1
  Al  Al26  1  0.10799122  0.76420915  0.82198189  1
  Al  Al27  1  0.21225051  0.87451188  0.56754234  1
  Al  Al28  1  0.78166197  0.77721843  0.38904727  1
  Al  Al29  1  0.88277560  0.88208462  0.09745844  1
  Al  Al30  1  0.55524017  0.87207809  0.60078434  1
  B  B31  1  0.89442336  0.18849550  0.55621876  1
  B  B32  1  0.77768836  0.09313787  0.30977848  1
  B  B33  1  0.89493233  0.87489505  0.60339812  1
  B  B34  1  0.55394164  0.87370428  0.10592257  1
  B  B35  1  0.44296332  0.76116263  0.80178883  1
  N  N36  1  0.22443553  0.20379669  0.37036716  1
  N  N37  1  0.10988009  0.09443142  0.12715894  1
  N  N38  1  0.88647488  0.20572183  0.87804322  1
  N  N39  1  0.80475744  0.07234602  0.61819108  1
  N  N40  1  0.58211037  0.19108783  0.36602722  1
  N  N41  1  0.45943673  0.06629208  0.12326168  1
  N  N42  1  0.21997975  0.20509403  0.87610577  1
  N  N43  1  0.08446688  0.10655804  0.61401312  1
  N  N44  1  0.87988601  0.18991778  0.38967731  1
  N  N45  1  0.77323616  0.11087087  0.14622376  1
  N  N46  1  0.55734375  0.20266176  0.87616896  1
  N  N47  1  0.43888650  0.10497585  0.62183023  1
  N  N48  1  0.22319112  0.54137579  0.37503446  1
  N  N49  1  0.11185289  0.42997890  0.12587688  1
  N  N50  1  0.88583349  0.53792138  0.86831972  1
  N  N51  1  0.78840895  0.39719931  0.61509978  1
  N  N52  1  0.55345093  0.54010937  0.37696793  1
  N  N53  1  0.44614907  0.43039533  0.12109322  1
  N  N54  1  0.22194427  0.53879794  0.87189682  1
  N  N55  1  0.11338972  0.42527063  0.62529232  1
  N  N56  1  0.88870114  0.53966574  0.37640087  1
  N  N57  1  0.77457959  0.42880239  0.13289859  1
  N  N58  1  0.54351551  0.56365734  0.86572072  1
  N  N59  1  0.44582333  0.42076650  0.62274556  1
  N  N60  1  0.22545827  0.86942802  0.37796415  1
  N  N61  1  0.12201402  0.76209010  0.11919361  1
  N  N62  1  0.88758220  0.87649070  0.89068330  1
  N  N63  1  0.79953048  0.78086942  0.59004297  1
  N  N64  1  0.55232271  0.87172893  0.39488243  1
  N  N65  1  0.45884201  0.77883180  0.12554789  1
  N  N66  1  0.24516970  0.86285585  0.86250138  1
  N  N67  1  0.08367645  0.77467278  0.62470112  1
  N  N68  1  0.87737054  0.89719003  0.32717241  1
  N  N69  1  0.73993061  0.78037039  0.08765481  1
  N  N70  1  0.54156187  0.85925427  0.82274266  1
  N  N71  1  0.43563648  0.75297036  0.63859534  1
