# generated using pymatgen
data_Al31B5N36
_symmetry_space_group_name_H-M   'P 1'
_cell_length_a   9.17552977
_cell_length_b   9.16395465
_cell_length_c   10.08170135
_cell_angle_alpha   89.57148760
_cell_angle_beta   89.36271206
_cell_angle_gamma   59.99060707
_symmetry_Int_Tables_number   1
_chemical_formula_structural   Al31B5N36
_chemical_formula_sum   'Al31 B5 N36'
_cell_volume   734.02271172
_cell_formula_units_Z   1
loop_
 _symmetry_equiv_pos_site_id
 _symmetry_equiv_pos_as_xyz
  1  'x, y, z'
loop_
 _atom_site_type_symbol
 _atom_site_label
 _atom_site_symmetry_multiplicity
 _atom_site_fract_x
 _atom_site_fract_y
 _atom_site_fract_z
 _atom_site_occupancy
  Al  Al0  1  0.10191616  0.09401874  0.39454110  1
  Al  Al1  1  0.22534748  0.20064754  0.14042724  1
  Al  Al2  1  0.78105483  0.09047649  0.85292981  1
  Al  Al3  1  0.44806006  0.09119468  0.38230023  1
  Al  Al4  1  0.55748424  0.20671025  0.06306248  1
  Al  Al5  1  0.11411051  0.09036289  0.88594419  1
  Al  Al6  1  0.21953682  0.20473556  0.63887027  1
  Al  Al7  1  0.88286738  0.20729679  0.13034189  1
  Al  Al8  1  0.43965697  0.07771983  0.89291846  1
  Al  Al9  1  0.58022451  0.19363884  0.57224849  1
  Al  Al10  1  0.11032722  0.42912747  0.38993425  1
  Al  Al11  1  0.21587135  0.54306214  0.14097402  1
  Al  Al12  1  0.77979816  0.42691772  0.87624555  1
  Al  Al13  1  0.88765446  0.53813792  0.63863789  1
  Al  Al14  1  0.46005334  0.42384015  0.31931670  1
  Al  Al15  1  0.54308009  0.56004812  0.05686509  1
  Al  Al16  1  0.11109781  0.42667099  0.88982763  1
  Al  Al17  1  0.20828766  0.54502836  0.63762325  1
  Al  Al18  1  0.78690946  0.41422417  0.39425628  1
  Al  Al19  1  0.87849241  0.54443427  0.13876198  1
  Al  Al20  1  0.44775222  0.42669957  0.81237939  1
  Al  Al21  1  0.55403536  0.53457567  0.57448787  1
  Al  Al22  1  0.10181466  0.77287905  0.39488919  1
  Al  Al23  1  0.21883906  0.87880364  0.13608251  1
  Al  Al24  1  0.76868581  0.76146530  0.88832970  1
  Al  Al25  1  0.45412272  0.75856878  0.31575734  1
  Al  Al26  1  0.11456507  0.75860344  0.88693082  1
  Al  Al27  1  0.20789862  0.87804375  0.64303556  1
  Al  Al28  1  0.77788472  0.77325199  0.39029598  1
  Al  Al29  1  0.87949008  0.88095408  0.13372466  1
  Al  Al30  1  0.56238526  0.87448045  0.64129606  1
  B  B31  1  0.89608317  0.19418597  0.64776430  1
  B  B32  1  0.78020436  0.09533287  0.34903587  1
  B  B33  1  0.89526553  0.87881936  0.64929852  1
  B  B34  1  0.55929645  0.87693984  0.14387035  1
  B  B35  1  0.44499374  0.75520901  0.80313033  1
  N  N36  1  0.21943868  0.20515111  0.32925150  1
  N  N37  1  0.10828178  0.09870569  0.07468616  1
  N  N38  1  0.89634570  0.20601848  0.80830467  1
  N  N39  1  0.80493160  0.07889214  0.62376310  1
  N  N40  1  0.59154565  0.19242958  0.37244728  1
  N  N41  1  0.45601339  0.06804324  0.08738341  1
  N  N42  1  0.22303431  0.20407849  0.82731531  1
  N  N43  1  0.08762807  0.10463158  0.58506018  1
  N  N44  1  0.87422576  0.19251413  0.32423894  1
  N  N45  1  0.78894820  0.09034378  0.05859755  1
  N  N46  1  0.54574304  0.20785041  0.87284665  1
  N  N47  1  0.44310593  0.09040746  0.57150133  1
  N  N48  1  0.21750130  0.54595688  0.33285076  1
  N  N49  1  0.10996963  0.42806145  0.07953745  1
  N  N50  1  0.88917918  0.54029341  0.82597400  1
  N  N51  1  0.79494343  0.39400947  0.58644559  1
  N  N52  1  0.55411430  0.54542700  0.38561429  1
  N  N53  1  0.45272537  0.42840486  0.12854474  1
  N  N54  1  0.21591335  0.54057597  0.82686653  1
  N  N55  1  0.10908925  0.42622294  0.57601300  1
  N  N56  1  0.88532287  0.54161744  0.32990700  1
  N  N57  1  0.77846693  0.42779607  0.06890191  1
  N  N58  1  0.53656386  0.56695572  0.86492393  1
  N  N59  1  0.44682156  0.41898083  0.62309702  1
  N  N60  1  0.21935509  0.87542462  0.33148503  1
  N  N61  1  0.10905489  0.76291691  0.07660676  1
  N  N62  1  0.89322948  0.86017160  0.81159839  1
  N  N63  1  0.78797509  0.77438711  0.58091704  1
  N  N64  1  0.56704247  0.87908084  0.30959548  1
  N  N65  1  0.45743186  0.77410184  0.12647003  1
  N  N66  1  0.23994409  0.86231278  0.83118110  1
  N  N67  1  0.08406778  0.77575492  0.58552604  1
  N  N68  1  0.87558661  0.90490349  0.32658097  1
  N  N69  1  0.75332362  0.77581973  0.08289135  1
  N  N70  1  0.54501000  0.85849822  0.82778352  1
  N  N71  1  0.44655679  0.75247220  0.63838523  1
