# generated using pymatgen
data_Al31B5N36
_symmetry_space_group_name_H-M   'P 1'
_cell_length_a   9.21173085
_cell_length_b   9.20281398
_cell_length_c   9.92195955
_cell_angle_alpha   90.23167769
_cell_angle_beta   89.96889959
_cell_angle_gamma   59.88064345
_symmetry_Int_Tables_number   1
_chemical_formula_structural   Al31B5N36
_chemical_formula_sum   'Al31 B5 N36'
_cell_volume   727.54675319
_cell_formula_units_Z   1
loop_
 _symmetry_equiv_pos_site_id
 _symmetry_equiv_pos_as_xyz
  1  'x, y, z'
loop_
 _atom_site_type_symbol
 _atom_site_label
 _atom_site_symmetry_multiplicity
 _atom_site_fract_x
 _atom_site_fract_y
 _atom_site_fract_z
 _atom_site_occupancy
  Al  Al0  1  0.10594336  0.09089967  0.32804668  1
  Al  Al1  1  0.22546673  0.19878889  0.07930974  1
  Al  Al2  1  0.78139496  0.08755746  0.82510905  1
  Al  Al3  1  0.45666327  0.08322151  0.33030407  1
  Al  Al4  1  0.56098524  0.20071001  0.07816731  1
  Al  Al5  1  0.10896411  0.09310756  0.81823571  1
  Al  Al6  1  0.21853531  0.20315681  0.57045597  1
  Al  Al7  1  0.88777030  0.20825647  0.07771121  1
  Al  Al8  1  0.44165641  0.09184012  0.82140584  1
  Al  Al9  1  0.57032164  0.19478368  0.56830162  1
  Al  Al10  1  0.11295294  0.42910723  0.35574463  1
  Al  Al11  1  0.22520668  0.54191807  0.07291983  1
  Al  Al12  1  0.77111618  0.42217511  0.81868726  1
  Al  Al13  1  0.89076842  0.54380177  0.63806526  1
  Al  Al14  1  0.45124766  0.42393399  0.32142659  1
  Al  Al15  1  0.55852737  0.54938915  0.06930700  1
  Al  Al16  1  0.10843960  0.42762091  0.85529035  1
  Al  Al17  1  0.22052562  0.54342895  0.57577560  1
  Al  Al18  1  0.77603864  0.41790714  0.33598939  1
  Al  Al19  1  0.87992497  0.55152285  0.15051149  1
  Al  Al20  1  0.44510802  0.42956914  0.82239018  1
  Al  Al21  1  0.55790806  0.53156040  0.57531990  1
  Al  Al22  1  0.10943099  0.76834838  0.31939561  1
  Al  Al23  1  0.23411690  0.87444973  0.06649237  1
  Al  Al24  1  0.75874450  0.76434898  0.89608332  1
  Al  Al25  1  0.44928946  0.76319130  0.33123744  1
  Al  Al26  1  0.10755383  0.76475300  0.83044000  1
  Al  Al27  1  0.21191360  0.87488695  0.57629483  1
  Al  Al28  1  0.78280812  0.77568778  0.40210380  1
  Al  Al29  1  0.88310884  0.88161169  0.10411472  1
  Al  Al30  1  0.55451635  0.87251644  0.60905122  1
  B  B31  1  0.89403531  0.19267586  0.56546952  1
  B  B32  1  0.77704953  0.09165939  0.31838470  1
  B  B33  1  0.89447249  0.87638134  0.61178403  1
  B  B34  1  0.55413902  0.87295677  0.11437992  1
  B  B35  1  0.44310583  0.76113203  0.81071077  1
  N  N36  1  0.22654710  0.19939271  0.37816237  1
  N  N37  1  0.11001061  0.09306946  0.13658220  1
  N  N38  1  0.88722572  0.20335811  0.88752553  1
  N  N39  1  0.80380203  0.07204803  0.62781506  1
  N  N40  1  0.58186641  0.19134214  0.37491172  1
  N  N41  1  0.46125446  0.06461862  0.13255283  1
  N  N42  1  0.22175828  0.19982872  0.88600666  1
  N  N43  1  0.08465690  0.10618465  0.62384257  1
  N  N44  1  0.88096719  0.19058897  0.39942460  1
  N  N45  1  0.77380908  0.10946525  0.15523032  1
  N  N46  1  0.55701704  0.20233582  0.88559820  1
  N  N47  1  0.43934587  0.10468974  0.63135712  1
  N  N48  1  0.22584233  0.54453503  0.38322213  1
  N  N49  1  0.11041462  0.43072898  0.11657725  1
  N  N50  1  0.88069385  0.54458058  0.83381052  1
  N  N51  1  0.78901610  0.39494203  0.62287299  1
  N  N52  1  0.55340566  0.54043766  0.38627500  1
  N  N53  1  0.44762360  0.43036676  0.13012379  1
  N  N54  1  0.22350255  0.54042710  0.88073609  1
  N  N55  1  0.11356392  0.42637680  0.61040799  1
  N  N56  1  0.88281297  0.54996037  0.34695043  1
  N  N57  1  0.77419583  0.42722782  0.13935918  1
  N  N58  1  0.54354926  0.56296599  0.87518357  1
  N  N59  1  0.44735096  0.42070836  0.63204826  1
  N  N60  1  0.22532374  0.86957782  0.38722235  1
  N  N61  1  0.12151764  0.76347005  0.12851063  1
  N  N62  1  0.88727111  0.87423427  0.89964953  1
  N  N63  1  0.79937259  0.78138269  0.59750303  1
  N  N64  1  0.55255647  0.87142022  0.40466670  1
  N  N65  1  0.45953297  0.77844207  0.13498209  1
  N  N66  1  0.24543676  0.86186687  0.87173659  1
  N  N67  1  0.08317400  0.77594651  0.63413895  1
  N  N68  1  0.87632694  0.89754108  0.33795941  1
  N  N69  1  0.74109810  0.77738496  0.09390001  1
  N  N70  1  0.54171155  0.85845633  0.83251404  1
  N  N71  1  0.43594279  0.75266922  0.64775230  1
