# generated using pymatgen
data_Al31B5N36
_symmetry_space_group_name_H-M   'P 1'
_cell_length_a   9.15336032
_cell_length_b   9.18072871
_cell_length_c   10.24387588
_cell_angle_alpha   89.41247406
_cell_angle_beta   89.37512454
_cell_angle_gamma   60.17439965
_symmetry_Int_Tables_number   1
_chemical_formula_structural   Al31B5N36
_chemical_formula_sum   'Al31 B5 N36'
_cell_volume   746.75927786
_cell_formula_units_Z   1
loop_
 _symmetry_equiv_pos_site_id
 _symmetry_equiv_pos_as_xyz
  1  'x, y, z'
loop_
 _atom_site_type_symbol
 _atom_site_label
 _atom_site_symmetry_multiplicity
 _atom_site_fract_x
 _atom_site_fract_y
 _atom_site_fract_z
 _atom_site_occupancy
  Al  Al0  1  0.09817290  0.10438584  0.39384455  1
  Al  Al1  1  0.22528347  0.19877839  0.13746577  1
  Al  Al2  1  0.77620228  0.08406805  0.81816075  1
  Al  Al3  1  0.44779316  0.09038419  0.37800860  1
  Al  Al4  1  0.56047264  0.20465845  0.06483937  1
  Al  Al5  1  0.10956507  0.09741693  0.87977307  1
  Al  Al6  1  0.22233345  0.20477487  0.63861924  1
  Al  Al7  1  0.88735542  0.20629439  0.13634097  1
  Al  Al8  1  0.44079113  0.07861213  0.89362190  1
  Al  Al9  1  0.57291727  0.18933476  0.56737666  1
  Al  Al10  1  0.11307308  0.43040967  0.38847298  1
  Al  Al11  1  0.22208298  0.53717959  0.14121945  1
  Al  Al12  1  0.77910904  0.42893188  0.88086893  1
  Al  Al13  1  0.89205703  0.54092100  0.63957069  1
  Al  Al14  1  0.46482248  0.42126484  0.31923926  1
  Al  Al15  1  0.54856468  0.55385344  0.06159061  1
  Al  Al16  1  0.11211515  0.42926380  0.89026583  1
  Al  Al17  1  0.21566399  0.53635592  0.63470317  1
  Al  Al18  1  0.78788194  0.41799339  0.39337162  1
  Al  Al19  1  0.88079700  0.54425553  0.14071065  1
  Al  Al20  1  0.45139145  0.42510107  0.81527094  1
  Al  Al21  1  0.55180784  0.53700732  0.57586676  1
  Al  Al22  1  0.10515169  0.78138066  0.31697428  1
  Al  Al23  1  0.23699579  0.86632487  0.05983628  1
  Al  Al24  1  0.76267724  0.75773936  0.89698198  1
  Al  Al25  1  0.44548515  0.76354905  0.31662952  1
  Al  Al26  1  0.10615925  0.76702491  0.82121401  1
  Al  Al27  1  0.20725669  0.87299588  0.57843930  1
  Al  Al28  1  0.78014402  0.77464545  0.38221720  1
  Al  Al29  1  0.88646576  0.87829838  0.07488334  1
  Al  Al30  1  0.55823456  0.87401218  0.64208573  1
  B  B31  1  0.91188208  0.23074917  0.65225588  1
  B  B32  1  0.78196818  0.09281977  0.34169775  1
  B  B33  1  0.88022739  0.86883268  0.60608768  1
  B  B34  1  0.56066146  0.87488534  0.14608202  1
  B  B35  1  0.43881634  0.75674815  0.80857960  1
  N  N36  1  0.21887289  0.20721416  0.32426203  1
  N  N37  1  0.10714790  0.10081320  0.06738540  1
  N  N38  1  0.89177020  0.21293440  0.79988017  1
  N  N39  1  0.77844565  0.04500441  0.63769787  1
  N  N40  1  0.59171565  0.19353192  0.37665466  1
  N  N41  1  0.45481948  0.06590783  0.08458001  1
  N  N42  1  0.22385854  0.20656103  0.82388920  1
  N  N43  1  0.07907335  0.11657375  0.58680340  1
  N  N44  1  0.87740793  0.19717890  0.32680698  1
  N  N45  1  0.77833550  0.09940005  0.09721183  1
  N  N46  1  0.55150396  0.20662609  0.87679903  1
  N  N47  1  0.43635709  0.08494540  0.56494764  1
  N  N48  1  0.22467078  0.54094202  0.33355376  1
  N  N49  1  0.11141151  0.42905651  0.07685025  1
  N  N50  1  0.88928484  0.54194542  0.82449151  1
  N  N51  1  0.79756026  0.40111936  0.58672513  1
  N  N52  1  0.55492537  0.54766537  0.38930471  1
  N  N53  1  0.45588897  0.42585671  0.13008008  1
  N  N54  1  0.22017845  0.53712573  0.82458682  1
  N  N55  1  0.11125719  0.42446481  0.57330668  1
  N  N56  1  0.88847520  0.54203473  0.32836377  1
  N  N57  1  0.78371588  0.42586519  0.06911139  1
  N  N58  1  0.53834593  0.56652422  0.86970234  1
  N  N59  1  0.45424383  0.41226747  0.62672554  1
  N  N60  1  0.22904724  0.87153892  0.39186360  1
  N  N61  1  0.11491231  0.76901873  0.12744855  1
  N  N62  1  0.89165298  0.86640511  0.88710857  1
  N  N63  1  0.78714003  0.76585298  0.57485230  1
  N  N64  1  0.56543095  0.87921867  0.30672221  1
  N  N65  1  0.45347146  0.77142087  0.13110452  1
  N  N66  1  0.24775127  0.85689397  0.86756912  1
  N  N67  1  0.07232125  0.77687920  0.62781476  1
  N  N68  1  0.87661379  0.90946810  0.35099397  1
  N  N69  1  0.74800716  0.77129990  0.08628697  1
  N  N70  1  0.54449247  0.86000172  0.82597399  1
  N  N71  1  0.43224082  0.75431889  0.64853484  1
