# generated using pymatgen
data_Al31B5N36
_symmetry_space_group_name_H-M   'P 1'
_cell_length_a   9.17061358
_cell_length_b   9.16275090
_cell_length_c   10.17605603
_cell_angle_alpha   89.60885482
_cell_angle_beta   89.37775767
_cell_angle_gamma   60.13931977
_symmetry_Int_Tables_number   1
_chemical_formula_structural   Al31B5N36
_chemical_formula_sum   'Al31 B5 N36'
_cell_volume   741.50859219
_cell_formula_units_Z   1
loop_
 _symmetry_equiv_pos_site_id
 _symmetry_equiv_pos_as_xyz
  1  'x, y, z'
loop_
 _atom_site_type_symbol
 _atom_site_label
 _atom_site_symmetry_multiplicity
 _atom_site_fract_x
 _atom_site_fract_y
 _atom_site_fract_z
 _atom_site_occupancy
  Al  Al0  1  0.09660427  0.10020483  0.39260705  1
  Al  Al1  1  0.22265923  0.19691464  0.13738491  1
  Al  Al2  1  0.77983867  0.08648790  0.81261984  1
  Al  Al3  1  0.44603074  0.08945895  0.39131537  1
  Al  Al4  1  0.55769776  0.20371402  0.06827240  1
  Al  Al5  1  0.11086663  0.09665946  0.87784415  1
  Al  Al6  1  0.21935043  0.21067365  0.64011738  1
  Al  Al7  1  0.88663337  0.20855499  0.13937147  1
  Al  Al8  1  0.44453621  0.08164362  0.87868688  1
  Al  Al9  1  0.57942408  0.19627850  0.56237955  1
  Al  Al10  1  0.10933207  0.42415849  0.38454023  1
  Al  Al11  1  0.22556623  0.54242734  0.06897599  1
  Al  Al12  1  0.77751318  0.43113032  0.87772536  1
  Al  Al13  1  0.89358548  0.54129260  0.64029252  1
  Al  Al14  1  0.45352168  0.42176607  0.31691031  1
  Al  Al15  1  0.54779277  0.55329757  0.06172922  1
  Al  Al16  1  0.10706994  0.42697832  0.89052624  1
  Al  Al17  1  0.22187186  0.54405219  0.56671009  1
  Al  Al18  1  0.78568140  0.41369170  0.39269098  1
  Al  Al19  1  0.87663225  0.54334337  0.14173033  1
  Al  Al20  1  0.44477462  0.43159877  0.81514850  1
  Al  Al21  1  0.55263097  0.53786256  0.57421392  1
  Al  Al22  1  0.10781814  0.76986019  0.31470605  1
  Al  Al23  1  0.23572135  0.86751005  0.06018709  1
  Al  Al24  1  0.76485631  0.76427649  0.88717161  1
  Al  Al25  1  0.44848172  0.76237550  0.32553721  1
  Al  Al26  1  0.11169788  0.76292825  0.82326854  1
  Al  Al27  1  0.21243051  0.87321659  0.57749582  1
  Al  Al28  1  0.78437885  0.77034856  0.39328564  1
  Al  Al29  1  0.88338293  0.87677577  0.09140906  1
  Al  Al30  1  0.55739664  0.87458184  0.61464088  1
  B  B31  1  0.90738743  0.21728244  0.64839568  1
  B  B32  1  0.77278658  0.08785025  0.30223866  1
  B  B33  1  0.89206955  0.87128307  0.60861454  1
  B  B34  1  0.55210716  0.87159419  0.10154437  1
  B  B35  1  0.44269230  0.75999998  0.80448550  1
  N  N36  1  0.22305141  0.19980896  0.32408772  1
  N  N37  1  0.10220866  0.09992509  0.06660973  1
  N  N38  1  0.89332733  0.21254686  0.80245796  1
  N  N39  1  0.79733982  0.05797396  0.62808748  1
  N  N40  1  0.58605835  0.19136781  0.36991905  1
  N  N41  1  0.45349687  0.06100445  0.07712403  1
  N  N42  1  0.22276729  0.20908170  0.82547309  1
  N  N43  1  0.08360864  0.11391019  0.58699168  1
  N  N44  1  0.88092700  0.19645057  0.32424837  1
  N  N45  1  0.76411438  0.09883319  0.14212423  1
  N  N46  1  0.56018000  0.20780680  0.88021997  1
  N  N47  1  0.43686274  0.10520672  0.58060740  1
  N  N48  1  0.22608099  0.54315190  0.37664307  1
  N  N49  1  0.10513981  0.42638575  0.08070402  1
  N  N50  1  0.88964971  0.54399412  0.82529999  1
  N  N51  1  0.79545307  0.39972082  0.58698132  1
  N  N52  1  0.55322429  0.53977847  0.38471651  1
  N  N53  1  0.44626678  0.42932254  0.12878397  1
  N  N54  1  0.22600100  0.54140208  0.87920679  1
  N  N55  1  0.10748091  0.42563124  0.57372264  1
  N  N56  1  0.88541662  0.54086571  0.32894915  1
  N  N57  1  0.78017496  0.42380944  0.06765759  1
  N  N58  1  0.53886909  0.56946885  0.86895498  1
  N  N59  1  0.44688967  0.42081900  0.62944418  1
  N  N60  1  0.22533666  0.86743326  0.38838194  1
  N  N61  1  0.12012219  0.76235476  0.12689217  1
  N  N62  1  0.89230410  0.87704848  0.89500846  1
  N  N63  1  0.80136776  0.77182246  0.58743263  1
  N  N64  1  0.55804287  0.86186987  0.39185349  1
  N  N65  1  0.45648752  0.77728145  0.13173269  1
  N  N66  1  0.25157505  0.85787165  0.86740280  1
  N  N67  1  0.08362191  0.77228140  0.63298831  1
  N  N68  1  0.87605911  0.89668092  0.33260366  1
  N  N69  1  0.74015850  0.77247598  0.08155779  1
  N  N70  1  0.54817970  0.86174946  0.81674575  1
  N  N71  1  0.43458797  0.75529306  0.64609259  1
