# generated using pymatgen
data_Al31B5N36
_symmetry_space_group_name_H-M   'P 1'
_cell_length_a   9.20443003
_cell_length_b   9.20175284
_cell_length_c   9.86850638
_cell_angle_alpha   90.01230401
_cell_angle_beta   89.55633169
_cell_angle_gamma   59.95088655
_symmetry_Int_Tables_number   1
_chemical_formula_structural   Al31B5N36
_chemical_formula_sum   'Al31 B5 N36'
_cell_volume   723.46329724
_cell_formula_units_Z   1
loop_
 _symmetry_equiv_pos_site_id
 _symmetry_equiv_pos_as_xyz
  1  'x, y, z'
loop_
 _atom_site_type_symbol
 _atom_site_label
 _atom_site_symmetry_multiplicity
 _atom_site_fract_x
 _atom_site_fract_y
 _atom_site_fract_z
 _atom_site_occupancy
  Al  Al0  1  0.09988731  0.09367838  0.40410647  1
  Al  Al1  1  0.22528830  0.19986622  0.15065249  1
  Al  Al2  1  0.78230962  0.09142414  0.86217809  1
  Al  Al3  1  0.44860059  0.08714367  0.38989519  1
  Al  Al4  1  0.55886303  0.20223482  0.07557209  1
  Al  Al5  1  0.11395549  0.09169672  0.89738774  1
  Al  Al6  1  0.21918133  0.20611223  0.64849924  1
  Al  Al7  1  0.88605744  0.20229181  0.14375484  1
  Al  Al8  1  0.43982646  0.08029707  0.89986017  1
  Al  Al9  1  0.57858906  0.19668079  0.58790930  1
  Al  Al10  1  0.10758870  0.42932620  0.40107875  1
  Al  Al11  1  0.21549564  0.54251108  0.15051143  1
  Al  Al12  1  0.77645199  0.43041665  0.89454434  1
  Al  Al13  1  0.88856353  0.54096281  0.64890619  1
  Al  Al14  1  0.45201294  0.42152779  0.34271027  1
  Al  Al15  1  0.55836271  0.54683895  0.14047589  1
  Al  Al16  1  0.10987096  0.42757040  0.90036410  1
  Al  Al17  1  0.21240587  0.54576720  0.64646218  1
  Al  Al18  1  0.77596275  0.41911270  0.40498685  1
  Al  Al19  1  0.88113645  0.54381563  0.15077766  1
  Al  Al20  1  0.44362122  0.42984753  0.84066974  1
  Al  Al21  1  0.56047699  0.54328356  0.64948772  1
  Al  Al22  1  0.09869445  0.77507172  0.40456953  1
  Al  Al23  1  0.22726866  0.87243075  0.14325879  1
  Al  Al24  1  0.77139338  0.76246052  0.89796906  1
  Al  Al25  1  0.44471136  0.76392585  0.39229477  1
  Al  Al26  1  0.11476344  0.76056106  0.89811443  1
  Al  Al27  1  0.22105035  0.87386400  0.65464124  1
  Al  Al28  1  0.77213826  0.77339838  0.39777729  1
  Al  Al29  1  0.87930685  0.88076279  0.14408967  1
  Al  Al30  1  0.55805286  0.87292853  0.65102075  1
  B  B31  1  0.89814942  0.19194768  0.66060648  1
  B  B32  1  0.77852454  0.09448467  0.36263985  1
  B  B33  1  0.89711148  0.87934213  0.66014731  1
  B  B34  1  0.55623208  0.87320013  0.14525979  1
  B  B35  1  0.44996679  0.76318677  0.90330190  1
  N  N36  1  0.21840328  0.20463154  0.34242313  1
  N  N37  1  0.10962393  0.09580596  0.08844906  1
  N  N38  1  0.89578042  0.20897017  0.82206323  1
  N  N39  1  0.80582418  0.08075400  0.63485321  1
  N  N40  1  0.59003780  0.18883526  0.38196522  1
  N  N41  1  0.45596935  0.06680935  0.09696731  1
  N  N42  1  0.22233810  0.20505846  0.83964194  1
  N  N43  1  0.08827694  0.10357011  0.59875247  1
  N  N44  1  0.87250256  0.19079897  0.33956457  1
  N  N45  1  0.78884216  0.08956730  0.06924075  1
  N  N46  1  0.54763281  0.20523701  0.87817807  1
  N  N47  1  0.44427788  0.09160116  0.58504659  1
  N  N48  1  0.21385281  0.54706663  0.34653254  1
  N  N49  1  0.10942008  0.42692007  0.09251310  1
  N  N50  1  0.88853509  0.54065335  0.83999798  1
  N  N51  1  0.78965873  0.40224159  0.59780009  1
  N  N52  1  0.56064755  0.54305965  0.33681590  1
  N  N53  1  0.44663244  0.42303276  0.13212858  1
  N  N54  1  0.21523687  0.54159986  0.84012418  1
  N  N55  1  0.11002782  0.42752497  0.58978772  1
  N  N56  1  0.88363494  0.54142524  0.34418892  1
  N  N57  1  0.78120263  0.42431865  0.08609481  1
  N  N58  1  0.54444776  0.56670775  0.84933549  1
  N  N59  1  0.44726214  0.42676861  0.62485838  1
  N  N60  1  0.22070624  0.87325831  0.33777528  1
  N  N61  1  0.10764133  0.76283085  0.08965635  1
  N  N62  1  0.89483534  0.86107225  0.82302549  1
  N  N63  1  0.78640846  0.77759241  0.59316342  1
  N  N64  1  0.55552476  0.87055566  0.31318399  1
  N  N65  1  0.45619549  0.77317064  0.07619040  1
  N  N66  1  0.24947137  0.85890193  0.84901102  1
  N  N67  1  0.08693848  0.77813103  0.59893489  1
  N  N68  1  0.87162206  0.90477856  0.33912054  1
  N  N69  1  0.75385797  0.77476042  0.09387194  1
  N  N70  1  0.54445192  0.85666467  0.84195605  1
  N  N71  1  0.44545824  0.76438430  0.58290908  1
