# generated using pymatgen
data_Al31B5N36
_symmetry_space_group_name_H-M   'P 1'
_cell_length_a   9.18756546
_cell_length_b   9.18447826
_cell_length_c   9.86968961
_cell_angle_alpha   89.87023097
_cell_angle_beta   89.83228666
_cell_angle_gamma   59.93825794
_symmetry_Int_Tables_number   1
_chemical_formula_structural   Al31B5N36
_chemical_formula_sum   'Al31 B5 N36'
_cell_volume   720.80283078
_cell_formula_units_Z   1
loop_
 _symmetry_equiv_pos_site_id
 _symmetry_equiv_pos_as_xyz
  1  'x, y, z'
loop_
 _atom_site_type_symbol
 _atom_site_label
 _atom_site_symmetry_multiplicity
 _atom_site_fract_x
 _atom_site_fract_y
 _atom_site_fract_z
 _atom_site_occupancy
  Al  Al0  1  0.10637765  0.09337603  0.31929905  1
  Al  Al1  1  0.22691946  0.19818658  0.06656037  1
  Al  Al2  1  0.78210201  0.09094826  0.80830869  1
  Al  Al3  1  0.45362237  0.08736720  0.32082474  1
  Al  Al4  1  0.56508161  0.19634264  0.07240925  1
  Al  Al5  1  0.10904354  0.09355559  0.80949005  1
  Al  Al6  1  0.21678419  0.20794065  0.56130005  1
  Al  Al7  1  0.88828037  0.20254627  0.07147752  1
  Al  Al8  1  0.44181612  0.09203646  0.81366096  1
  Al  Al9  1  0.56732022  0.19941430  0.56014175  1
  Al  Al10  1  0.11017747  0.43007872  0.31261740  1
  Al  Al11  1  0.22262035  0.54097801  0.06256666  1
  Al  Al12  1  0.77502920  0.42493617  0.81031096  1
  Al  Al13  1  0.89253480  0.53268114  0.57017040  1
  Al  Al14  1  0.45012319  0.42502528  0.31316565  1
  Al  Al15  1  0.55755297  0.54920907  0.05930624  1
  Al  Al16  1  0.11086521  0.42688072  0.81595201  1
  Al  Al17  1  0.21655059  0.54286803  0.56411139  1
  Al  Al18  1  0.77704808  0.42279845  0.32183769  1
  Al  Al19  1  0.88167495  0.54171309  0.06734656  1
  Al  Al20  1  0.44442082  0.43030921  0.81464896  1
  Al  Al21  1  0.55586751  0.53389751  0.56674214  1
  Al  Al22  1  0.10834534  0.76807611  0.31708751  1
  Al  Al23  1  0.23245081  0.87293712  0.05834417  1
  Al  Al24  1  0.76666149  0.76533512  0.84316782  1
  Al  Al25  1  0.44889211  0.76385590  0.31879792  1
  Al  Al26  1  0.10801757  0.76419860  0.80976004  1
  Al  Al27  1  0.21319203  0.87578753  0.56527077  1
  Al  Al28  1  0.77694511  0.77303175  0.38599858  1
  Al  Al29  1  0.88257745  0.87760117  0.07441670  1
  Al  Al30  1  0.55277831  0.87339105  0.59732852  1
  B  B31  1  0.89029000  0.19254428  0.55702335  1
  B  B32  1  0.78071504  0.09531504  0.32414174  1
  B  B33  1  0.89427434  0.88566239  0.55961811  1
  B  B34  1  0.55963417  0.87071660  0.10496723  1
  B  B35  1  0.44236501  0.76079871  0.80167240  1
  N  N36  1  0.22313269  0.20634061  0.36990731  1
  N  N37  1  0.11155002  0.09234766  0.12696562  1
  N  N38  1  0.88686601  0.20293743  0.87975394  1
  N  N39  1  0.80213300  0.08278870  0.61414301  1
  N  N40  1  0.58146542  0.19319328  0.36725204  1
  N  N41  1  0.46095132  0.06500247  0.12324211  1
  N  N42  1  0.22060302  0.20352168  0.87535400  1
  N  N43  1  0.08409609  0.10768257  0.61351533  1
  N  N44  1  0.87811642  0.19396550  0.38862832  1
  N  N45  1  0.78265994  0.09289743  0.15569985  1
  N  N46  1  0.55993472  0.20098664  0.87731648  1
  N  N47  1  0.43879422  0.10591387  0.62192150  1
  N  N48  1  0.22270741  0.53980742  0.37260345  1
  N  N49  1  0.11097552  0.42833855  0.12154320  1
  N  N50  1  0.88694030  0.53544293  0.87230357  1
  N  N51  1  0.78803500  0.39936115  0.61625888  1
  N  N52  1  0.55364205  0.54127148  0.37587851  1
  N  N53  1  0.44767463  0.42886373  0.12033483  1
  N  N54  1  0.22029112  0.54129822  0.87133990  1
  N  N55  1  0.11168911  0.42681756  0.62616340  1
  N  N56  1  0.88918827  0.53789890  0.37616909  1
  N  N57  1  0.77675244  0.42593823  0.12885941  1
  N  N58  1  0.54399123  0.56284118  0.86472312  1
  N  N59  1  0.44346523  0.42385069  0.62290356  1
  N  N60  1  0.22626406  0.87087210  0.37539563  1
  N  N61  1  0.11296043  0.76386389  0.12440508  1
  N  N62  1  0.88776754  0.87513775  0.88083258  1
  N  N63  1  0.79489215  0.77619730  0.59699737  1
  N  N64  1  0.54895379  0.87458831  0.39338125  1
  N  N65  1  0.46046424  0.77717457  0.12338957  1
  N  N66  1  0.24391260  0.86085637  0.86221272  1
  N  N67  1  0.08372661  0.77646402  0.61492156  1
  N  N68  1  0.88286344  0.90265573  0.38668711  1
  N  N69  1  0.74575055  0.77778070  0.09839206  1
  N  N70  1  0.53951287  0.85897723  0.82530909  1
  N  N71  1  0.43506128  0.75435047  0.63799487  1
