# generated using pymatgen
data_Al31B5N36
_symmetry_space_group_name_H-M   'P 1'
_cell_length_a   9.15163120
_cell_length_b   9.19701639
_cell_length_c   10.17648111
_cell_angle_alpha   89.60267541
_cell_angle_beta   89.42085896
_cell_angle_gamma   60.02949973
_symmetry_Int_Tables_number   1
_chemical_formula_structural   Al31B5N36
_chemical_formula_sum   'Al31 B5 N36'
_cell_volume   741.95837277
_cell_formula_units_Z   1
loop_
 _symmetry_equiv_pos_site_id
 _symmetry_equiv_pos_as_xyz
  1  'x, y, z'
loop_
 _atom_site_type_symbol
 _atom_site_label
 _atom_site_symmetry_multiplicity
 _atom_site_fract_x
 _atom_site_fract_y
 _atom_site_fract_z
 _atom_site_occupancy
  Al  Al0  1  0.09666136  0.10385157  0.39367415  1
  Al  Al1  1  0.22206591  0.19774620  0.13628286  1
  Al  Al2  1  0.77820260  0.08479183  0.80928692  1
  Al  Al3  1  0.44656650  0.09056830  0.37432717  1
  Al  Al4  1  0.55881185  0.20408039  0.07486452  1
  Al  Al5  1  0.11235895  0.09608103  0.87593688  1
  Al  Al6  1  0.22605853  0.20579088  0.63716860  1
  Al  Al7  1  0.88703688  0.20797504  0.13963666  1
  Al  Al8  1  0.44583636  0.07983073  0.89410082  1
  Al  Al9  1  0.57483914  0.18862382  0.55930930  1
  Al  Al10  1  0.11017253  0.42665599  0.38392364  1
  Al  Al11  1  0.22565607  0.54270547  0.07336292  1
  Al  Al12  1  0.77775764  0.43285945  0.87746154  1
  Al  Al13  1  0.89531906  0.54204501  0.63871074  1
  Al  Al14  1  0.45563192  0.42602586  0.31934759  1
  Al  Al15  1  0.54701158  0.55443171  0.06061165  1
  Al  Al16  1  0.11035311  0.42597316  0.88912060  1
  Al  Al17  1  0.22329000  0.54278650  0.56828119  1
  Al  Al18  1  0.78738967  0.41692135  0.39264593  1
  Al  Al19  1  0.87954257  0.54153488  0.13957259  1
  Al  Al20  1  0.44646194  0.42772943  0.81692710  1
  Al  Al21  1  0.55367263  0.53643234  0.57831041  1
  Al  Al22  1  0.10779785  0.77380706  0.31951441  1
  Al  Al23  1  0.23543372  0.86608920  0.05907511  1
  Al  Al24  1  0.76457062  0.76309207  0.89749913  1
  Al  Al25  1  0.44422384  0.76273305  0.31808125  1
  Al  Al26  1  0.10794298  0.76208071  0.82116547  1
  Al  Al27  1  0.20708215  0.87520888  0.58082685  1
  Al  Al28  1  0.78046185  0.77229710  0.37941817  1
  Al  Al29  1  0.88543031  0.87631076  0.08764357  1
  Al  Al30  1  0.56001417  0.87442564  0.63980941  1
  B  B31  1  0.91519583  0.23553112  0.65190972  1
  B  B32  1  0.77541293  0.08935535  0.30707126  1
  B  B33  1  0.88061100  0.86553015  0.59796006  1
  B  B34  1  0.55895925  0.87277890  0.14635953  1
  B  B35  1  0.43942560  0.75764310  0.80693450  1
  N  N36  1  0.21800429  0.20502099  0.32244216  1
  N  N37  1  0.10233120  0.09943108  0.06418730  1
  N  N38  1  0.89265539  0.21526082  0.79848333  1
  N  N39  1  0.77758029  0.04052928  0.63339464  1
  N  N40  1  0.58466855  0.19599132  0.36989962  1
  N  N41  1  0.45324167  0.06555035  0.08484405  1
  N  N42  1  0.22845997  0.20612179  0.82341066  1
  N  N43  1  0.08098088  0.11772873  0.58789658  1
  N  N44  1  0.88030319  0.20024374  0.32551631  1
  N  N45  1  0.76816924  0.09419693  0.14767147  1
  N  N46  1  0.56202587  0.20735922  0.88563227  1
  N  N47  1  0.43816153  0.08433541  0.56243765  1
  N  N48  1  0.22729908  0.54561718  0.37813921  1
  N  N49  1  0.10725766  0.42492141  0.07877339  1
  N  N50  1  0.89018230  0.54632907  0.82435278  1
  N  N51  1  0.79850543  0.40342457  0.58757309  1
  N  N52  1  0.55428262  0.54651713  0.38988875  1
  N  N53  1  0.44829929  0.43064230  0.13168587  1
  N  N54  1  0.22662736  0.54215185  0.87913754  1
  N  N55  1  0.11161566  0.42231088  0.57391237  1
  N  N56  1  0.88684253  0.54082770  0.32641532  1
  N  N57  1  0.78112909  0.42252759  0.06615280  1
  N  N58  1  0.53870910  0.56858737  0.86697175  1
  N  N59  1  0.45034897  0.41360868  0.62989695  1
  N  N60  1  0.22767709  0.87157620  0.39283182  1
  N  N61  1  0.11852428  0.76349502  0.13119867  1
  N  N62  1  0.89190561  0.87827341  0.89639905  1
  N  N63  1  0.78808648  0.76269890  0.57187409  1
  N  N64  1  0.56432998  0.87747776  0.30584774  1
  N  N65  1  0.45198942  0.77151280  0.13041474  1
  N  N66  1  0.24849946  0.85725058  0.86466569  1
  N  N67  1  0.07609550  0.77045065  0.63047904  1
  N  N68  1  0.87858885  0.90278418  0.35057150  1
  N  N69  1  0.74752359  0.76940227  0.08626973  1
  N  N70  1  0.54735069  0.86246363  0.82483895  1
  N  N71  1  0.43381649  0.75557019  0.64745613  1
