# generated using pymatgen
data_Al31B5N36
_symmetry_space_group_name_H-M   'P 1'
_cell_length_a   9.19795686
_cell_length_b   9.19939160
_cell_length_c   9.85160958
_cell_angle_alpha   90.00498949
_cell_angle_beta   89.54714162
_cell_angle_gamma   59.97592704
_symmetry_Int_Tables_number   1
_chemical_formula_structural   Al31B5N36
_chemical_formula_sum   'Al31 B5 N36'
_cell_volume   721.71312035
_cell_formula_units_Z   1
loop_
 _symmetry_equiv_pos_site_id
 _symmetry_equiv_pos_as_xyz
  1  'x, y, z'
loop_
 _atom_site_type_symbol
 _atom_site_label
 _atom_site_symmetry_multiplicity
 _atom_site_fract_x
 _atom_site_fract_y
 _atom_site_fract_z
 _atom_site_occupancy
  Al  Al0  1  0.09981966  0.09358378  0.40391250  1
  Al  Al1  1  0.22492779  0.20021030  0.15038513  1
  Al  Al2  1  0.78222565  0.09157974  0.86133060  1
  Al  Al3  1  0.44900808  0.08734373  0.38899886  1
  Al  Al4  1  0.56040290  0.19929529  0.07822769  1
  Al  Al5  1  0.11405033  0.09166067  0.89727104  1
  Al  Al6  1  0.21895989  0.20623014  0.64823810  1
  Al  Al7  1  0.88603916  0.20248968  0.14371668  1
  Al  Al8  1  0.44020840  0.08073450  0.89875461  1
  Al  Al9  1  0.57851859  0.19454596  0.59253600  1
  Al  Al10  1  0.10772630  0.42919598  0.40054583  1
  Al  Al11  1  0.21885785  0.54131157  0.15101860  1
  Al  Al12  1  0.77698604  0.43016480  0.89409460  1
  Al  Al13  1  0.88843437  0.54094714  0.64847692  1
  Al  Al14  1  0.44854562  0.42827058  0.38561064  1
  Al  Al15  1  0.55734359  0.54554263  0.14136090  1
  Al  Al16  1  0.11035741  0.42771432  0.89973957  1
  Al  Al17  1  0.21625081  0.54359799  0.64698487  1
  Al  Al18  1  0.77576070  0.41897878  0.40441182  1
  Al  Al19  1  0.88133632  0.54382580  0.15034311  1
  Al  Al20  1  0.44023462  0.43652530  0.88522402  1
  Al  Al21  1  0.55785117  0.54065870  0.65101072  1
  Al  Al22  1  0.09846498  0.77506664  0.40408578  1
  Al  Al23  1  0.22732336  0.87221487  0.14292746  1
  Al  Al24  1  0.77131569  0.76253577  0.89784799  1
  Al  Al25  1  0.44497200  0.76353393  0.39177996  1
  Al  Al26  1  0.11433358  0.76068508  0.89740243  1
  Al  Al27  1  0.22124706  0.87361467  0.65420102  1
  Al  Al28  1  0.77207636  0.77363245  0.39762777  1
  Al  Al29  1  0.87989430  0.88019504  0.14388355  1
  Al  Al30  1  0.55803680  0.87200427  0.65071170  1
  B  B31  1  0.89821345  0.19210506  0.66032337  1
  B  B32  1  0.77755097  0.09487890  0.36170190  1
  B  B33  1  0.89753305  0.87850287  0.65975214  1
  B  B34  1  0.55634707  0.87242346  0.14491774  1
  B  B35  1  0.44970593  0.76398297  0.90311449  1
  N  N36  1  0.21834050  0.20450540  0.34234935  1
  N  N37  1  0.10965518  0.09571149  0.08844273  1
  N  N38  1  0.89614312  0.20882210  0.82202228  1
  N  N39  1  0.80646207  0.08039356  0.63445798  1
  N  N40  1  0.58973077  0.18832943  0.37784241  1
  N  N41  1  0.45581165  0.06686377  0.09664437  1
  N  N42  1  0.22225605  0.20514040  0.83958574  1
  N  N43  1  0.08841689  0.10345952  0.59867429  1
  N  N44  1  0.87264290  0.19069883  0.33948420  1
  N  N45  1  0.78913631  0.08929650  0.06886165  1
  N  N46  1  0.54813435  0.20475984  0.87274128  1
  N  N47  1  0.44424223  0.09097836  0.58486320  1
  N  N48  1  0.21612312  0.54564575  0.34417780  1
  N  N49  1  0.10995810  0.42732032  0.09243370  1
  N  N50  1  0.88882077  0.54081149  0.83988601  1
  N  N51  1  0.78879301  0.40222775  0.59801067  1
  N  N52  1  0.55874184  0.54127631  0.33454010  1
  N  N53  1  0.44317166  0.43048073  0.09912998  1
  N  N54  1  0.21877070  0.54024473  0.83799945  1
  N  N55  1  0.11031754  0.42782166  0.58972649  1
  N  N56  1  0.88336873  0.54157463  0.34419139  1
  N  N57  1  0.78094227  0.42453117  0.08610169  1
  N  N58  1  0.54430145  0.56574158  0.84750193  1
  N  N59  1  0.44451525  0.43074621  0.59333626  1
  N  N60  1  0.22081070  0.87306777  0.33770742  1
  N  N61  1  0.10766017  0.76248077  0.08936563  1
  N  N62  1  0.89499601  0.86080517  0.82285577  1
  N  N63  1  0.78645224  0.77771785  0.59313995  1
  N  N64  1  0.55554865  0.87010809  0.31294822  1
  N  N65  1  0.45669567  0.77284760  0.07608702  1
  N  N66  1  0.24963788  0.85885300  0.84898303  1
  N  N67  1  0.08747671  0.77716318  0.59880429  1
  N  N68  1  0.87186444  0.90443988  0.33884849  1
  N  N69  1  0.75382677  0.77480895  0.09371252  1
  N  N70  1  0.54436555  0.85656844  0.84186838  1
  N  N71  1  0.44606112  0.76300517  0.58280751  1
