# generated using pymatgen
data_Al31B5N36
_symmetry_space_group_name_H-M   'P 1'
_cell_length_a   9.18264072
_cell_length_b   9.18034340
_cell_length_c   10.05611640
_cell_angle_alpha   89.58072041
_cell_angle_beta   89.41093322
_cell_angle_gamma   60.06567716
_symmetry_Int_Tables_number   1
_chemical_formula_structural   Al31B5N36
_chemical_formula_sum   'Al31 B5 N36'
_cell_volume   734.59868115
_cell_formula_units_Z   1
loop_
 _symmetry_equiv_pos_site_id
 _symmetry_equiv_pos_as_xyz
  1  'x, y, z'
loop_
 _atom_site_type_symbol
 _atom_site_label
 _atom_site_symmetry_multiplicity
 _atom_site_fract_x
 _atom_site_fract_y
 _atom_site_fract_z
 _atom_site_occupancy
  Al  Al0  1  0.10208389  0.09500691  0.39749584  1
  Al  Al1  1  0.22587970  0.19999408  0.14082418  1
  Al  Al2  1  0.77927527  0.09153770  0.85198935  1
  Al  Al3  1  0.44807492  0.08965968  0.38166220  1
  Al  Al4  1  0.55856039  0.20527574  0.06405777  1
  Al  Al5  1  0.10987604  0.09770097  0.87905395  1
  Al  Al6  1  0.21916649  0.20696987  0.63822129  1
  Al  Al7  1  0.88604319  0.20411642  0.13087632  1
  Al  Al8  1  0.43949257  0.07858396  0.89278725  1
  Al  Al9  1  0.57964752  0.19344684  0.57219538  1
  Al  Al10  1  0.11036255  0.42971502  0.38915114  1
  Al  Al11  1  0.21699359  0.54313363  0.14125625  1
  Al  Al12  1  0.77875353  0.42861884  0.87735212  1
  Al  Al13  1  0.88661462  0.53880621  0.63821670  1
  Al  Al14  1  0.46020178  0.42356100  0.32080786  1
  Al  Al15  1  0.54769669  0.55389089  0.06039950  1
  Al  Al16  1  0.11094742  0.42735413  0.89034365  1
  Al  Al17  1  0.20803858  0.54448686  0.63719320  1
  Al  Al18  1  0.78681537  0.41435831  0.39343480  1
  Al  Al19  1  0.88002501  0.54387687  0.13941447  1
  Al  Al20  1  0.44794069  0.42702053  0.81257484  1
  Al  Al21  1  0.55286127  0.53582621  0.57318884  1
  Al  Al22  1  0.10231655  0.77315083  0.39741018  1
  Al  Al23  1  0.23228473  0.87236993  0.08453741  1
  Al  Al24  1  0.76751130  0.76160502  0.88947656  1
  Al  Al25  1  0.44658717  0.76220094  0.31540892  1
  Al  Al26  1  0.11053954  0.75722086  0.88146240  1
  Al  Al27  1  0.20955220  0.87787115  0.63002751  1
  Al  Al28  1  0.77714048  0.77289213  0.38972765  1
  Al  Al29  1  0.88187030  0.88045675  0.13407882  1
  Al  Al30  1  0.56082315  0.87420238  0.64213819  1
  B  B31  1  0.89389745  0.19750315  0.64893027  1
  B  B32  1  0.78119604  0.09448062  0.34917585  1
  B  B33  1  0.89350554  0.87931142  0.65090711  1
  B  B34  1  0.56134744  0.87677613  0.14520932  1
  B  B35  1  0.44519010  0.75457565  0.80562566  1
  N  N36  1  0.21911036  0.20582029  0.32936635  1
  N  N37  1  0.10869239  0.10085810  0.07023748  1
  N  N38  1  0.89190643  0.20970020  0.80875787  1
  N  N39  1  0.80314868  0.07964219  0.62565173  1
  N  N40  1  0.59235922  0.19119300  0.37250951  1
  N  N41  1  0.45654072  0.06697329  0.08764469  1
  N  N42  1  0.22373036  0.20643653  0.82625292  1
  N  N43  1  0.08373520  0.10990670  0.59011711  1
  N  N44  1  0.87569104  0.19132335  0.32473722  1
  N  N45  1  0.78981974  0.08952174  0.05877230  1
  N  N46  1  0.54492132  0.20874970  0.87340965  1
  N  N47  1  0.44243850  0.08972415  0.57149142  1
  N  N48  1  0.21748989  0.54691811  0.33314142  1
  N  N49  1  0.11111455  0.42770910  0.08014950  1
  N  N50  1  0.88887103  0.54090285  0.82658606  1
  N  N51  1  0.79313858  0.39563511  0.58645077  1
  N  N52  1  0.55505577  0.54586949  0.38368076  1
  N  N53  1  0.45356642  0.42629120  0.12961010  1
  N  N54  1  0.21644633  0.53936035  0.82606136  1
  N  N55  1  0.10796830  0.42727940  0.57544704  1
  N  N56  1  0.88578353  0.54155974  0.33008825  1
  N  N57  1  0.78135079  0.42548076  0.07061626  1
  N  N58  1  0.53659066  0.56645866  0.86787097  1
  N  N59  1  0.44649930  0.41921780  0.62230576  1
  N  N60  1  0.22786935  0.87233630  0.36638390  1
  N  N61  1  0.10940615  0.76086061  0.07291266  1
  N  N62  1  0.88949337  0.86139694  0.81213093  1
  N  N63  1  0.78505698  0.77403852  0.58068121  1
  N  N64  1  0.56661691  0.87795526  0.30802262  1
  N  N65  1  0.45812261  0.77188047  0.12536515  1
  N  N66  1  0.24131905  0.86251719  0.84215620  1
  N  N67  1  0.07997544  0.77558164  0.59004069  1
  N  N68  1  0.87669387  0.90424494  0.32698900  1
  N  N69  1  0.75451005  0.77525817  0.08378795  1
  N  N70  1  0.54440997  0.85896318  0.82937985  1
  N  N71  1  0.44502433  0.75119275  0.64386663  1
