# generated using pymatgen
data_Al31B5N36
_symmetry_space_group_name_H-M   'P 1'
_cell_length_a   9.17599061
_cell_length_b   9.17248523
_cell_length_c   10.03214636
_cell_angle_alpha   89.49522905
_cell_angle_beta   89.29811688
_cell_angle_gamma   60.02543732
_symmetry_Int_Tables_number   1
_chemical_formula_structural   Al31B5N36
_chemical_formula_sum   'Al31 B5 N36'
_cell_volume   731.37658868
_cell_formula_units_Z   1
loop_
 _symmetry_equiv_pos_site_id
 _symmetry_equiv_pos_as_xyz
  1  'x, y, z'
loop_
 _atom_site_type_symbol
 _atom_site_label
 _atom_site_symmetry_multiplicity
 _atom_site_fract_x
 _atom_site_fract_y
 _atom_site_fract_z
 _atom_site_occupancy
  Al  Al0  1  0.10034273  0.09436882  0.40519874  1
  Al  Al1  1  0.22603672  0.19886136  0.14997616  1
  Al  Al2  1  0.78117635  0.09061480  0.86090591  1
  Al  Al3  1  0.44866114  0.09123970  0.39388635  1
  Al  Al4  1  0.55801155  0.20374940  0.07210388  1
  Al  Al5  1  0.11501268  0.08990079  0.89537906  1
  Al  Al6  1  0.21863400  0.20706909  0.64854534  1
  Al  Al7  1  0.88568031  0.20295416  0.14024531  1
  Al  Al8  1  0.43892363  0.07864439  0.90125133  1
  Al  Al9  1  0.57983250  0.19724662  0.58421226  1
  Al  Al10  1  0.11065035  0.42906186  0.39964257  1
  Al  Al11  1  0.21525911  0.54289770  0.14951447  1
  Al  Al12  1  0.78055536  0.42718256  0.88968436  1
  Al  Al13  1  0.88675037  0.53962532  0.64781091  1
  Al  Al14  1  0.46010911  0.41976054  0.32607687  1
  Al  Al15  1  0.54659362  0.55724311  0.08078525  1
  Al  Al16  1  0.11069746  0.42653432  0.90015345  1
  Al  Al17  1  0.20839645  0.54675829  0.64748200  1
  Al  Al18  1  0.78896799  0.41164212  0.40066107  1
  Al  Al19  1  0.87892737  0.54441781  0.14962538  1
  Al  Al20  1  0.44696488  0.42925937  0.82432311  1
  Al  Al21  1  0.55366402  0.53745823  0.57523299  1
  Al  Al22  1  0.09949880  0.77270679  0.40454006  1
  Al  Al23  1  0.22423951  0.87540778  0.15165226  1
  Al  Al24  1  0.76948127  0.76031026  0.89827544  1
  Al  Al25  1  0.44685275  0.76592610  0.36694630  1
  Al  Al26  1  0.11514493  0.75791972  0.89649764  1
  Al  Al27  1  0.21853079  0.87519157  0.64423822  1
  Al  Al28  1  0.77595509  0.77387133  0.40004477  1
  Al  Al29  1  0.87995729  0.87965741  0.14251962  1
  Al  Al30  1  0.55627213  0.87333962  0.64444572  1
  B  B31  1  0.89658996  0.19473900  0.65817011  1
  B  B32  1  0.78015912  0.09393502  0.35881402  1
  B  B33  1  0.89519283  0.87913695  0.65926648  1
  B  B34  1  0.55526492  0.87352337  0.15730259  1
  B  B35  1  0.44278077  0.75949301  0.85736728  1
  N  N36  1  0.21948633  0.20451501  0.34012111  1
  N  N37  1  0.11067144  0.09463699  0.08408481  1
  N  N38  1  0.89642684  0.20715215  0.81942945  1
  N  N39  1  0.80477459  0.08063855  0.63546582  1
  N  N40  1  0.59192495  0.19071234  0.38281503  1
  N  N41  1  0.45592614  0.06674979  0.09581959  1
  N  N42  1  0.22248201  0.20443255  0.83741363  1
  N  N43  1  0.08678213  0.10614635  0.59685902  1
  N  N44  1  0.87566767  0.18951177  0.33418909  1
  N  N45  1  0.78901905  0.08928530  0.06747488  1
  N  N46  1  0.54584507  0.20766490  0.88022903  1
  N  N47  1  0.44315182  0.09559403  0.58510692  1
  N  N48  1  0.21772965  0.54563353  0.34236764  1
  N  N49  1  0.10968990  0.42694729  0.08993797  1
  N  N50  1  0.88880491  0.54020799  0.83625349  1
  N  N51  1  0.79394537  0.39699582  0.59538677  1
  N  N52  1  0.56057876  0.53405002  0.38371719  1
  N  N53  1  0.45130926  0.42491625  0.13552654  1
  N  N54  1  0.21582660  0.54044114  0.83768465  1
  N  N55  1  0.10887327  0.42830017  0.58652875  1
  N  N56  1  0.88601341  0.54201312  0.34071481  1
  N  N57  1  0.78093081  0.42478589  0.08160174  1
  N  N58  1  0.53538856  0.57058169  0.88046066  1
  N  N59  1  0.44726799  0.42513745  0.63436027  1
  N  N60  1  0.21379744  0.87729786  0.34171934  1
  N  N61  1  0.11088249  0.76318174  0.08598604  1
  N  N62  1  0.89361875  0.85993577  0.82206516  1
  N  N63  1  0.78675060  0.77725741  0.59276173  1
  N  N64  1  0.56415462  0.87885987  0.32048087  1
  N  N65  1  0.45740336  0.77553612  0.13526059  1
  N  N66  1  0.25079941  0.85616514  0.83817160  1
  N  N67  1  0.08478256  0.77746429  0.59671278  1
  N  N68  1  0.87427330  0.90395497  0.33612135  1
  N  N69  1  0.75370945  0.77429344  0.09230782  1
  N  N70  1  0.54024294  0.85340617  0.83648188  1
  N  N71  1  0.44001578  0.77239481  0.57617507  1
