# generated using pymatgen
data_Al31B5N36
_symmetry_space_group_name_H-M   'P 1'
_cell_length_a   9.15028967
_cell_length_b   9.13482183
_cell_length_c   10.22095831
_cell_angle_alpha   89.56677244
_cell_angle_beta   89.57225614
_cell_angle_gamma   60.39103712
_symmetry_Int_Tables_number   1
_chemical_formula_structural   Al31B5N36
_chemical_formula_sum   'Al31 B5 N36'
_cell_volume   742.74302539
_cell_formula_units_Z   1
loop_
 _symmetry_equiv_pos_site_id
 _symmetry_equiv_pos_as_xyz
  1  'x, y, z'
loop_
 _atom_site_type_symbol
 _atom_site_label
 _atom_site_symmetry_multiplicity
 _atom_site_fract_x
 _atom_site_fract_y
 _atom_site_fract_z
 _atom_site_occupancy
  Al  Al0  1  0.09689841  0.10298940  0.39468637  1
  Al  Al1  1  0.22531546  0.19847358  0.13897728  1
  Al  Al2  1  0.77864330  0.08962386  0.85679925  1
  Al  Al3  1  0.44735002  0.09100664  0.38134973  1
  Al  Al4  1  0.55663754  0.20630147  0.06447836  1
  Al  Al5  1  0.10923777  0.09739959  0.87933251  1
  Al  Al6  1  0.21749950  0.20444524  0.63859100  1
  Al  Al7  1  0.88786688  0.20561609  0.13302649  1
  Al  Al8  1  0.43795333  0.07852168  0.89339347  1
  Al  Al9  1  0.57671445  0.19294651  0.57075679  1
  Al  Al10  1  0.11159343  0.43062823  0.38913366  1
  Al  Al11  1  0.22258506  0.53618847  0.14049233  1
  Al  Al12  1  0.78021490  0.42584356  0.87844558  1
  Al  Al13  1  0.88871101  0.53873574  0.63874104  1
  Al  Al14  1  0.46334523  0.42210064  0.32004679  1
  Al  Al15  1  0.54995038  0.55329820  0.06076556  1
  Al  Al16  1  0.11056101  0.42960042  0.88983965  1
  Al  Al17  1  0.21271379  0.53743807  0.63444869  1
  Al  Al18  1  0.78594818  0.41714053  0.39500730  1
  Al  Al19  1  0.88018763  0.54452240  0.14201612  1
  Al  Al20  1  0.44941760  0.42585428  0.81338100  1
  Al  Al21  1  0.55250500  0.53636098  0.57474543  1
  Al  Al22  1  0.10597263  0.78070738  0.31502881  1
  Al  Al23  1  0.23870921  0.86568269  0.05909967  1
  Al  Al24  1  0.76213656  0.75533321  0.89663635  1
  Al  Al25  1  0.44564374  0.76338432  0.31557719  1
  Al  Al26  1  0.10681607  0.76729624  0.82061522  1
  Al  Al27  1  0.21321012  0.87072322  0.57636036  1
  Al  Al28  1  0.77933238  0.77705663  0.38450905  1
  Al  Al29  1  0.88796854  0.87495108  0.07565075  1
  Al  Al30  1  0.55864568  0.87540702  0.64360977  1
  B  B31  1  0.89715015  0.19639092  0.64929005  1
  B  B32  1  0.78193352  0.09348857  0.34650297  1
  B  B33  1  0.88739759  0.88259130  0.60947843  1
  B  B34  1  0.56052478  0.87498937  0.14691310  1
  B  B35  1  0.43996267  0.75607995  0.80859585  1
  N  N36  1  0.21870869  0.20644353  0.32619191  1
  N  N37  1  0.10838583  0.09977275  0.06827036  1
  N  N38  1  0.89199243  0.20674135  0.80533284  1
  N  N39  1  0.80030107  0.06912984  0.63012598  1
  N  N40  1  0.59248558  0.19323518  0.37676086  1
  N  N41  1  0.45500174  0.06620047  0.08610253  1
  N  N42  1  0.22239084  0.20682410  0.82402177  1
  N  N43  1  0.08035850  0.10982627  0.58662811  1
  N  N44  1  0.87554581  0.19579055  0.32343789  1
  N  N45  1  0.78240926  0.10242166  0.06585543  1
  N  N46  1  0.54475179  0.20793853  0.87461878  1
  N  N47  1  0.43889132  0.08845934  0.56926836  1
  N  N48  1  0.22387865  0.54050786  0.33296848  1
  N  N49  1  0.11035629  0.42890438  0.07738858  1
  N  N50  1  0.88845764  0.54054824  0.82371682  1
  N  N51  1  0.79300997  0.39620338  0.58606628  1
  N  N52  1  0.55381057  0.54847547  0.38746668  1
  N  N53  1  0.45645943  0.42529074  0.13071908  1
  N  N54  1  0.21911445  0.53739767  0.82433789  1
  N  N55  1  0.10788542  0.42536814  0.57327674  1
  N  N56  1  0.88667892  0.54326713  0.33062358  1
  N  N57  1  0.78388155  0.42611667  0.06876222  1
  N  N58  1  0.53886980  0.56511296  0.86925949  1
  N  N59  1  0.44964246  0.41625592  0.62509821  1
  N  N60  1  0.23012472  0.87004138  0.38916795  1
  N  N61  1  0.11586308  0.76836570  0.12593327  1
  N  N62  1  0.89332995  0.85881456  0.88434525  1
  N  N63  1  0.78804781  0.77987400  0.57956364  1
  N  N64  1  0.56507686  0.88000550  0.30862076  1
  N  N65  1  0.45462881  0.77136034  0.13032426  1
  N  N66  1  0.24914555  0.85618377  0.86755498  1
  N  N67  1  0.07603259  0.77903223  0.62729115  1
  N  N68  1  0.87526198  0.91075389  0.34154424  1
  N  N69  1  0.74732186  0.77216492  0.08726934  1
  N  N70  1  0.54396448  0.85926309  0.82739953  1
  N  N71  1  0.43540790  0.75391801  0.64752469  1
