# generated using pymatgen
data_Al31B5N36
_symmetry_space_group_name_H-M   'P 1'
_cell_length_a   9.21149819
_cell_length_b   9.19682087
_cell_length_c   9.99068112
_cell_angle_alpha   90.01193276
_cell_angle_beta   89.94711788
_cell_angle_gamma   60.07740057
_symmetry_Int_Tables_number   1
_chemical_formula_structural   Al31B5N36
_chemical_formula_sum   'Al31 B5 N36'
_cell_volume   733.55318871
_cell_formula_units_Z   1
loop_
 _symmetry_equiv_pos_site_id
 _symmetry_equiv_pos_as_xyz
  1  'x, y, z'
loop_
 _atom_site_type_symbol
 _atom_site_label
 _atom_site_symmetry_multiplicity
 _atom_site_fract_x
 _atom_site_fract_y
 _atom_site_fract_z
 _atom_site_occupancy
  Al  Al0  1  0.10555123  0.08620781  0.32796838  1
  Al  Al1  1  0.22497606  0.20549238  0.13265271  1
  Al  Al2  1  0.78103250  0.08898189  0.82243594  1
  Al  Al3  1  0.46328166  0.08035029  0.33439834  1
  Al  Al4  1  0.56156979  0.20093757  0.07574402  1
  Al  Al5  1  0.10585412  0.09368579  0.81478695  1
  Al  Al6  1  0.21710578  0.20432640  0.59676615  1
  Al  Al7  1  0.88885808  0.20475059  0.07457611  1
  Al  Al8  1  0.44112192  0.09291813  0.81892789  1
  Al  Al9  1  0.57280885  0.19489113  0.56598776  1
  Al  Al10  1  0.10796727  0.43023605  0.38618026  1
  Al  Al11  1  0.22555989  0.54579197  0.07172829  1
  Al  Al12  1  0.77273458  0.43561796  0.88253863  1
  Al  Al13  1  0.89264716  0.53657427  0.64646802  1
  Al  Al14  1  0.45352097  0.42260571  0.32054894  1
  Al  Al15  1  0.54540654  0.55799435  0.06933531  1
  Al  Al16  1  0.10495030  0.42549940  0.89490020  1
  Al  Al17  1  0.22149791  0.54432259  0.57412414  1
  Al  Al18  1  0.78520910  0.41726389  0.39661659  1
  Al  Al19  1  0.87497294  0.54919188  0.14819216  1
  Al  Al20  1  0.44331573  0.43054500  0.82159121  1
  Al  Al21  1  0.55399374  0.53439084  0.57944596  1
  Al  Al22  1  0.11120584  0.76573695  0.31667502  1
  Al  Al23  1  0.23254508  0.87964473  0.06259764  1
  Al  Al24  1  0.75880677  0.76774076  0.89488528  1
  Al  Al25  1  0.45064449  0.76151588  0.33023267  1
  Al  Al26  1  0.10747276  0.76379192  0.82993261  1
  Al  Al27  1  0.21293905  0.87217066  0.57387109  1
  Al  Al28  1  0.78518834  0.77106298  0.39992435  1
  Al  Al29  1  0.88246588  0.88224440  0.10502600  1
  Al  Al30  1  0.55747905  0.86989566  0.60852165  1
  B  B31  1  0.89787962  0.18022732  0.56158998  1
  B  B32  1  0.77995204  0.09074574  0.31695961  1
  B  B33  1  0.89585430  0.87204887  0.61110508  1
  B  B34  1  0.55484424  0.87467508  0.11462549  1
  B  B35  1  0.44102168  0.76223504  0.80944428  1
  N  N36  1  0.22678598  0.20241593  0.34994970  1
  N  N37  1  0.10678936  0.09338729  0.13669192  1
  N  N38  1  0.88860273  0.19994893  0.88312449  1
  N  N39  1  0.80582337  0.06976782  0.62522702  1
  N  N40  1  0.58520101  0.19074113  0.37491188  1
  N  N41  1  0.46496407  0.06464424  0.13414006  1
  N  N42  1  0.21742505  0.20513964  0.85303435  1
  N  N43  1  0.08334125  0.10215748  0.61821344  1
  N  N44  1  0.88358895  0.17921078  0.39528524  1
  N  N45  1  0.77309634  0.11129630  0.15470207  1
  N  N46  1  0.55726180  0.20290113  0.88420395  1
  N  N47  1  0.44442293  0.10231344  0.62522109  1
  N  N48  1  0.22762297  0.54351589  0.38020382  1
  N  N49  1  0.10306230  0.43435888  0.09157893  1
  N  N50  1  0.88578408  0.54556339  0.83317752  1
  N  N51  1  0.79300499  0.39920874  0.59180869  1
  N  N52  1  0.55436864  0.53958276  0.38500955  1
  N  N53  1  0.44624765  0.42981685  0.13060989  1
  N  N54  1  0.22305624  0.54059310  0.87987250  1
  N  N55  1  0.10509149  0.42979486  0.57900953  1
  N  N56  1  0.88345879  0.54418586  0.33687435  1
  N  N57  1  0.77445035  0.43601891  0.08209497  1
  N  N58  1  0.53464764  0.57019601  0.87338779  1
  N  N59  1  0.44662888  0.41948608  0.63221500  1
  N  N60  1  0.22723022  0.86649076  0.38649078  1
  N  N61  1  0.12209976  0.76562620  0.12696841  1
  N  N62  1  0.88731845  0.87603660  0.89837241  1
  N  N63  1  0.80206492  0.77618152  0.59536806  1
  N  N64  1  0.55518369  0.86778350  0.40457204  1
  N  N65  1  0.45674887  0.78260924  0.13538893  1
  N  N66  1  0.24362829  0.86397639  0.86975759  1
  N  N67  1  0.08383989  0.77362001  0.63350931  1
  N  N68  1  0.87728912  0.89365785  0.33295539  1
  N  N69  1  0.74048385  0.77887068  0.09238489  1
  N  N70  1  0.54318054  0.85862187  0.82853727  1
  N  N71  1  0.43379189  0.75468382  0.64693184  1
