# generated using pymatgen
data_Al31B5N36
_symmetry_space_group_name_H-M   'P 1'
_cell_length_a   9.15177464
_cell_length_b   9.14415583
_cell_length_c   10.22165694
_cell_angle_alpha   89.52073387
_cell_angle_beta   89.52283581
_cell_angle_gamma   60.34002186
_symmetry_Int_Tables_number   1
_chemical_formula_structural   Al31B5N36
_chemical_formula_sum   'Al31 B5 N36'
_cell_volume   743.29031184
_cell_formula_units_Z   1
loop_
 _symmetry_equiv_pos_site_id
 _symmetry_equiv_pos_as_xyz
  1  'x, y, z'
loop_
 _atom_site_type_symbol
 _atom_site_label
 _atom_site_symmetry_multiplicity
 _atom_site_fract_x
 _atom_site_fract_y
 _atom_site_fract_z
 _atom_site_occupancy
  Al  Al0  1  0.09737715  0.10323635  0.39432671  1
  Al  Al1  1  0.22561918  0.19857866  0.13869306  1
  Al  Al2  1  0.77765131  0.08770978  0.84232906  1
  Al  Al3  1  0.44766834  0.09091680  0.38076543  1
  Al  Al4  1  0.55846105  0.20557054  0.06357146  1
  Al  Al5  1  0.10896066  0.09756157  0.87984611  1
  Al  Al6  1  0.21835715  0.20444194  0.63870017  1
  Al  Al7  1  0.88776936  0.20562475  0.13352686  1
  Al  Al8  1  0.43823816  0.07849892  0.89350101  1
  Al  Al9  1  0.57566321  0.19233339  0.57051191  1
  Al  Al10  1  0.11203188  0.43059709  0.38903169  1
  Al  Al11  1  0.22250233  0.53641550  0.14059664  1
  Al  Al12  1  0.77997430  0.42627672  0.87960532  1
  Al  Al13  1  0.88931236  0.53898411  0.63914737  1
  Al  Al14  1  0.46385617  0.42181192  0.31975304  1
  Al  Al15  1  0.54964247  0.55338398  0.06117649  1
  Al  Al16  1  0.11072081  0.42943655  0.88998486  1
  Al  Al17  1  0.21317767  0.53716653  0.63440160  1
  Al  Al18  1  0.78646862  0.41716913  0.39454946  1
  Al  Al19  1  0.88034013  0.54472617  0.14189615  1
  Al  Al20  1  0.44952706  0.42585675  0.81383242  1
  Al  Al21  1  0.55233738  0.53626352  0.57492523  1
  Al  Al22  1  0.10580007  0.78094374  0.31545334  1
  Al  Al23  1  0.23827221  0.86589857  0.05947546  1
  Al  Al24  1  0.76201675  0.75549344  0.89668823  1
  Al  Al25  1  0.44581724  0.76345339  0.31579049  1
  Al  Al26  1  0.10685519  0.76702581  0.82077811  1
  Al  Al27  1  0.21186738  0.87128592  0.57673524  1
  Al  Al28  1  0.77956807  0.77666503  0.38440950  1
  Al  Al29  1  0.88756856  0.87622525  0.07380219  1
  Al  Al30  1  0.55811283  0.87490348  0.64344088  1
  B  B31  1  0.89973541  0.20487449  0.64978186  1
  B  B32  1  0.78231072  0.09348475  0.34641169  1
  B  B33  1  0.88599091  0.87935190  0.60931335  1
  B  B34  1  0.56073833  0.87517764  0.14663489  1
  B  B35  1  0.43960959  0.75609901  0.80878626  1
  N  N36  1  0.21901425  0.20663357  0.32590524  1
  N  N37  1  0.10848041  0.10003130  0.06841053  1
  N  N38  1  0.89220342  0.20871419  0.80446442  1
  N  N39  1  0.79548515  0.06480326  0.63489527  1
  N  N40  1  0.59272792  0.19332074  0.37733107  1
  N  N41  1  0.45520294  0.06621841  0.08573633  1
  N  N42  1  0.22247595  0.20668907  0.82407825  1
  N  N43  1  0.07998507  0.11121131  0.58652159  1
  N  N44  1  0.87609964  0.19600839  0.32424340  1
  N  N45  1  0.78226888  0.10195585  0.07090277  1
  N  N46  1  0.54567697  0.20749709  0.87420924  1
  N  N47  1  0.43847319  0.08763885  0.56863233  1
  N  N48  1  0.22420269  0.54063049  0.33316813  1
  N  N49  1  0.11054080  0.42902182  0.07738053  1
  N  N50  1  0.88845128  0.54058947  0.82402489  1
  N  N51  1  0.79407539  0.39626339  0.58629081  1
  N  N52  1  0.55422779  0.54825826  0.38781916  1
  N  N53  1  0.45636436  0.42515312  0.13040493  1
  N  N54  1  0.21912244  0.53729918  0.82433286  1
  N  N55  1  0.10840099  0.42514083  0.57335166  1
  N  N56  1  0.88707732  0.54318856  0.33050048  1
  N  N57  1  0.78378770  0.42640737  0.06931246  1
  N  N58  1  0.53866054  0.56531269  0.86949615  1
  N  N59  1  0.45028004  0.41564968  0.62539992  1
  N  N60  1  0.23012025  0.87030488  0.38965396  1
  N  N61  1  0.11524125  0.76865611  0.12619361  1
  N  N62  1  0.89274033  0.85982817  0.88386039  1
  N  N63  1  0.78779945  0.77695641  0.57941464  1
  N  N64  1  0.56539386  0.87988169  0.30836743  1
  N  N65  1  0.45443479  0.77145635  0.13050627  1
  N  N66  1  0.24864432  0.85632866  0.86763544  1
  N  N67  1  0.07515699  0.77863361  0.62715419  1
  N  N68  1  0.87591274  0.91075192  0.34538702  1
  N  N69  1  0.74762367  0.77216283  0.08703456  1
  N  N70  1  0.54379311  0.85929610  0.82724319  1
  N  N71  1  0.43466126  0.75379031  0.64772324  1
