# generated using pymatgen
data_Al31B5N36
_symmetry_space_group_name_H-M   'P 1'
_cell_length_a   9.17348928
_cell_length_b   9.17035087
_cell_length_c   10.04568039
_cell_angle_alpha   89.44922477
_cell_angle_beta   89.27952020
_cell_angle_gamma   60.01096120
_symmetry_Int_Tables_number   1
_chemical_formula_structural   Al31B5N36
_chemical_formula_sum   'Al31 B5 N36'
_cell_volume   731.88174394
_cell_formula_units_Z   1
loop_
 _symmetry_equiv_pos_site_id
 _symmetry_equiv_pos_as_xyz
  1  'x, y, z'
loop_
 _atom_site_type_symbol
 _atom_site_label
 _atom_site_symmetry_multiplicity
 _atom_site_fract_x
 _atom_site_fract_y
 _atom_site_fract_z
 _atom_site_occupancy
  Al  Al0  1  0.10118238  0.09357897  0.39542781  1
  Al  Al1  1  0.22604391  0.19890776  0.14022818  1
  Al  Al2  1  0.78099124  0.09072985  0.85062502  1
  Al  Al3  1  0.44880194  0.09081931  0.38455805  1
  Al  Al4  1  0.55793168  0.20400296  0.06207134  1
  Al  Al5  1  0.11453161  0.09045430  0.88538545  1
  Al  Al6  1  0.21865453  0.20673480  0.63864030  1
  Al  Al7  1  0.88515117  0.20358736  0.13040673  1
  Al  Al8  1  0.43871925  0.07904466  0.89127903  1
  Al  Al9  1  0.57990936  0.19706568  0.57399402  1
  Al  Al10  1  0.11074852  0.42875217  0.38983682  1
  Al  Al11  1  0.21511288  0.54280889  0.13992770  1
  Al  Al12  1  0.78032550  0.42741258  0.87929579  1
  Al  Al13  1  0.88657748  0.53945439  0.63794181  1
  Al  Al14  1  0.46049014  0.41931143  0.31621977  1
  Al  Al15  1  0.54590349  0.55743728  0.06950654  1
  Al  Al16  1  0.11058053  0.42675054  0.89019877  1
  Al  Al17  1  0.20829887  0.54652546  0.63745181  1
  Al  Al18  1  0.78922859  0.41121032  0.39142352  1
  Al  Al19  1  0.87866657  0.54437088  0.13975311  1
  Al  Al20  1  0.44688537  0.42933090  0.81371703  1
  Al  Al21  1  0.55262742  0.53849082  0.56488298  1
  Al  Al22  1  0.10036379  0.77232776  0.39492352  1
  Al  Al23  1  0.22239483  0.87615091  0.14123503  1
  Al  Al24  1  0.76927260  0.76050096  0.88829291  1
  Al  Al25  1  0.44906796  0.76365889  0.34633316  1
  Al  Al26  1  0.11482597  0.75794606  0.88652286  1
  Al  Al27  1  0.21848882  0.87492936  0.63465177  1
  Al  Al28  1  0.77669097  0.77362730  0.39070464  1
  Al  Al29  1  0.87972551  0.87981936  0.13292862  1
  Al  Al30  1  0.55620108  0.87298235  0.63472366  1
  B  B31  1  0.89635737  0.19486963  0.64805768  1
  B  B32  1  0.78059986  0.09368075  0.34886733  1
  B  B33  1  0.89503868  0.87887967  0.64926431  1
  B  B34  1  0.55662650  0.87427791  0.14748037  1
  B  B35  1  0.44228396  0.75992306  0.84444000  1
  N  N36  1  0.21984929  0.20421773  0.33010988  1
  N  N37  1  0.11034546  0.09519947  0.07393396  1
  N  N38  1  0.89613446  0.20738641  0.80930909  1
  N  N39  1  0.80461110  0.08054644  0.62578377  1
  N  N40  1  0.59229460  0.19037765  0.37303469  1
  N  N41  1  0.45595516  0.06649031  0.08563376  1
  N  N42  1  0.22228538  0.20472020  0.82737166  1
  N  N43  1  0.08673290  0.10595487  0.58686819  1
  N  N44  1  0.87606891  0.18939012  0.32424418  1
  N  N45  1  0.78898450  0.08942044  0.05774586  1
  N  N46  1  0.54567014  0.20809762  0.87066449  1
  N  N47  1  0.44321208  0.09534631  0.57521203  1
  N  N48  1  0.21792447  0.54529705  0.33245962  1
  N  N49  1  0.10954439  0.42704356  0.07991250  1
  N  N50  1  0.88864325  0.54043734  0.82618601  1
  N  N51  1  0.79368032  0.39684398  0.58558735  1
  N  N52  1  0.56073599  0.53373366  0.37411671  1
  N  N53  1  0.45126723  0.42504393  0.12579403  1
  N  N54  1  0.21571188  0.54057261  0.82746760  1
  N  N55  1  0.10874367  0.42807141  0.57649065  1
  N  N56  1  0.88599083  0.54180857  0.33072633  1
  N  N57  1  0.78039181  0.42529448  0.07102219  1
  N  N58  1  0.53466303  0.57142933  0.87034633  1
  N  N59  1  0.44726614  0.42473566  0.62419886  1
  N  N60  1  0.21412899  0.87696567  0.33128099  1
  N  N61  1  0.11043220  0.76300202  0.07584807  1
  N  N62  1  0.89338812  0.85996987  0.81218802  1
  N  N63  1  0.78691526  0.77724601  0.58305915  1
  N  N64  1  0.56581751  0.87953606  0.31017618  1
  N  N65  1  0.45768324  0.77406871  0.13007007  1
  N  N66  1  0.24988367  0.85690641  0.82878158  1
  N  N67  1  0.08468375  0.77731418  0.58682858  1
  N  N68  1  0.87503442  0.90360984  0.32632630  1
  N  N69  1  0.75337017  0.77453670  0.08228327  1
  N  N70  1  0.54001897  0.85398280  0.82697343  1
  N  N71  1  0.44021563  0.77136443  0.57014416  1
