# generated using pymatgen
data_Al31B5N36
_symmetry_space_group_name_H-M   'P 1'
_cell_length_a   9.19834718
_cell_length_b   9.18033668
_cell_length_c   9.95185169
_cell_angle_alpha   90.24112001
_cell_angle_beta   89.93504949
_cell_angle_gamma   59.90361192
_symmetry_Int_Tables_number   1
_chemical_formula_structural   Al31B5N36
_chemical_formula_sum   'Al31 B5 N36'
_cell_volume   727.06526599
_cell_formula_units_Z   1
loop_
 _symmetry_equiv_pos_site_id
 _symmetry_equiv_pos_as_xyz
  1  'x, y, z'
loop_
 _atom_site_type_symbol
 _atom_site_label
 _atom_site_symmetry_multiplicity
 _atom_site_fract_x
 _atom_site_fract_y
 _atom_site_fract_z
 _atom_site_occupancy
  Al  Al0  1  0.10631709  0.09162693  0.33070313  1
  Al  Al1  1  0.22408458  0.20112356  0.07830422  1
  Al  Al2  1  0.78150145  0.08779497  0.82751106  1
  Al  Al3  1  0.45630511  0.08355821  0.33284089  1
  Al  Al4  1  0.56089701  0.20074195  0.08038042  1
  Al  Al5  1  0.10901848  0.09424928  0.82072045  1
  Al  Al6  1  0.21704516  0.20663433  0.57150846  1
  Al  Al7  1  0.88761717  0.20837203  0.07996069  1
  Al  Al8  1  0.44156493  0.09188800  0.82396995  1
  Al  Al9  1  0.57016014  0.19494815  0.57071049  1
  Al  Al10  1  0.11861014  0.42632918  0.32917350  1
  Al  Al11  1  0.22371431  0.54044849  0.07318170  1
  Al  Al12  1  0.77150212  0.42314846  0.82159830  1
  Al  Al13  1  0.88749699  0.54452449  0.63761803  1
  Al  Al14  1  0.45114176  0.42381700  0.32405475  1
  Al  Al15  1  0.55723871  0.54941745  0.07159133  1
  Al  Al16  1  0.11448133  0.42527907  0.82702969  1
  Al  Al17  1  0.21884913  0.54166551  0.57618867  1
  Al  Al18  1  0.77666931  0.41769926  0.33936583  1
  Al  Al19  1  0.87613831  0.55356300  0.15229361  1
  Al  Al20  1  0.44453250  0.43020108  0.82489319  1
  Al  Al21  1  0.55679879  0.53194397  0.57774934  1
  Al  Al22  1  0.10972272  0.76745034  0.32200515  1
  Al  Al23  1  0.23349332  0.87471308  0.06901697  1
  Al  Al24  1  0.75982325  0.76321597  0.89812009  1
  Al  Al25  1  0.44932552  0.76308971  0.33329613  1
  Al  Al26  1  0.10779864  0.76414144  0.83298950  1
  Al  Al27  1  0.21200001  0.87503531  0.57870932  1
  Al  Al28  1  0.78404271  0.77429247  0.40410267  1
  Al  Al29  1  0.88324035  0.88187972  0.10617823  1
  Al  Al30  1  0.55389945  0.87319475  0.61033690  1
  B  B31  1  0.89396545  0.19202897  0.56797377  1
  B  B32  1  0.77753256  0.09158703  0.32125351  1
  B  B33  1  0.89482610  0.87620916  0.61400321  1
  B  B34  1  0.55291449  0.87402574  0.11635418  1
  B  B35  1  0.44320010  0.76156674  0.81361095  1
  N  N36  1  0.22534306  0.20284673  0.38208859  1
  N  N37  1  0.11012430  0.09425212  0.13904577  1
  N  N38  1  0.88716022  0.20375434  0.89015472  1
  N  N39  1  0.80400036  0.07222514  0.63026774  1
  N  N40  1  0.58209871  0.19121327  0.37771915  1
  N  N41  1  0.45977894  0.06582976  0.13491866  1
  N  N42  1  0.22020446  0.20413672  0.88796390  1
  N  N43  1  0.08465672  0.10704180  0.62601870  1
  N  N44  1  0.88105551  0.18990819  0.40184244  1
  N  N45  1  0.77363244  0.10964957  0.15795635  1
  N  N46  1  0.55713056  0.20257160  0.88808898  1
  N  N47  1  0.43850943  0.10522974  0.63384296  1
  N  N48  1  0.22437826  0.54211596  0.38648683  1
  N  N49  1  0.11371953  0.42908236  0.13513678  1
  N  N50  1  0.88154429  0.54428185  0.83622964  1
  N  N51  1  0.78840530  0.39496055  0.62493067  1
  N  N52  1  0.55326552  0.54038460  0.38906926  1
  N  N53  1  0.44614078  0.43061787  0.13283143  1
  N  N54  1  0.22222621  0.53897896  0.88396123  1
  N  N55  1  0.11687302  0.42457918  0.63363911  1
  N  N56  1  0.88575923  0.54737008  0.35142167  1
  N  N57  1  0.77301355  0.42751965  0.14228581  1
  N  N58  1  0.54311132  0.56328628  0.87786172  1
  N  N59  1  0.44591091  0.42130963  0.63455686  1
  N  N60  1  0.22538342  0.86952660  0.38975969  1
  N  N61  1  0.12165184  0.76223461  0.13111442  1
  N  N62  1  0.88746732  0.87453798  0.90223154  1
  N  N63  1  0.79934866  0.78131358  0.59896069  1
  N  N64  1  0.55290519  0.87119520  0.40674313  1
  N  N65  1  0.45897279  0.77861149  0.13750631  1
  N  N66  1  0.24510173  0.86247962  0.87442778  1
  N  N67  1  0.08351431  0.77503415  0.63637437  1
  N  N68  1  0.87672852  0.89721797  0.34046123  1
  N  N69  1  0.74041811  0.77846054  0.09613423  1
  N  N70  1  0.54160045  0.85879750  0.83606731  1
  N  N71  1  0.43608006  0.75312950  0.65060673  1
