# generated using pymatgen
data_Al31B5N36
_symmetry_space_group_name_H-M   'P 1'
_cell_length_a   9.20360189
_cell_length_b   9.25694757
_cell_length_c   9.94961439
_cell_angle_alpha   89.75169547
_cell_angle_beta   89.69260957
_cell_angle_gamma   60.09914352
_symmetry_Int_Tables_number   1
_chemical_formula_structural   Al31B5N36
_chemical_formula_sum   'Al31 B5 N36'
_cell_volume   734.83269903
_cell_formula_units_Z   1
loop_
 _symmetry_equiv_pos_site_id
 _symmetry_equiv_pos_as_xyz
  1  'x, y, z'
loop_
 _atom_site_type_symbol
 _atom_site_label
 _atom_site_symmetry_multiplicity
 _atom_site_fract_x
 _atom_site_fract_y
 _atom_site_fract_z
 _atom_site_occupancy
  Al  Al0  1  0.10902408  0.08807298  0.32408949  1
  Al  Al1  1  0.22760593  0.19469296  0.07977251  1
  Al  Al2  1  0.78236452  0.08770047  0.82324363  1
  Al  Al3  1  0.45709121  0.08137298  0.32968587  1
  Al  Al4  1  0.56136720  0.20178879  0.07639982  1
  Al  Al5  1  0.10738968  0.09286604  0.81628946  1
  Al  Al6  1  0.21771820  0.19948855  0.56817114  1
  Al  Al7  1  0.88588827  0.21021692  0.07088754  1
  Al  Al8  1  0.43970780  0.09350192  0.81963775  1
  Al  Al9  1  0.56975363  0.19562742  0.56550952  1
  Al  Al10  1  0.10942144  0.42998201  0.38200093  1
  Al  Al11  1  0.22769802  0.54317751  0.07524537  1
  Al  Al12  1  0.77087520  0.43694651  0.85138444  1
  Al  Al13  1  0.89412859  0.55274347  0.64887629  1
  Al  Al14  1  0.45774760  0.42239371  0.32057434  1
  Al  Al15  1  0.55177070  0.55585069  0.06420524  1
  Al  Al16  1  0.10274014  0.43155013  0.89616341  1
  Al  Al17  1  0.22304587  0.54037238  0.57439574  1
  Al  Al18  1  0.78830550  0.41998290  0.42016968  1
  Al  Al19  1  0.87632266  0.54434626  0.14962791  1
  Al  Al20  1  0.44352338  0.43053338  0.82189953  1
  Al  Al21  1  0.54454121  0.54822456  0.58511917  1
  Al  Al22  1  0.11157137  0.76499386  0.31717934  1
  Al  Al23  1  0.23225793  0.87624021  0.06593325  1
  Al  Al24  1  0.75753011  0.76860377  0.89930820  1
  Al  Al25  1  0.45399732  0.75758320  0.33059749  1
  Al  Al26  1  0.10782637  0.76356646  0.83215279  1
  Al  Al27  1  0.21325578  0.86939319  0.57265261  1
  Al  Al28  1  0.78371439  0.77085316  0.39882868  1
  Al  Al29  1  0.88229952  0.88227239  0.10706084  1
  Al  Al30  1  0.55538152  0.87162542  0.60942203  1
  B  B31  1  0.91868760  0.13156138  0.55406557  1
  B  B32  1  0.77541485  0.08838703  0.31492959  1
  B  B33  1  0.89769439  0.86825149  0.61156064  1
  B  B34  1  0.55529721  0.87281803  0.11539258  1
  B  B35  1  0.43668878  0.76596149  0.81018898  1
  N  N36  1  0.22667771  0.19727012  0.37455370  1
  N  N37  1  0.10684899  0.09393998  0.13488216  1
  N  N38  1  0.88720805  0.20213868  0.87805778  1
  N  N39  1  0.81085211  0.06302645  0.62240354  1
  N  N40  1  0.58350333  0.18887817  0.37336382  1
  N  N41  1  0.46210979  0.06425571  0.13201130  1
  N  N42  1  0.21972059  0.20004053  0.88299578  1
  N  N43  1  0.08218144  0.09854780  0.61992716  1
  N  N44  1  0.88753637  0.17634778  0.40501816  1
  N  N45  1  0.77397476  0.11154180  0.15435963  1
  N  N46  1  0.55723213  0.20280541  0.88310906  1
  N  N47  1  0.43874244  0.10496230  0.62902056  1
  N  N48  1  0.22940444  0.54259070  0.37945862  1
  N  N49  1  0.10729818  0.43083103  0.09636748  1
  N  N50  1  0.88819949  0.55168190  0.83640832  1
  N  N51  1  0.77091030  0.44983118  0.61246968  1
  N  N52  1  0.55719874  0.53739335  0.38968129  1
  N  N53  1  0.45002077  0.42964311  0.12968617  1
  N  N54  1  0.22402841  0.54091323  0.88117539  1
  N  N55  1  0.10690091  0.42733029  0.58285514  1
  N  N56  1  0.88333518  0.54307450  0.34039947  1
  N  N57  1  0.77723382  0.43596140  0.07831204  1
  N  N58  1  0.53224376  0.57248297  0.86961041  1
  N  N59  1  0.44847951  0.41927755  0.63202982  1
  N  N60  1  0.22685868  0.86695746  0.38441520  1
  N  N61  1  0.12194704  0.76309464  0.12747024  1
  N  N62  1  0.88647453  0.87713760  0.89958716  1
  N  N63  1  0.80058420  0.78209559  0.59498283  1
  N  N64  1  0.55334086  0.86957127  0.40418178  1
  N  N65  1  0.45806594  0.78018329  0.13485353  1
  N  N66  1  0.24182592  0.86526261  0.87258225  1
  N  N67  1  0.08525378  0.77046002  0.63365683  1
  N  N68  1  0.87638772  0.89403714  0.33205561  1
  N  N69  1  0.74132406  0.77826973  0.09664348  1
  N  N70  1  0.54203103  0.85986229  0.83018242  1
  N  N71  1  0.42401433  0.76575304  0.64889773  1
