# generated using pymatgen
data_Al31B5N36
_symmetry_space_group_name_H-M   'P 1'
_cell_length_a   9.17011249
_cell_length_b   9.16600350
_cell_length_c   9.79834576
_cell_angle_alpha   90.05217517
_cell_angle_beta   90.23019200
_cell_angle_gamma   60.05856921
_symmetry_Int_Tables_number   1
_chemical_formula_structural   Al31B5N36
_chemical_formula_sum   'Al31 B5 N36'
_cell_volume   713.65815562
_cell_formula_units_Z   1
loop_
 _symmetry_equiv_pos_site_id
 _symmetry_equiv_pos_as_xyz
  1  'x, y, z'
loop_
 _atom_site_type_symbol
 _atom_site_label
 _atom_site_symmetry_multiplicity
 _atom_site_fract_x
 _atom_site_fract_y
 _atom_site_fract_z
 _atom_site_occupancy
  Al  Al0  1  0.10686717  0.09195845  0.31534010  1
  Al  Al1  1  0.22461692  0.19951828  0.05909206  1
  Al  Al2  1  0.78266032  0.09183871  0.80238752  1
  Al  Al3  1  0.45237759  0.08699516  0.30464798  1
  Al  Al4  1  0.56353962  0.19713020  0.06575613  1
  Al  Al5  1  0.10843090  0.09418865  0.80414592  1
  Al  Al6  1  0.21820055  0.20687855  0.55831639  1
  Al  Al7  1  0.88745240  0.20235911  0.06699502  1
  Al  Al8  1  0.44513943  0.08867754  0.81632089  1
  Al  Al9  1  0.56650265  0.19922485  0.55579979  1
  Al  Al10  1  0.11056527  0.42829346  0.30720133  1
  Al  Al11  1  0.22159385  0.54077452  0.05860339  1
  Al  Al12  1  0.77650082  0.42562156  0.80423359  1
  Al  Al13  1  0.88837086  0.54120104  0.55948482  1
  Al  Al14  1  0.44995898  0.42492380  0.30929003  1
  Al  Al15  1  0.55634599  0.54675574  0.05495068  1
  Al  Al16  1  0.10959549  0.42816085  0.80899870  1
  Al  Al17  1  0.21613087  0.54325891  0.55798554  1
  Al  Al18  1  0.77676875  0.42192043  0.31698506  1
  Al  Al19  1  0.88110787  0.54330524  0.05896993  1
  Al  Al20  1  0.44386641  0.43130615  0.80942983  1
  Al  Al21  1  0.55717097  0.53780327  0.56462505  1
  Al  Al22  1  0.10658434  0.76807558  0.31527061  1
  Al  Al23  1  0.22966318  0.87165182  0.05437265  1
  Al  Al24  1  0.77352351  0.76601831  0.81157623  1
  Al  Al25  1  0.44761292  0.76359288  0.30650700  1
  Al  Al26  1  0.10820489  0.76425333  0.80464143  1
  Al  Al27  1  0.21757503  0.87531020  0.56479291  1
  Al  Al28  1  0.77205352  0.77037947  0.31176225  1
  Al  Al29  1  0.88287108  0.87643883  0.06676099  1
  Al  Al30  1  0.55855019  0.87451043  0.56611012  1
  B  B31  1  0.89024924  0.19177061  0.55061524  1
  B  B32  1  0.77870915  0.09319407  0.31854181  1
  B  B33  1  0.88954336  0.88450768  0.55221089  1
  B  B34  1  0.55227416  0.86788809  0.05437017  1
  B  B35  1  0.44595945  0.76074311  0.81070205  1
  N  N36  1  0.22552191  0.20419563  0.36517831  1
  N  N37  1  0.11119771  0.09170900  0.12195043  1
  N  N38  1  0.88745871  0.20393348  0.87419230  1
  N  N39  1  0.80184785  0.08244737  0.60759386  1
  N  N40  1  0.57946323  0.19223045  0.36136180  1
  N  N41  1  0.45783645  0.06733633  0.10798722  1
  N  N42  1  0.21967553  0.20477087  0.86691652  1
  N  N43  1  0.08425476  0.10741340  0.60815417  1
  N  N44  1  0.87792520  0.19156509  0.38279385  1
  N  N45  1  0.78172309  0.09177562  0.14997045  1
  N  N46  1  0.56140214  0.20346370  0.87034780  1
  N  N47  1  0.44362921  0.09735766  0.62228671  1
  N  N48  1  0.22308181  0.53884050  0.36645466  1
  N  N49  1  0.10986848  0.42779205  0.11509073  1
  N  N50  1  0.88533025  0.54012304  0.86482016  1
  N  N51  1  0.78958226  0.40000119  0.60917158  1
  N  N52  1  0.55312340  0.54330083  0.37180729  1
  N  N53  1  0.44699013  0.42800999  0.11562952  1
  N  N54  1  0.22034802  0.54170729  0.86593324  1
  N  N55  1  0.10983654  0.42840116  0.61785913  1
  N  N56  1  0.88748656  0.54177849  0.36688303  1
  N  N57  1  0.77665434  0.42608250  0.12262195  1
  N  N58  1  0.54488087  0.56278043  0.85995456  1
  N  N59  1  0.44318419  0.42635027  0.61663980  1
  N  N60  1  0.22847281  0.86921420  0.37295237  1
  N  N61  1  0.11135355  0.76359934  0.12087925  1
  N  N62  1  0.88812609  0.87584683  0.87518646  1
  N  N63  1  0.78903455  0.77878017  0.61446187  1
  N  N64  1  0.55448355  0.87214169  0.37651599  1
  N  N65  1  0.45707222  0.77385513  0.11318126  1
  N  N66  1  0.24487638  0.86078800  0.85744363  1
  N  N67  1  0.08412708  0.77610321  0.60857917  1
  N  N68  1  0.87703272  0.89623753  0.38151074  1
  N  N69  1  0.75143460  0.77448160  0.11284776  1
  N  N70  1  0.54496151  0.85948815  0.88000780  1
  N  N71  1  0.44740727  0.76287579  0.64292309  1
