# generated using pymatgen
data_Al31B5N36
_symmetry_space_group_name_H-M   'P 1'
_cell_length_a   9.18256126
_cell_length_b   9.17617463
_cell_length_c   9.91176449
_cell_angle_alpha   90.05236669
_cell_angle_beta   89.85479978
_cell_angle_gamma   59.95701306
_symmetry_Int_Tables_number   1
_chemical_formula_structural   Al31B5N36
_chemical_formula_sum   'Al31 B5 N36'
_cell_volume   722.96296623
_cell_formula_units_Z   1
loop_
 _symmetry_equiv_pos_site_id
 _symmetry_equiv_pos_as_xyz
  1  'x, y, z'
loop_
 _atom_site_type_symbol
 _atom_site_label
 _atom_site_symmetry_multiplicity
 _atom_site_fract_x
 _atom_site_fract_y
 _atom_site_fract_z
 _atom_site_occupancy
  Al  Al0  1  0.10609284  0.09294459  0.31898213  1
  Al  Al1  1  0.22687013  0.19829755  0.06617222  1
  Al  Al2  1  0.78183599  0.09053967  0.80981185  1
  Al  Al3  1  0.45384564  0.08669167  0.32102198  1
  Al  Al4  1  0.56382963  0.19778132  0.07078716  1
  Al  Al5  1  0.10895292  0.09384496  0.80886909  1
  Al  Al6  1  0.21679822  0.20733988  0.56050165  1
  Al  Al7  1  0.88805497  0.20412189  0.06969803  1
  Al  Al8  1  0.44093916  0.09328188  0.81188085  1
  Al  Al9  1  0.56857741  0.19748134  0.55867835  1
  Al  Al10  1  0.11008062  0.43033167  0.31323320  1
  Al  Al11  1  0.22349811  0.54047152  0.06178677  1
  Al  Al12  1  0.77502015  0.42616638  0.80950043  1
  Al  Al13  1  0.89268352  0.53328029  0.56953264  1
  Al  Al14  1  0.44985632  0.42484707  0.31292878  1
  Al  Al15  1  0.55751577  0.54902824  0.05935926  1
  Al  Al16  1  0.10977007  0.42776604  0.81554162  1
  Al  Al17  1  0.21697403  0.54193032  0.56418187  1
  Al  Al18  1  0.77740796  0.42239138  0.32242501  1
  Al  Al19  1  0.88436387  0.53782384  0.06853150  1
  Al  Al20  1  0.44469118  0.43029091  0.81358616  1
  Al  Al21  1  0.55611875  0.53322357  0.56600945  1
  Al  Al22  1  0.10824994  0.76841052  0.31443641  1
  Al  Al23  1  0.23305565  0.87341302  0.05752070  1
  Al  Al24  1  0.75942662  0.76851392  0.87227857  1
  Al  Al25  1  0.44923730  0.76357592  0.31962320  1
  Al  Al26  1  0.10811817  0.76379311  0.81293862  1
  Al  Al27  1  0.21264161  0.87514354  0.56496053  1
  Al  Al28  1  0.77876741  0.77587108  0.38953201  1
  Al  Al29  1  0.88438481  0.87976774  0.07813322  1
  Al  Al30  1  0.55508634  0.87221581  0.59974448  1
  B  B31  1  0.89201802  0.19034207  0.55617795  1
  B  B32  1  0.78069601  0.09359200  0.31939979  1
  B  B33  1  0.89410650  0.87951304  0.57544420  1
  B  B34  1  0.55687122  0.87212489  0.10471814  1
  B  B35  1  0.44211907  0.76094171  0.80089148  1
  N  N36  1  0.22298039  0.20622430  0.36985093  1
  N  N37  1  0.11110403  0.09289156  0.12675681  1
  N  N38  1  0.88666571  0.20411199  0.87871600  1
  N  N39  1  0.80301147  0.07859438  0.61508004  1
  N  N40  1  0.58115260  0.19308136  0.36624011  1
  N  N41  1  0.46081274  0.06506462  0.12318123  1
  N  N42  1  0.22034265  0.20408885  0.87538835  1
  N  N43  1  0.08413346  0.10701983  0.61336641  1
  N  N44  1  0.87859423  0.19350833  0.38880744  1
  N  N45  1  0.77986394  0.09800761  0.15178383  1
  N  N46  1  0.55895099  0.20154766  0.87677827  1
  N  N47  1  0.43860864  0.10569354  0.62124142  1
  N  N48  1  0.22215085  0.54083662  0.37320646  1
  N  N49  1  0.11201534  0.42823157  0.12258191  1
  N  N50  1  0.88716669  0.53521816  0.87411873  1
  N  N51  1  0.78802956  0.39960442  0.61613340  1
  N  N52  1  0.55367918  0.54087744  0.37591615  1
  N  N53  1  0.44734380  0.42940592  0.12055585  1
  N  N54  1  0.22102829  0.54030477  0.87147669  1
  N  N55  1  0.11146095  0.42650375  0.62631730  1
  N  N56  1  0.88860881  0.53903819  0.37579800  1
  N  N57  1  0.77633700  0.42664242  0.12981371  1
  N  N58  1  0.54389933  0.56335629  0.86494321  1
  N  N59  1  0.44429668  0.42262335  0.62248629  1
  N  N60  1  0.22620899  0.87046313  0.37578535  1
  N  N61  1  0.11603486  0.76313920  0.12239133  1
  N  N62  1  0.88816415  0.87595270  0.88359940  1
  N  N63  1  0.79731577  0.77795828  0.59041325  1
  N  N64  1  0.55008052  0.87383110  0.39290622  1
  N  N65  1  0.46027471  0.77752405  0.12389295  1
  N  N66  1  0.24442261  0.86139466  0.86212704  1
  N  N67  1  0.08370220  0.77543235  0.61821523  1
  N  N68  1  0.88138373  0.90332895  0.36759778  1
  N  N69  1  0.74349179  0.77868253  0.08625853  1
  N  N70  1  0.53994727  0.85950251  0.82222642  1
  N  N71  1  0.43491630  0.75378630  0.63777149  1
