# generated using pymatgen
data_Al31B5N36
_symmetry_space_group_name_H-M   'P 1'
_cell_length_a   9.14639408
_cell_length_b   9.19208847
_cell_length_c   10.19202581
_cell_angle_alpha   89.58092744
_cell_angle_beta   89.38677766
_cell_angle_gamma   60.01189851
_symmetry_Int_Tables_number   1
_chemical_formula_structural   Al31B5N36
_chemical_formula_sum   'Al31 B5 N36'
_cell_volume   742.13227228
_cell_formula_units_Z   1
loop_
 _symmetry_equiv_pos_site_id
 _symmetry_equiv_pos_as_xyz
  1  'x, y, z'
loop_
 _atom_site_type_symbol
 _atom_site_label
 _atom_site_symmetry_multiplicity
 _atom_site_fract_x
 _atom_site_fract_y
 _atom_site_fract_z
 _atom_site_occupancy
  Al  Al0  1  0.09668043  0.10355997  0.39376359  1
  Al  Al1  1  0.22216679  0.19797197  0.13637297  1
  Al  Al2  1  0.77830562  0.08482918  0.80959198  1
  Al  Al3  1  0.44672236  0.09063888  0.37454410  1
  Al  Al4  1  0.55872640  0.20432165  0.07472689  1
  Al  Al5  1  0.11248529  0.09602437  0.87602114  1
  Al  Al6  1  0.22604311  0.20574644  0.63700950  1
  Al  Al7  1  0.88715155  0.20817665  0.13964349  1
  Al  Al8  1  0.44591443  0.07985416  0.89425413  1
  Al  Al9  1  0.57471546  0.18889947  0.55947647  1
  Al  Al10  1  0.10997900  0.42648637  0.38369899  1
  Al  Al11  1  0.22595453  0.54297751  0.07092464  1
  Al  Al12  1  0.77774860  0.43295750  0.87755687  1
  Al  Al13  1  0.89526847  0.54184962  0.63858569  1
  Al  Al14  1  0.45506935  0.42625580  0.31863369  1
  Al  Al15  1  0.54714146  0.55455879  0.06078209  1
  Al  Al16  1  0.11006350  0.42560040  0.88917012  1
  Al  Al17  1  0.22300646  0.54290881  0.56731408  1
  Al  Al18  1  0.78705489  0.41687394  0.39274348  1
  Al  Al19  1  0.87981134  0.54157019  0.13969651  1
  Al  Al20  1  0.44632810  0.42790560  0.81707551  1
  Al  Al21  1  0.55315156  0.53646211  0.57832291  1
  Al  Al22  1  0.10821352  0.77326646  0.31854112  1
  Al  Al23  1  0.23566209  0.86623740  0.05917673  1
  Al  Al24  1  0.76472611  0.76315642  0.89783123  1
  Al  Al25  1  0.44427387  0.76276491  0.31826732  1
  Al  Al26  1  0.10815490  0.76198154  0.82158448  1
  Al  Al27  1  0.20691887  0.87491885  0.58088487  1
  Al  Al28  1  0.78065712  0.77245658  0.37946530  1
  Al  Al29  1  0.88552189  0.87636268  0.08824623  1
  Al  Al30  1  0.56004015  0.87447200  0.64005367  1
  B  B31  1  0.91511629  0.23542591  0.65193755  1
  B  B32  1  0.77550843  0.08949839  0.30678772  1
  B  B33  1  0.88065882  0.86499321  0.59942378  1
  B  B34  1  0.55906327  0.87282315  0.14650378  1
  B  B35  1  0.43950688  0.75765421  0.80712691  1
  N  N36  1  0.21811568  0.20477065  0.32232892  1
  N  N37  1  0.10247790  0.09965255  0.06405094  1
  N  N38  1  0.89277800  0.21532498  0.79843136  1
  N  N39  1  0.77754522  0.04037000  0.63388630  1
  N  N40  1  0.58464755  0.19632642  0.37010510  1
  N  N41  1  0.45333515  0.06559470  0.08477250  1
  N  N42  1  0.22864087  0.20601500  0.82304905  1
  N  N43  1  0.08091372  0.11751819  0.58783153  1
  N  N44  1  0.88039661  0.20020878  0.32532776  1
  N  N45  1  0.76796061  0.09473411  0.14760686  1
  N  N46  1  0.56199157  0.20753756  0.88578023  1
  N  N47  1  0.43828422  0.08426146  0.56235391  1
  N  N48  1  0.22708902  0.54564080  0.37822728  1
  N  N49  1  0.10736704  0.42498962  0.07845914  1
  N  N50  1  0.89016269  0.54646816  0.82403154  1
  N  N51  1  0.79814870  0.40330401  0.58753657  1
  N  N52  1  0.55377746  0.54641879  0.39005717  1
  N  N53  1  0.44784211  0.43100528  0.13128368  1
  N  N54  1  0.22666478  0.54209954  0.87996867  1
  N  N55  1  0.11147120  0.42217117  0.57341970  1
  N  N56  1  0.88657276  0.54084724  0.32635825  1
  N  N57  1  0.78134458  0.42269873  0.06602236  1
  N  N58  1  0.53863820  0.56867492  0.86725180  1
  N  N59  1  0.44944790  0.41401479  0.63039246  1
  N  N60  1  0.22755530  0.87110864  0.39304303  1
  N  N61  1  0.11912512  0.76303384  0.13063433  1
  N  N62  1  0.89206389  0.87837006  0.89684729  1
  N  N63  1  0.78823881  0.76270152  0.57188959  1
  N  N64  1  0.56442306  0.87757789  0.30588284  1
  N  N65  1  0.45211035  0.77161267  0.13079240  1
  N  N66  1  0.24869612  0.85715674  0.86496631  1
  N  N67  1  0.07617781  0.76984201  0.63132232  1
  N  N68  1  0.87887730  0.90249961  0.34912037  1
  N  N69  1  0.74760636  0.76942043  0.08632267  1
  N  N70  1  0.54755791  0.86247662  0.82486711  1
  N  N71  1  0.43377103  0.75562643  0.64773409  1
