# generated using pymatgen
data_Al31B5N36
_symmetry_space_group_name_H-M   'P 1'
_cell_length_a   9.18698950
_cell_length_b   9.18378035
_cell_length_c   9.86194786
_cell_angle_alpha   89.84683562
_cell_angle_beta   89.83636036
_cell_angle_gamma   59.93903969
_symmetry_Int_Tables_number   1
_chemical_formula_structural   Al31B5N36
_chemical_formula_sum   'Al31 B5 N36'
_cell_volume   720.14295822
_cell_formula_units_Z   1
loop_
 _symmetry_equiv_pos_site_id
 _symmetry_equiv_pos_as_xyz
  1  'x, y, z'
loop_
 _atom_site_type_symbol
 _atom_site_label
 _atom_site_symmetry_multiplicity
 _atom_site_fract_x
 _atom_site_fract_y
 _atom_site_fract_z
 _atom_site_occupancy
  Al  Al0  1  0.10634546  0.09339539  0.31934895  1
  Al  Al1  1  0.22683101  0.19832069  0.06667934  1
  Al  Al2  1  0.78212195  0.09105533  0.80863959  1
  Al  Al3  1  0.45345934  0.08759609  0.32087197  1
  Al  Al4  1  0.56512675  0.19630774  0.07256175  1
  Al  Al5  1  0.10913557  0.09352843  0.80964208  1
  Al  Al6  1  0.21671104  0.20807256  0.56149807  1
  Al  Al7  1  0.88832199  0.20256857  0.07169455  1
  Al  Al8  1  0.44231593  0.09128323  0.81420306  1
  Al  Al9  1  0.56720265  0.19950889  0.56037455  1
  Al  Al10  1  0.11017405  0.43007392  0.31244613  1
  Al  Al11  1  0.22246980  0.54109533  0.06267970  1
  Al  Al12  1  0.77505333  0.42498826  0.81060646  1
  Al  Al13  1  0.89241809  0.53232033  0.56993808  1
  Al  Al14  1  0.45010826  0.42508727  0.31320031  1
  Al  Al15  1  0.55756456  0.54934397  0.05934105  1
  Al  Al16  1  0.11099994  0.42670933  0.81618357  1
  Al  Al17  1  0.21649513  0.54288048  0.56419221  1
  Al  Al18  1  0.77702958  0.42279274  0.32163972  1
  Al  Al19  1  0.88061325  0.54360818  0.06676939  1
  Al  Al20  1  0.44443226  0.43027273  0.81480662  1
  Al  Al21  1  0.55583948  0.53390623  0.56690713  1
  Al  Al22  1  0.10822547  0.76807277  0.31715751  1
  Al  Al23  1  0.23247880  0.87295691  0.05852336  1
  Al  Al24  1  0.76978022  0.76445357  0.82950738  1
  Al  Al25  1  0.44875442  0.76384903  0.31884045  1
  Al  Al26  1  0.10821320  0.76431934  0.81011412  1
  Al  Al27  1  0.21309947  0.87582002  0.56547137  1
  Al  Al28  1  0.77651814  0.77265076  0.38050841  1
  Al  Al29  1  0.88182823  0.87707442  0.07418174  1
  Al  Al30  1  0.55165085  0.87383561  0.59607386  1
  B  B31  1  0.89018181  0.19269531  0.55714236  1
  B  B32  1  0.78046397  0.09547341  0.32427321  1
  B  B33  1  0.89436435  0.88612485  0.55946799  1
  B  B34  1  0.56044467  0.87042788  0.10584135  1
  B  B35  1  0.44288843  0.76078554  0.80200509  1
  N  N36  1  0.22307127  0.20637354  0.36996585  1
  N  N37  1  0.11160154  0.09234044  0.12706923  1
  N  N38  1  0.88700692  0.20288528  0.87989855  1
  N  N39  1  0.80211442  0.08279283  0.61428968  1
  N  N40  1  0.58146400  0.19318981  0.36738179  1
  N  N41  1  0.46089618  0.06513297  0.12339876  1
  N  N42  1  0.22077220  0.20336231  0.87538931  1
  N  N43  1  0.08405039  0.10771680  0.61355201  1
  N  N44  1  0.87804891  0.19386931  0.38862726  1
  N  N45  1  0.78283261  0.09267818  0.15587658  1
  N  N46  1  0.55997684  0.20102915  0.87738692  1
  N  N47  1  0.43872377  0.10593971  0.62210834  1
  N  N48  1  0.22269467  0.53976992  0.37257440  1
  N  N49  1  0.11053017  0.42860931  0.12132412  1
  N  N50  1  0.88646931  0.53659372  0.87174973  1
  N  N51  1  0.78803487  0.39910112  0.61632171  1
  N  N52  1  0.55372223  0.54127441  0.37592485  1
  N  N53  1  0.44766416  0.42890570  0.12035599  1
  N  N54  1  0.22032489  0.54131207  0.87133459  1
  N  N55  1  0.11155330  0.42691519  0.62618214  1
  N  N56  1  0.88929339  0.53779916  0.37669025  1
  N  N57  1  0.77694431  0.42614414  0.12860361  1
  N  N58  1  0.54401440  0.56270661  0.86472081  1
  N  N59  1  0.44337717  0.42390479  0.62291944  1
  N  N60  1  0.22615567  0.87087181  0.37548193  1
  N  N61  1  0.11261281  0.76407521  0.12438910  1
  N  N62  1  0.88728157  0.87467147  0.88059097  1
  N  N63  1  0.79422691  0.77573657  0.60175547  1
  N  N64  1  0.54891988  0.87463107  0.39410284  1
  N  N65  1  0.46053362  0.77719821  0.12356096  1
  N  N66  1  0.24402939  0.86090166  0.86234071  1
  N  N67  1  0.08354794  0.77652243  0.61499486  1
  N  N68  1  0.88258249  0.90204727  0.38800584  1
  N  N69  1  0.74658750  0.77759251  0.10595275  1
  N  N70  1  0.54043129  0.85828488  0.82630296  1
  N  N71  1  0.43498375  0.75443237  0.63808591  1
