# generated using pymatgen
data_Al31B5N36
_symmetry_space_group_name_H-M   'P 1'
_cell_length_a   9.15673733
_cell_length_b   9.20049309
_cell_length_c   10.18195941
_cell_angle_alpha   89.64126483
_cell_angle_beta   89.45098288
_cell_angle_gamma   60.10363033
_symmetry_Int_Tables_number   1
_chemical_formula_structural   Al31B5N36
_chemical_formula_sum   'Al31 B5 N36'
_cell_volume   743.61106213
_cell_formula_units_Z   1
loop_
 _symmetry_equiv_pos_site_id
 _symmetry_equiv_pos_as_xyz
  1  'x, y, z'
loop_
 _atom_site_type_symbol
 _atom_site_label
 _atom_site_symmetry_multiplicity
 _atom_site_fract_x
 _atom_site_fract_y
 _atom_site_fract_z
 _atom_site_occupancy
  Al  Al0  1  0.09661083  0.10463488  0.39334631  1
  Al  Al1  1  0.22219574  0.19767683  0.13577918  1
  Al  Al2  1  0.77759744  0.08492370  0.80835584  1
  Al  Al3  1  0.44592027  0.09045085  0.37385731  1
  Al  Al4  1  0.55923240  0.20370816  0.07404783  1
  Al  Al5  1  0.11204277  0.09717881  0.87607912  1
  Al  Al6  1  0.22589503  0.20503309  0.63709490  1
  Al  Al7  1  0.88695045  0.20791499  0.13947509  1
  Al  Al8  1  0.44515757  0.07982684  0.89380176  1
  Al  Al9  1  0.57572704  0.18750964  0.55791632  1
  Al  Al10  1  0.11199528  0.42861677  0.38631536  1
  Al  Al11  1  0.22068328  0.53779143  0.13910659  1
  Al  Al12  1  0.77862982  0.43267088  0.87764398  1
  Al  Al13  1  0.89433650  0.54215386  0.63856042  1
  Al  Al14  1  0.46206920  0.42236934  0.32051808  1
  Al  Al15  1  0.54659083  0.55445144  0.05978510  1
  Al  Al16  1  0.11374673  0.42978008  0.88892787  1
  Al  Al17  1  0.21945945  0.53697327  0.62645748  1
  Al  Al18  1  0.78831840  0.41694995  0.39230253  1
  Al  Al19  1  0.87932128  0.54176187  0.13903538  1
  Al  Al20  1  0.45268781  0.42466158  0.81632854  1
  Al  Al21  1  0.55386107  0.53660703  0.57692019  1
  Al  Al22  1  0.10442286  0.77955789  0.32087133  1
  Al  Al23  1  0.23558967  0.86592534  0.05827500  1
  Al  Al24  1  0.76431244  0.76251876  0.89701848  1
  Al  Al25  1  0.44420718  0.76267431  0.31728686  1
  Al  Al26  1  0.10513830  0.76772471  0.82155964  1
  Al  Al27  1  0.20711785  0.87472731  0.57953838  1
  Al  Al28  1  0.78027076  0.77182577  0.37928392  1
  Al  Al29  1  0.88496988  0.87678898  0.08616533  1
  Al  Al30  1  0.55991589  0.87446690  0.63954538  1
  B  B31  1  0.91507653  0.23552995  0.65157453  1
  B  B32  1  0.77489640  0.08903684  0.30651672  1
  B  B33  1  0.88027877  0.86690050  0.59611705  1
  B  B34  1  0.55889541  0.87270146  0.14617189  1
  B  B35  1  0.43932202  0.75772120  0.80661424  1
  N  N36  1  0.21726546  0.20597101  0.32229930  1
  N  N37  1  0.10227521  0.10010959  0.06404306  1
  N  N38  1  0.89240086  0.21519660  0.79817507  1
  N  N39  1  0.77647950  0.04107499  0.63297239  1
  N  N40  1  0.58546452  0.19418146  0.36922886  1
  N  N41  1  0.45317337  0.06550319  0.08465510  1
  N  N42  1  0.22785809  0.20675671  0.82372789  1
  N  N43  1  0.08088490  0.11810095  0.58749982  1
  N  N44  1  0.88016492  0.20025531  0.32534135  1
  N  N45  1  0.76830837  0.09385657  0.14723221  1
  N  N46  1  0.56221669  0.20652702  0.88564255  1
  N  N47  1  0.43767358  0.08416963  0.56203354  1
  N  N48  1  0.22389065  0.54132501  0.33873785  1
  N  N49  1  0.11032681  0.42786163  0.07654973  1
  N  N50  1  0.89047769  0.54579791  0.82469368  1
  N  N51  1  0.79933020  0.40354027  0.58709421  1
  N  N52  1  0.55484625  0.54701635  0.38954146  1
  N  N53  1  0.45380328  0.42803434  0.12986252  1
  N  N54  1  0.22179865  0.53832353  0.82636040  1
  N  N55  1  0.11300510  0.42367853  0.57254278  1
  N  N56  1  0.88779086  0.54025568  0.32623184  1
  N  N57  1  0.78168335  0.42254649  0.06600198  1
  N  N58  1  0.53863870  0.56864642  0.86729792  1
  N  N59  1  0.45860783  0.40859192  0.62657584  1
  N  N60  1  0.22811562  0.87188971  0.39250999  1
  N  N61  1  0.11578161  0.76852935  0.12879526  1
  N  N62  1  0.89057998  0.87881383  0.89592069  1
  N  N63  1  0.78764944  0.76262729  0.57157542  1
  N  N64  1  0.56424328  0.87735887  0.30554279  1
  N  N65  1  0.45186396  0.77135630  0.12994142  1
  N  N66  1  0.24849925  0.85753818  0.86499469  1
  N  N67  1  0.07228438  0.77666936  0.62676390  1
  N  N68  1  0.87682987  0.90378647  0.35112148  1
  N  N69  1  0.74740575  0.76943426  0.08595857  1
  N  N70  1  0.54696890  0.86232617  0.82460250  1
  N  N71  1  0.43329747  0.75511889  0.64743324  1
