# generated using pymatgen
data_Al31B5N36
_symmetry_space_group_name_H-M   'P 1'
_cell_length_a   9.20713965
_cell_length_b   9.18025119
_cell_length_c   10.04422980
_cell_angle_alpha   89.95861169
_cell_angle_beta   89.90874397
_cell_angle_gamma   60.12400776
_symmetry_Int_Tables_number   1
_chemical_formula_structural   Al31B5N36
_chemical_formula_sum   'Al31 B5 N36'
_cell_volume   736.15174680
_cell_formula_units_Z   1
loop_
 _symmetry_equiv_pos_site_id
 _symmetry_equiv_pos_as_xyz
  1  'x, y, z'
loop_
 _atom_site_type_symbol
 _atom_site_label
 _atom_site_symmetry_multiplicity
 _atom_site_fract_x
 _atom_site_fract_y
 _atom_site_fract_z
 _atom_site_occupancy
  Al  Al0  1  0.10470922  0.08612546  0.32389498  1
  Al  Al1  1  0.23191941  0.20203124  0.14266963  1
  Al  Al2  1  0.78312365  0.08913282  0.81891865  1
  Al  Al3  1  0.45080032  0.08734778  0.38813724  1
  Al  Al4  1  0.56056914  0.19883469  0.07092279  1
  Al  Al5  1  0.10363731  0.09023536  0.81117615  1
  Al  Al6  1  0.21194729  0.21468608  0.62914299  1
  Al  Al7  1  0.88885390  0.20419284  0.07254636  1
  Al  Al8  1  0.44589097  0.08947692  0.82902057  1
  Al  Al9  1  0.57803370  0.20009108  0.56637779  1
  Al  Al10  1  0.10861056  0.42646238  0.38628654  1
  Al  Al11  1  0.22537810  0.54333734  0.06739565  1
  Al  Al12  1  0.77262307  0.43667637  0.88109214  1
  Al  Al13  1  0.89086114  0.53897523  0.64219322  1
  Al  Al14  1  0.45366760  0.41972711  0.31584730  1
  Al  Al15  1  0.54459517  0.55799407  0.06662679  1
  Al  Al16  1  0.10567430  0.42400875  0.89034750  1
  Al  Al17  1  0.22108994  0.54588805  0.56923278  1
  Al  Al18  1  0.78482070  0.41735460  0.39233671  1
  Al  Al19  1  0.87705709  0.54686573  0.14350282  1
  Al  Al20  1  0.44338372  0.43360823  0.81718880  1
  Al  Al21  1  0.55269048  0.53700596  0.57310908  1
  Al  Al22  1  0.11172212  0.76410937  0.31263481  1
  Al  Al23  1  0.23246480  0.87923841  0.06078264  1
  Al  Al24  1  0.76161659  0.76661858  0.89174473  1
  Al  Al25  1  0.45066531  0.76076311  0.32407795  1
  Al  Al26  1  0.10838017  0.76327525  0.82618694  1
  Al  Al27  1  0.21229816  0.87484049  0.56887370  1
  Al  Al28  1  0.78554944  0.76967326  0.39512485  1
  Al  Al29  1  0.88144274  0.88144304  0.10346281  1
  Al  Al30  1  0.55927067  0.86723554  0.60901084  1
  B  B31  1  0.89975837  0.18060340  0.55778776  1
  B  B32  1  0.77795252  0.08936500  0.31358146  1
  B  B33  1  0.89680829  0.87208023  0.60830955  1
  B  B34  1  0.55198800  0.87802759  0.10685986  1
  B  B35  1  0.44088609  0.76132947  0.80476576  1
  N  N36  1  0.22744739  0.20341781  0.33539723  1
  N  N37  1  0.10691925  0.09351019  0.13258583  1
  N  N38  1  0.88959037  0.20061023  0.88132353  1
  N  N39  1  0.80766502  0.07003398  0.62322739  1
  N  N40  1  0.58623325  0.18961630  0.37463766  1
  N  N41  1  0.46075160  0.06349446  0.10122000  1
  N  N42  1  0.21654258  0.20979403  0.82153033  1
  N  N43  1  0.08219745  0.10359295  0.61559674  1
  N  N44  1  0.88402781  0.17906134  0.39237328  1
  N  N45  1  0.77121535  0.11128954  0.15163295  1
  N  N46  1  0.55889452  0.20572482  0.87680941  1
  N  N47  1  0.44286445  0.10355746  0.60037973  1
  N  N48  1  0.22776523  0.54157932  0.37678994  1
  N  N49  1  0.10561307  0.42710576  0.08256561  1
  N  N50  1  0.88663778  0.54482534  0.82852087  1
  N  N51  1  0.79160599  0.40196781  0.58675452  1
  N  N52  1  0.55359326  0.53832056  0.38001413  1
  N  N53  1  0.44593658  0.42806793  0.12647648  1
  N  N54  1  0.22369132  0.53991266  0.87604967  1
  N  N55  1  0.10396962  0.43118442  0.57520401  1
  N  N56  1  0.88583220  0.54195313  0.33168465  1
  N  N57  1  0.77363565  0.43581553  0.07821689  1
  N  N58  1  0.53481768  0.57213041  0.87051965  1
  N  N59  1  0.44559436  0.42270678  0.62941448  1
  N  N60  1  0.22718389  0.86626342  0.38250729  1
  N  N61  1  0.12187450  0.76342918  0.12350582  1
  N  N62  1  0.88853679  0.87648374  0.89456163  1
  N  N63  1  0.80280140  0.77715054  0.59111795  1
  N  N64  1  0.55774428  0.85989295  0.40302903  1
  N  N65  1  0.45618076  0.78188467  0.13189097  1
  N  N66  1  0.24515836  0.86439302  0.86780945  1
  N  N67  1  0.08466133  0.77436572  0.63033100  1
  N  N68  1  0.87763506  0.89235843  0.32822292  1
  N  N69  1  0.74087325  0.77695610  0.08676210  1
  N  N70  1  0.54722183  0.85828482  0.81741495  1
  N  N71  1  0.43147177  0.75523057  0.64408402  1
