# generated using pymatgen
data_Al31B5N36
_symmetry_space_group_name_H-M   'P 1'
_cell_length_a   9.19825457
_cell_length_b   9.18032931
_cell_length_c   9.95192900
_cell_angle_alpha   90.23990940
_cell_angle_beta   89.93543404
_cell_angle_gamma   59.90341604
_symmetry_Int_Tables_number   1
_chemical_formula_structural   Al31B5N36
_chemical_formula_sum   'Al31 B5 N36'
_cell_volume   727.06168799
_cell_formula_units_Z   1
loop_
 _symmetry_equiv_pos_site_id
 _symmetry_equiv_pos_as_xyz
  1  'x, y, z'
loop_
 _atom_site_type_symbol
 _atom_site_label
 _atom_site_symmetry_multiplicity
 _atom_site_fract_x
 _atom_site_fract_y
 _atom_site_fract_z
 _atom_site_occupancy
  Al  Al0  1  0.10632453  0.09161821  0.32717190  1
  Al  Al1  1  0.22410032  0.20110596  0.07478958  1
  Al  Al2  1  0.78150856  0.08776907  0.82396575  1
  Al  Al3  1  0.45631042  0.08355446  0.32931894  1
  Al  Al4  1  0.56092588  0.20071388  0.07687717  1
  Al  Al5  1  0.10903674  0.09420466  0.81721149  1
  Al  Al6  1  0.21704695  0.20660499  0.56799131  1
  Al  Al7  1  0.88762820  0.20834650  0.07645488  1
  Al  Al8  1  0.44158421  0.09184548  0.82046162  1
  Al  Al9  1  0.57015123  0.19493684  0.56718935  1
  Al  Al10  1  0.11861692  0.42631813  0.32566834  1
  Al  Al11  1  0.22371533  0.54042911  0.06966286  1
  Al  Al12  1  0.77151560  0.42309485  0.81807939  1
  Al  Al13  1  0.88749482  0.54449205  0.63410060  1
  Al  Al14  1  0.45114298  0.42381823  0.32053222  1
  Al  Al15  1  0.55726290  0.54939188  0.06807623  1
  Al  Al16  1  0.11450186  0.42522833  0.82350749  1
  Al  Al17  1  0.21884870  0.54164131  0.57266479  1
  Al  Al18  1  0.77667532  0.41769013  0.33588043  1
  Al  Al19  1  0.87614307  0.55354628  0.14880115  1
  Al  Al20  1  0.44454357  0.43015971  0.82138734  1
  Al  Al21  1  0.55679146  0.53192622  0.57424610  1
  Al  Al22  1  0.10969099  0.76746098  0.31849386  1
  Al  Al23  1  0.23350644  0.87468652  0.06550618  1
  Al  Al24  1  0.75983744  0.76314681  0.89457212  1
  Al  Al25  1  0.44933484  0.76307734  0.32977375  1
  Al  Al26  1  0.10782067  0.76409597  0.82942132  1
  Al  Al27  1  0.21200000  0.87501467  0.57516748  1
  Al  Al28  1  0.78403510  0.77428664  0.40061372  1
  Al  Al29  1  0.88326693  0.88185776  0.10248856  1
  Al  Al30  1  0.55389151  0.87317266  0.60681829  1
  B  B31  1  0.89396817  0.19199324  0.56445582  1
  B  B32  1  0.77756545  0.09154955  0.31777787  1
  B  B33  1  0.89481599  0.87619444  0.61041519  1
  B  B34  1  0.55293256  0.87401240  0.11282990  1
  B  B35  1  0.44320023  0.76153249  0.81010248  1
  N  N36  1  0.22534820  0.20283374  0.37857273  1
  N  N37  1  0.11014485  0.09422792  0.13552089  1
  N  N38  1  0.88717477  0.20370408  0.88664655  1
  N  N39  1  0.80399976  0.07221514  0.62673780  1
  N  N40  1  0.58209347  0.19121869  0.37420051  1
  N  N41  1  0.45979959  0.06580944  0.13140458  1
  N  N42  1  0.22022481  0.20409411  0.88445177  1
  N  N43  1  0.08466443  0.10700714  0.62250877  1
  N  N44  1  0.88107129  0.18989807  0.39833178  1
  N  N45  1  0.77368774  0.10955429  0.15445270  1
  N  N46  1  0.55715317  0.20252713  0.88458202  1
  N  N47  1  0.43851432  0.10520404  0.63033637  1
  N  N48  1  0.22438017  0.54211274  0.38296502  1
  N  N49  1  0.11372651  0.42906306  0.13163108  1
  N  N50  1  0.88156511  0.54421830  0.83271570  1
  N  N51  1  0.78840194  0.39493581  0.62141598  1
  N  N52  1  0.55326244  0.54038084  0.38556647  1
  N  N53  1  0.44615203  0.43060185  0.12930836  1
  N  N54  1  0.22222777  0.53894789  0.88044252  1
  N  N55  1  0.11687909  0.42455083  0.63011592  1
  N  N56  1  0.88576167  0.54736895  0.34792214  1
  N  N57  1  0.77302934  0.42749212  0.13879567  1
  N  N58  1  0.54312666  0.56324298  0.87434877  1
  N  N59  1  0.44590420  0.42128807  0.63105135  1
  N  N60  1  0.22539105  0.86951435  0.38622094  1
  N  N61  1  0.12162261  0.76222719  0.12759972  1
  N  N62  1  0.88747943  0.87448541  0.89865930  1
  N  N63  1  0.79933062  0.78128322  0.59547326  1
  N  N64  1  0.55289755  0.87119508  0.40322918  1
  N  N65  1  0.45900052  0.77858775  0.13398565  1
  N  N66  1  0.24511070  0.86243087  0.87091822  1
  N  N67  1  0.08351583  0.77500956  0.63282811  1
  N  N68  1  0.87674610  0.89724850  0.33714467  1
  N  N69  1  0.74045278  0.77843974  0.09260549  1
  N  N70  1  0.54159772  0.85875768  0.83257348  1
  N  N71  1  0.43607230  0.75311118  0.64709638  1
