# generated using pymatgen
data_Al31B5N36
_symmetry_space_group_name_H-M   'P 1'
_cell_length_a   9.17011168
_cell_length_b   9.16600109
_cell_length_c   9.79834460
_cell_angle_alpha   90.05216051
_cell_angle_beta   90.23017167
_cell_angle_gamma   60.05857511
_symmetry_Int_Tables_number   1
_chemical_formula_structural   Al31B5N36
_chemical_formula_sum   'Al31 B5 N36'
_cell_volume   713.65786334
_cell_formula_units_Z   1
loop_
 _symmetry_equiv_pos_site_id
 _symmetry_equiv_pos_as_xyz
  1  'x, y, z'
loop_
 _atom_site_type_symbol
 _atom_site_label
 _atom_site_symmetry_multiplicity
 _atom_site_fract_x
 _atom_site_fract_y
 _atom_site_fract_z
 _atom_site_occupancy
  Al  Al0  1  0.10687926  0.09191552  0.30911721  1
  Al  Al1  1  0.22463046  0.19947476  0.05286673  1
  Al  Al2  1  0.78267301  0.09179543  0.79616477  1
  Al  Al3  1  0.45239057  0.08695266  0.29842787  1
  Al  Al4  1  0.56355222  0.19708635  0.05953287  1
  Al  Al5  1  0.10844458  0.09414466  0.79792538  1
  Al  Al6  1  0.21821267  0.20683517  0.55209073  1
  Al  Al7  1  0.88746522  0.20231519  0.06077014  1
  Al  Al8  1  0.44515226  0.08863381  0.81009545  1
  Al  Al9  1  0.56651575  0.19918214  0.54957918  1
  Al  Al10  1  0.11057794  0.42825034  0.30097502  1
  Al  Al11  1  0.22160649  0.54073107  0.05237701  1
  Al  Al12  1  0.77651292  0.42557891  0.79801364  1
  Al  Al13  1  0.88838315  0.54115739  0.55325944  1
  Al  Al14  1  0.44997212  0.42488014  0.30306558  1
  Al  Al15  1  0.55635792  0.54671312  0.04873150  1
  Al  Al16  1  0.10960850  0.42811754  0.80277088  1
  Al  Al17  1  0.21614343  0.54321647  0.55175967  1
  Al  Al18  1  0.77678171  0.42187678  0.31075906  1
  Al  Al19  1  0.88112103  0.54326228  0.05274353  1
  Al  Al20  1  0.44387945  0.43126353  0.80320555  1
  Al  Al21  1  0.55718460  0.53775983  0.55840363  1
  Al  Al22  1  0.10659659  0.76803270  0.30904803  1
  Al  Al23  1  0.22967627  0.87160845  0.04815427  1
  Al  Al24  1  0.77353553  0.76597535  0.80535257  1
  Al  Al25  1  0.44762570  0.76354946  0.30028695  1
  Al  Al26  1  0.10821845  0.76421029  0.79842127  1
  Al  Al27  1  0.21758756  0.87526711  0.55857199  1
  Al  Al28  1  0.77206703  0.77033622  0.30553874  1
  Al  Al29  1  0.88288339  0.87639600  0.06053642  1
  Al  Al30  1  0.55856335  0.87446677  0.55988563  1
  B  B31  1  0.89026191  0.19172807  0.54439405  1
  B  B32  1  0.77872206  0.09315104  0.31232018  1
  B  B33  1  0.88955632  0.88446419  0.54598941  1
  B  B34  1  0.55228709  0.86784559  0.04814975  1
  B  B35  1  0.44597271  0.76070028  0.80448197  1
  N  N36  1  0.22553401  0.20415282  0.35895363  1
  N  N37  1  0.11120995  0.09166685  0.11572766  1
  N  N38  1  0.88747171  0.20388974  0.86796881  1
  N  N39  1  0.80186085  0.08240412  0.60137171  1
  N  N40  1  0.57947640  0.19218758  0.35514068  1
  N  N41  1  0.45784925  0.06729313  0.10176594  1
  N  N42  1  0.21968875  0.20472831  0.86069162  1
  N  N43  1  0.08426770  0.10737028  0.60193275  1
  N  N44  1  0.87793782  0.19152237  0.37657134  1
  N  N45  1  0.78173566  0.09173256  0.14374739  1
  N  N46  1  0.56141446  0.20342036  0.86412406  1
  N  N47  1  0.44364157  0.09731426  0.61606199  1
  N  N48  1  0.22309458  0.53879724  0.36022938  1
  N  N49  1  0.10988127  0.42774878  0.10886496  1
  N  N50  1  0.88534399  0.54007996  0.85859490  1
  N  N51  1  0.78959518  0.39995776  0.60295088  1
  N  N52  1  0.55313710  0.54325661  0.36558509  1
  N  N53  1  0.44700237  0.42796628  0.10940557  1
  N  N54  1  0.22036097  0.54166326  0.85970781  1
  N  N55  1  0.10984934  0.42835803  0.61163235  1
  N  N56  1  0.88749935  0.54173476  0.36065783  1
  N  N57  1  0.77666797  0.42603889  0.11639684  1
  N  N58  1  0.54489325  0.56273765  0.85373468  1
  N  N59  1  0.44319636  0.42630793  0.61041615  1
  N  N60  1  0.22848507  0.86917128  0.36673090  1
  N  N61  1  0.11136578  0.76355559  0.11465634  1
  N  N62  1  0.88813853  0.87580344  0.86896277  1
  N  N63  1  0.78904741  0.77873707  0.60823837  1
  N  N64  1  0.55449721  0.87209805  0.37029279  1
  N  N65  1  0.45708518  0.77381211  0.10696156  1
  N  N66  1  0.24488972  0.86074469  0.85122420  1
  N  N67  1  0.08414009  0.77605982  0.60235794  1
  N  N68  1  0.87704565  0.89619447  0.37528843  1
  N  N69  1  0.75144747  0.77443835  0.10662428  1
  N  N70  1  0.54497385  0.85944516  0.87378578  1
  N  N71  1  0.44742033  0.76283266  0.63670156  1
