# generated using pymatgen
data_Al31B5N36
_symmetry_space_group_name_H-M   'P 1'
_cell_length_a   9.18202839
_cell_length_b   9.18127981
_cell_length_c   10.05679000
_cell_angle_alpha   89.58677082
_cell_angle_beta   89.38459827
_cell_angle_gamma   60.07342385
_symmetry_Int_Tables_number   1
_chemical_formula_structural   Al31B5N36
_chemical_formula_sum   'Al31 B5 N36'
_cell_volume   734.72813030
_cell_formula_units_Z   1
loop_
 _symmetry_equiv_pos_site_id
 _symmetry_equiv_pos_as_xyz
  1  'x, y, z'
loop_
 _atom_site_type_symbol
 _atom_site_label
 _atom_site_symmetry_multiplicity
 _atom_site_fract_x
 _atom_site_fract_y
 _atom_site_fract_z
 _atom_site_occupancy
  Al  Al0  1  0.10120078  0.09670930  0.39761926  1
  Al  Al1  1  0.22569615  0.19961254  0.14054112  1
  Al  Al2  1  0.77911739  0.09165001  0.85222614  1
  Al  Al3  1  0.44812949  0.08956900  0.38164927  1
  Al  Al4  1  0.55849987  0.20518614  0.06411771  1
  Al  Al5  1  0.10926818  0.09877825  0.87777996  1
  Al  Al6  1  0.21913001  0.20730417  0.63834440  1
  Al  Al7  1  0.88667232  0.20356739  0.13059275  1
  Al  Al8  1  0.43951761  0.07865334  0.89277710  1
  Al  Al9  1  0.57966071  0.19336302  0.57228783  1
  Al  Al10  1  0.11032107  0.42980283  0.38904103  1
  Al  Al11  1  0.21695138  0.54352796  0.14094528  1
  Al  Al12  1  0.77861218  0.42881538  0.87762330  1
  Al  Al13  1  0.88653261  0.53886720  0.63820623  1
  Al  Al14  1  0.46028982  0.42352941  0.32083264  1
  Al  Al15  1  0.54803366  0.55340502  0.06112687  1
  Al  Al16  1  0.11093264  0.42743632  0.89051922  1
  Al  Al17  1  0.20802063  0.54437013  0.63739283  1
  Al  Al18  1  0.78656186  0.41464514  0.39341999  1
  Al  Al19  1  0.88016215  0.54383741  0.13941773  1
  Al  Al20  1  0.44804227  0.42709375  0.81271137  1
  Al  Al21  1  0.55278485  0.53601817  0.57353997  1
  Al  Al22  1  0.10146383  0.77255282  0.39743169  1
  Al  Al23  1  0.23594355  0.87066053  0.06920476  1
  Al  Al24  1  0.76744177  0.76161765  0.88962594  1
  Al  Al25  1  0.44501249  0.76298454  0.31569003  1
  Al  Al26  1  0.11008142  0.75704064  0.88057578  1
  Al  Al27  1  0.21205498  0.87689376  0.61381642  1
  Al  Al28  1  0.77681303  0.77280619  0.38973295  1
  Al  Al29  1  0.88235530  0.88028469  0.13378020  1
  Al  Al30  1  0.56057919  0.87410252  0.64256376  1
  B  B31  1  0.89366390  0.19780750  0.64925739  1
  B  B32  1  0.78123185  0.09444719  0.34922777  1
  B  B33  1  0.89350541  0.87958105  0.65136432  1
  B  B34  1  0.56114167  0.87684043  0.14550553  1
  B  B35  1  0.44415684  0.75507977  0.80670569  1
  N  N36  1  0.21911838  0.20567876  0.32920156  1
  N  N37  1  0.10874571  0.10067196  0.07016632  1
  N  N38  1  0.89125644  0.21013216  0.80880137  1
  N  N39  1  0.80309163  0.07967004  0.62565907  1
  N  N40  1  0.59243305  0.19113549  0.37253500  1
  N  N41  1  0.45650942  0.06681541  0.08766655  1
  N  N42  1  0.22389074  0.20676736  0.82606760  1
  N  N43  1  0.08262117  0.11159776  0.59092843  1
  N  N44  1  0.87602498  0.19103243  0.32472682  1
  N  N45  1  0.78966308  0.08953937  0.05882376  1
  N  N46  1  0.54480270  0.20886569  0.87345907  1
  N  N47  1  0.44232765  0.08951907  0.57143881  1
  N  N48  1  0.21748002  0.54718731  0.33299057  1
  N  N49  1  0.11127577  0.42760935  0.08024986  1
  N  N50  1  0.88894319  0.54089343  0.82664145  1
  N  N51  1  0.79281172  0.39599836  0.58644675  1
  N  N52  1  0.55486235  0.54614158  0.38376445  1
  N  N53  1  0.45363117  0.42600214  0.12982001  1
  N  N54  1  0.21653290  0.53919068  0.82594760  1
  N  N55  1  0.10798140  0.42734639  0.57527575  1
  N  N56  1  0.88585344  0.54152972  0.33007063  1
  N  N57  1  0.78151633  0.42534711  0.07092551  1
  N  N58  1  0.53689801  0.56612668  0.86841119  1
  N  N59  1  0.44649501  0.41919528  0.62230349  1
  N  N60  1  0.23087615  0.87095954  0.38139522  1
  N  N61  1  0.10928448  0.76093266  0.07292652  1
  N  N62  1  0.88907963  0.86165635  0.81214358  1
  N  N63  1  0.78445500  0.77376607  0.58052811  1
  N  N64  1  0.56631403  0.87792253  0.30799709  1
  N  N65  1  0.45651041  0.77216702  0.12645472  1
  N  N66  1  0.24427239  0.86134576  0.85141309  1
  N  N67  1  0.07887728  0.77520564  0.59064326  1
  N  N68  1  0.87692665  0.90422851  0.32692097  1
  N  N69  1  0.75429867  0.77522628  0.08394075  1
  N  N70  1  0.54464250  0.85903892  0.82960185  1
  N  N71  1  0.44369397  0.75143149  0.64580507  1
