# generated using pymatgen
data_Al31B5N36
_symmetry_space_group_name_H-M   'P 1'
_cell_length_a   9.17147514
_cell_length_b   9.16520718
_cell_length_c   9.85186913
_cell_angle_alpha   89.79049367
_cell_angle_beta   89.90296080
_cell_angle_gamma   59.99760482
_symmetry_Int_Tables_number   1
_chemical_formula_structural   Al31B5N36
_chemical_formula_sum   'Al31 B5 N36'
_cell_volume   717.16213993
_cell_formula_units_Z   1
loop_
 _symmetry_equiv_pos_site_id
 _symmetry_equiv_pos_as_xyz
  1  'x, y, z'
loop_
 _atom_site_type_symbol
 _atom_site_label
 _atom_site_symmetry_multiplicity
 _atom_site_fract_x
 _atom_site_fract_y
 _atom_site_fract_z
 _atom_site_occupancy
  Al  Al0  1  0.10593928  0.09305240  0.32023464  1
  Al  Al1  1  0.22631915  0.19896387  0.06614555  1
  Al  Al2  1  0.78200282  0.09097706  0.80928136  1
  Al  Al3  1  0.45208406  0.08898395  0.32113760  1
  Al  Al4  1  0.56503039  0.19702968  0.07248380  1
  Al  Al5  1  0.10905867  0.09359735  0.81020488  1
  Al  Al6  1  0.21572112  0.20844831  0.56318640  1
  Al  Al7  1  0.88828441  0.20310848  0.07213500  1
  Al  Al8  1  0.44448091  0.08728546  0.81598420  1
  Al  Al9  1  0.56703162  0.19948533  0.56151298  1
  Al  Al10  1  0.11057062  0.42935827  0.31275050  1
  Al  Al11  1  0.22245582  0.54136480  0.06313115  1
  Al  Al12  1  0.77581450  0.42612216  0.81063603  1
  Al  Al13  1  0.88926125  0.53906817  0.56578929  1
  Al  Al14  1  0.45002570  0.42519724  0.31397447  1
  Al  Al15  1  0.55771588  0.54898243  0.05923735  1
  Al  Al16  1  0.11005001  0.42748015  0.81611535  1
  Al  Al17  1  0.21612085  0.54282900  0.56463016  1
  Al  Al18  1  0.77716710  0.42185276  0.32219843  1
  Al  Al19  1  0.88060658  0.54491566  0.06592054  1
  Al  Al20  1  0.44433892  0.43020166  0.81529503  1
  Al  Al21  1  0.55626990  0.53495236  0.56854467  1
  Al  Al22  1  0.10700318  0.76813131  0.31942132  1
  Al  Al23  1  0.23218361  0.87306985  0.05888346  1
  Al  Al24  1  0.77323362  0.76451619  0.81190683  1
  Al  Al25  1  0.44737953  0.76346509  0.31911861  1
  Al  Al26  1  0.10782952  0.76450004  0.81096345  1
  Al  Al27  1  0.21380401  0.87552663  0.56795946  1
  Al  Al28  1  0.77367111  0.77098942  0.33126021  1
  Al  Al29  1  0.88290190  0.87753323  0.07369066  1
  Al  Al30  1  0.55567030  0.87339693  0.58327567  1
  B  B31  1  0.88993471  0.19206503  0.55782956  1
  B  B32  1  0.77978334  0.09410377  0.32532962  1
  B  B33  1  0.89063189  0.88260798  0.55898508  1
  B  B34  1  0.55761522  0.87197404  0.10325958  1
  B  B35  1  0.44662941  0.76155683  0.80592122  1
  N  N36  1  0.22290874  0.20585892  0.37114344  1
  N  N37  1  0.11184123  0.09232956  0.12785284  1
  N  N38  1  0.88703991  0.20335796  0.88032742  1
  N  N39  1  0.80149677  0.08240128  0.61463646  1
  N  N40  1  0.58077086  0.19329768  0.36806655  1
  N  N41  1  0.46077549  0.06549301  0.12320870  1
  N  N42  1  0.22112518  0.20350513  0.87495427  1
  N  N43  1  0.08358228  0.10750491  0.61436481  1
  N  N44  1  0.87787644  0.19232842  0.38908488  1
  N  N45  1  0.78268646  0.09263143  0.15626591  1
  N  N46  1  0.55985076  0.20107029  0.87766999  1
  N  N47  1  0.43980758  0.10264429  0.62285905  1
  N  N48  1  0.22309596  0.53910031  0.37293996  1
  N  N49  1  0.11045211  0.42870449  0.12146615  1
  N  N50  1  0.88532302  0.54020741  0.87277253  1
  N  N51  1  0.78861042  0.40019873  0.61592782  1
  N  N52  1  0.55383006  0.54130348  0.37694743  1
  N  N53  1  0.44771649  0.42908505  0.12100256  1
  N  N54  1  0.22039710  0.54132072  0.87187848  1
  N  N55  1  0.10923247  0.42824992  0.62559538  1
  N  N56  1  0.88843971  0.53981926  0.37427585  1
  N  N57  1  0.77707597  0.42692919  0.12865749  1
  N  N58  1  0.54458158  0.56208224  0.86507592  1
  N  N59  1  0.44300157  0.42452391  0.62334597  1
  N  N60  1  0.22594939  0.87065020  0.37732592  1
  N  N61  1  0.11262891  0.76419894  0.12577460  1
  N  N62  1  0.88604536  0.87391037  0.88225824  1
  N  N63  1  0.79294077  0.77713754  0.61537488  1
  N  N64  1  0.55332085  0.87228726  0.38959179  1
  N  N65  1  0.46068326  0.77676182  0.12413245  1
  N  N66  1  0.24406863  0.86101884  0.86308315  1
  N  N67  1  0.08322623  0.77580153  0.61528207  1
  N  N68  1  0.87879032  0.89762900  0.38819475  1
  N  N69  1  0.75018724  0.77689800  0.12872919  1
  N  N70  1  0.54357049  0.85602076  0.84398858  1
  N  N71  1  0.43918569  0.75761229  0.64015320  1
