# generated using pymatgen
data_Al31B5N36
_symmetry_space_group_name_H-M   'P 1'
_cell_length_a   9.20038610
_cell_length_b   9.17834995
_cell_length_c   10.05493296
_cell_angle_alpha   90.08084010
_cell_angle_beta   89.97198972
_cell_angle_gamma   60.11096702
_symmetry_Int_Tables_number   1
_chemical_formula_structural   Al31B5N36
_chemical_formula_sum   'Al31 B5 N36'
_cell_volume   736.14635662
_cell_formula_units_Z   1
loop_
 _symmetry_equiv_pos_site_id
 _symmetry_equiv_pos_as_xyz
  1  'x, y, z'
loop_
 _atom_site_type_symbol
 _atom_site_label
 _atom_site_symmetry_multiplicity
 _atom_site_fract_x
 _atom_site_fract_y
 _atom_site_fract_z
 _atom_site_occupancy
  Al  Al0  1  0.10590531  0.08664206  0.32777726  1
  Al  Al1  1  0.22477523  0.20701619  0.14423268  1
  Al  Al2  1  0.78020846  0.08900847  0.82207942  1
  Al  Al3  1  0.46366876  0.08048740  0.33460013  1
  Al  Al4  1  0.56168581  0.20045604  0.07598392  1
  Al  Al5  1  0.10259181  0.09035209  0.81498548  1
  Al  Al6  1  0.21327120  0.21283136  0.63206183  1
  Al  Al7  1  0.88877471  0.20457097  0.07463554  1
  Al  Al8  1  0.44615783  0.08989611  0.81871113  1
  Al  Al9  1  0.57272453  0.19538620  0.56519077  1
  Al  Al10  1  0.11016076  0.42547345  0.39073803  1
  Al  Al11  1  0.22553300  0.54416360  0.07012977  1
  Al  Al12  1  0.77205813  0.43642247  0.88340511  1
  Al  Al13  1  0.89070238  0.53878249  0.64601256  1
  Al  Al14  1  0.45304667  0.42262659  0.32029381  1
  Al  Al15  1  0.54492933  0.55772406  0.06918474  1
  Al  Al16  1  0.10456605  0.42458087  0.89324016  1
  Al  Al17  1  0.22129198  0.54536784  0.57344511  1
  Al  Al18  1  0.78549949  0.41730540  0.39706473  1
  Al  Al19  1  0.87696591  0.54712551  0.14795086  1
  Al  Al20  1  0.44322320  0.43101939  0.82072549  1
  Al  Al21  1  0.55346810  0.53547737  0.57883227  1
  Al  Al22  1  0.11172274  0.76460742  0.31649579  1
  Al  Al23  1  0.23256916  0.87881539  0.06323440  1
  Al  Al24  1  0.75918710  0.76692914  0.89625004  1
  Al  Al25  1  0.45071761  0.76122336  0.32928576  1
  Al  Al26  1  0.10717160  0.76319275  0.82921798  1
  Al  Al27  1  0.21274084  0.87441257  0.57302829  1
  Al  Al28  1  0.78671203  0.76973152  0.39897911  1
  Al  Al29  1  0.88272712  0.88183213  0.10559371  1
  Al  Al30  1  0.55632749  0.87151366  0.60392415  1
  B  B31  1  0.89874520  0.18058350  0.56196993  1
  B  B32  1  0.78041983  0.09065285  0.31708945  1
  B  B33  1  0.89546485  0.87284707  0.61099800  1
  B  B34  1  0.55537766  0.87416541  0.11375161  1
  B  B35  1  0.44155840  0.76247610  0.81024769  1
  N  N36  1  0.22742671  0.20460602  0.33741856  1
  N  N37  1  0.10697836  0.09304405  0.13502485  1
  N  N38  1  0.88740501  0.20039046  0.88401746  1
  N  N39  1  0.80518900  0.07046634  0.62538762  1
  N  N40  1  0.58579187  0.19075807  0.37490412  1
  N  N41  1  0.46578307  0.06377131  0.13226096  1
  N  N42  1  0.21432528  0.20954861  0.82882919  1
  N  N43  1  0.08191781  0.10299428  0.61928729  1
  N  N44  1  0.88427954  0.17915154  0.39541182  1
  N  N45  1  0.77318401  0.11121699  0.15511264  1
  N  N46  1  0.55662622  0.20361095  0.88509111  1
  N  N47  1  0.44622331  0.10216144  0.62521381  1
  N  N48  1  0.22742444  0.54263896  0.38109862  1
  N  N49  1  0.10414997  0.42989324  0.08549206  1
  N  N50  1  0.88525584  0.54567004  0.83196023  1
  N  N51  1  0.79240817  0.40059856  0.59089462  1
  N  N52  1  0.55421179  0.53964791  0.38524024  1
  N  N53  1  0.44561994  0.42956767  0.13103399  1
  N  N54  1  0.22310735  0.53993333  0.87926365  1
  N  N55  1  0.10456138  0.43014643  0.57931378  1
  N  N56  1  0.88623028  0.54201039  0.33594764  1
  N  N57  1  0.77409473  0.43622066  0.08118325  1
  N  N58  1  0.53413678  0.57040994  0.87375179  1
  N  N59  1  0.44632397  0.42030835  0.63242039  1
  N  N60  1  0.22736849  0.86672455  0.38638137  1
  N  N61  1  0.12234484  0.76373374  0.12743548  1
  N  N62  1  0.88720843  0.87617829  0.89835869  1
  N  N63  1  0.80144376  0.77674673  0.59405899  1
  N  N64  1  0.55585970  0.86726687  0.40355993  1
  N  N65  1  0.45695764  0.78188562  0.13570476  1
  N  N66  1  0.24334273  0.86386127  0.87110067  1
  N  N67  1  0.08378799  0.77445071  0.63368213  1
  N  N68  1  0.87771966  0.89346892  0.33259299  1
  N  N69  1  0.74197622  0.77731077  0.09246937  1
  N  N70  1  0.54247274  0.85843526  0.83262941  1
  N  N71  1  0.43405258  0.75616682  0.64761019  1
