# generated using pymatgen
data_Al31B5N36
_symmetry_space_group_name_H-M   'P 1'
_cell_length_a   9.18676341
_cell_length_b   9.18267567
_cell_length_c   10.00216465
_cell_angle_alpha   89.53530637
_cell_angle_beta   89.28337074
_cell_angle_gamma   59.98354965
_symmetry_Int_Tables_number   1
_chemical_formula_structural   Al31B5N36
_chemical_formula_sum   'Al31 B5 N36'
_cell_volume   730.54912929
_cell_formula_units_Z   1
loop_
 _symmetry_equiv_pos_site_id
 _symmetry_equiv_pos_as_xyz
  1  'x, y, z'
loop_
 _atom_site_type_symbol
 _atom_site_label
 _atom_site_symmetry_multiplicity
 _atom_site_fract_x
 _atom_site_fract_y
 _atom_site_fract_z
 _atom_site_occupancy
  Al  Al0  1  0.09977022  0.09455439  0.40708061  1
  Al  Al1  1  0.22655922  0.19889630  0.15168802  1
  Al  Al2  1  0.78126875  0.09109628  0.86248402  1
  Al  Al3  1  0.44843828  0.09094168  0.39578907  1
  Al  Al4  1  0.55820927  0.20416134  0.07414247  1
  Al  Al5  1  0.11492732  0.09014130  0.89702338  1
  Al  Al6  1  0.21828349  0.20685302  0.65066431  1
  Al  Al7  1  0.88684799  0.20192764  0.14250152  1
  Al  Al8  1  0.43929544  0.07864027  0.90292106  1
  Al  Al9  1  0.57977602  0.19586522  0.58701910  1
  Al  Al10  1  0.10954053  0.42907604  0.40202211  1
  Al  Al11  1  0.21589419  0.54301516  0.15223343  1
  Al  Al12  1  0.77793705  0.42901499  0.89299610  1
  Al  Al13  1  0.88610121  0.53956085  0.65045633  1
  Al  Al14  1  0.45787188  0.41921392  0.33233131  1
  Al  Al15  1  0.54998280  0.55480602  0.09537685  1
  Al  Al16  1  0.11092528  0.42665260  0.90172683  1
  Al  Al17  1  0.20768500  0.54678942  0.64841980  1
  Al  Al18  1  0.78852725  0.41200762  0.40164369  1
  Al  Al19  1  0.88083250  0.54475539  0.15144082  1
  Al  Al20  1  0.44712441  0.42989662  0.82520754  1
  Al  Al21  1  0.55435661  0.53699966  0.57814404  1
  Al  Al22  1  0.09848350  0.77373166  0.40642995  1
  Al  Al23  1  0.22544686  0.87524364  0.15263806  1
  Al  Al24  1  0.76946612  0.76057928  0.90026885  1
  Al  Al25  1  0.44532553  0.76783352  0.37342661  1
  Al  Al26  1  0.11606020  0.75752172  0.89831039  1
  Al  Al27  1  0.21820371  0.87515027  0.64681675  1
  Al  Al28  1  0.77566847  0.77387425  0.40185798  1
  Al  Al29  1  0.88033093  0.88000998  0.14408030  1
  Al  Al30  1  0.55633245  0.87287468  0.64684830  1
  B  B31  1  0.89631600  0.19512886  0.66060014  1
  B  B32  1  0.77981972  0.09381259  0.36112688  1
  B  B33  1  0.89561918  0.87925389  0.66198388  1
  B  B34  1  0.55523390  0.87392144  0.15894724  1
  B  B35  1  0.44413091  0.75779651  0.86044206  1
  N  N36  1  0.21916190  0.20455161  0.34237935  1
  N  N37  1  0.11118275  0.09474600  0.08616967  1
  N  N38  1  0.89577470  0.20847434  0.82200171  1
  N  N39  1  0.80466050  0.08071220  0.63823747  1
  N  N40  1  0.59194755  0.18977190  0.38576826  1
  N  N41  1  0.45658985  0.06723705  0.09807275  1
  N  N42  1  0.22265195  0.20434966  0.83972591  1
  N  N43  1  0.08648467  0.10600483  0.59920581  1
  N  N44  1  0.87524570  0.18921917  0.33656207  1
  N  N45  1  0.78912718  0.08974654  0.06927044  1
  N  N46  1  0.54567195  0.20824526  0.88147536  1
  N  N47  1  0.44278121  0.09489541  0.58749675  1
  N  N48  1  0.21615799  0.54624124  0.34591257  1
  N  N49  1  0.11101161  0.42694123  0.09205650  1
  N  N50  1  0.88850428  0.54000427  0.83942815  1
  N  N51  1  0.79366251  0.39711373  0.59662852  1
  N  N52  1  0.56031638  0.53505767  0.38261920  1
  N  N53  1  0.45161123  0.42371042  0.14061859  1
  N  N54  1  0.21609440  0.54027014  0.83895714  1
  N  N55  1  0.10800573  0.42799756  0.58915353  1
  N  N56  1  0.88577498  0.54222680  0.34273042  1
  N  N57  1  0.78233458  0.42449619  0.08590805  1
  N  N58  1  0.53656276  0.56948639  0.87918678  1
  N  N59  1  0.44628374  0.42495856  0.63344905  1
  N  N60  1  0.21371425  0.87734659  0.34344101  1
  N  N61  1  0.11154525  0.76302501  0.08833329  1
  N  N62  1  0.89402692  0.85992858  0.82449430  1
  N  N63  1  0.78649612  0.77679130  0.59491131  1
  N  N64  1  0.56347068  0.87834968  0.32273560  1
  N  N65  1  0.45742287  0.77756222  0.13365255  1
  N  N66  1  0.25125858  0.85591464  0.84036593  1
  N  N67  1  0.08438292  0.77787434  0.59883625  1
  N  N68  1  0.87374433  0.90417074  0.33816112  1
  N  N69  1  0.75443366  0.77455138  0.09457542  1
  N  N70  1  0.54055473  0.85323867  0.83863769  1
  N  N71  1  0.43978038  0.77217060  0.57765591  1
