# generated using pymatgen
data_Al31B5N36
_symmetry_space_group_name_H-M   'P 1'
_cell_length_a   9.14389015
_cell_length_b   9.18150485
_cell_length_c   10.23851724
_cell_angle_alpha   89.46302842
_cell_angle_beta   89.35780874
_cell_angle_gamma   60.16123678
_symmetry_Int_Tables_number   1
_chemical_formula_structural   Al31B5N36
_chemical_formula_sum   'Al31 B5 N36'
_cell_volume   745.56317407
_cell_formula_units_Z   1
loop_
 _symmetry_equiv_pos_site_id
 _symmetry_equiv_pos_as_xyz
  1  'x, y, z'
loop_
 _atom_site_type_symbol
 _atom_site_label
 _atom_site_symmetry_multiplicity
 _atom_site_fract_x
 _atom_site_fract_y
 _atom_site_fract_z
 _atom_site_occupancy
  Al  Al0  1  0.09729343  0.10481399  0.39390565  1
  Al  Al1  1  0.22360748  0.19867656  0.13710638  1
  Al  Al2  1  0.77634967  0.08423368  0.80930180  1
  Al  Al3  1  0.44712598  0.09070163  0.37563859  1
  Al  Al4  1  0.56043690  0.20361779  0.07117677  1
  Al  Al5  1  0.11097195  0.09736369  0.87788631  1
  Al  Al6  1  0.22416529  0.20458766  0.63766666  1
  Al  Al7  1  0.88796690  0.20812130  0.13948624  1
  Al  Al8  1  0.44317472  0.07902090  0.89420028  1
  Al  Al9  1  0.57429268  0.18838924  0.56058458  1
  Al  Al10  1  0.11316494  0.42997009  0.38787265  1
  Al  Al11  1  0.22143159  0.53761505  0.14164336  1
  Al  Al12  1  0.77894819  0.43114170  0.87932643  1
  Al  Al13  1  0.89303719  0.54135039  0.63903935  1
  Al  Al14  1  0.46396955  0.42140747  0.31929578  1
  Al  Al15  1  0.54766321  0.55449936  0.06084135  1
  Al  Al16  1  0.11304205  0.42944407  0.89030783  1
  Al  Al17  1  0.21719525  0.53583556  0.63524655  1
  Al  Al18  1  0.78859172  0.41734299  0.39313671  1
  Al  Al19  1  0.88061495  0.54294153  0.14042222  1
  Al  Al20  1  0.45324919  0.42449901  0.81679814  1
  Al  Al21  1  0.55204614  0.53672696  0.57625085  1
  Al  Al22  1  0.10446035  0.78080315  0.31870237  1
  Al  Al23  1  0.23660042  0.86623044  0.05925109  1
  Al  Al24  1  0.76319723  0.76044845  0.89734940  1
  Al  Al25  1  0.44513980  0.76324196  0.31721698  1
  Al  Al26  1  0.10518688  0.76839918  0.82238197  1
  Al  Al27  1  0.20641317  0.87327947  0.57873465  1
  Al  Al28  1  0.78084793  0.77348931  0.38085995  1
  Al  Al29  1  0.88535084  0.87785426  0.08193717  1
  Al  Al30  1  0.55863777  0.87405044  0.64079906  1
  B  B31  1  0.91359341  0.23385272  0.65193874  1
  B  B32  1  0.77749280  0.09059233  0.31125084  1
  B  B33  1  0.87971098  0.86692016  0.59958404  1
  B  B34  1  0.55986844  0.87374931  0.14632419  1
  B  B35  1  0.43876627  0.75722708  0.80789888  1
  N  N36  1  0.21821604  0.20691839  0.32322913  1
  N  N37  1  0.10404065  0.10089715  0.06512268  1
  N  N38  1  0.89179537  0.21411642  0.79891530  1
  N  N39  1  0.77576256  0.04171183  0.63475526  1
  N  N40  1  0.58782970  0.19435960  0.37220494  1
  N  N41  1  0.45377562  0.06563735  0.08426578  1
  N  N42  1  0.22626171  0.20688418  0.82359533  1
  N  N43  1  0.07963411  0.11725639  0.58740316  1
  N  N44  1  0.88024649  0.20013340  0.32539549  1
  N  N45  1  0.77024966  0.09457172  0.14224648  1
  N  N46  1  0.55983157  0.20574347  0.88381745  1
  N  N47  1  0.43659400  0.08406161  0.56293912  1
  N  N48  1  0.22439452  0.54099056  0.33345153  1
  N  N49  1  0.11127008  0.42871072  0.07651870  1
  N  N50  1  0.89021639  0.54431526  0.82452917  1
  N  N51  1  0.79821455  0.40248793  0.58716318  1
  N  N52  1  0.55481956  0.54733469  0.38983868  1
  N  N53  1  0.45535974  0.42692579  0.12947004  1
  N  N54  1  0.22112694  0.53775761  0.82565709  1
  N  N55  1  0.11255642  0.42431654  0.57318821  1
  N  N56  1  0.88859025  0.54122455  0.32732370  1
  N  N57  1  0.78313711  0.42373978  0.06698142  1
  N  N58  1  0.53853374  0.56789139  0.86928205  1
  N  N59  1  0.45682103  0.40934427  0.62820648  1
  N  N60  1  0.22882089  0.87155197  0.39257695  1
  N  N61  1  0.11519578  0.76931362  0.12766998  1
  N  N62  1  0.88986825  0.87616392  0.89373121  1
  N  N63  1  0.78667170  0.76313839  0.57296231  1
  N  N64  1  0.56531339  0.87849158  0.30551026  1
  N  N65  1  0.45279455  0.77143425  0.13099398  1
  N  N66  1  0.24826428  0.85731939  0.86714411  1
  N  N67  1  0.07155539  0.77643625  0.62901903  1
  N  N68  1  0.87796011  0.90563689  0.35302833  1
  N  N69  1  0.74778526  0.77013011  0.08573429  1
  N  N70  1  0.54568066  0.86132922  0.82514992  1
  N  N71  1  0.43193381  0.75441198  0.64877537  1
