# generated using pymatgen
data_Al31B5N36
_symmetry_space_group_name_H-M   'P 1'
_cell_length_a   9.15654059
_cell_length_b   9.20164508
_cell_length_c   10.16643267
_cell_angle_alpha   89.61927588
_cell_angle_beta   89.44000759
_cell_angle_gamma   60.04515382
_symmetry_Int_Tables_number   1
_chemical_formula_structural   Al31B5N36
_chemical_formula_sum   'Al31 B5 N36'
_cell_volume   742.11618356
_cell_formula_units_Z   1
loop_
 _symmetry_equiv_pos_site_id
 _symmetry_equiv_pos_as_xyz
  1  'x, y, z'
loop_
 _atom_site_type_symbol
 _atom_site_label
 _atom_site_symmetry_multiplicity
 _atom_site_fract_x
 _atom_site_fract_y
 _atom_site_fract_z
 _atom_site_occupancy
  Al  Al0  1  0.09662697  0.10412937  0.39359572  1
  Al  Al1  1  0.22211931  0.19728249  0.13621901  1
  Al  Al2  1  0.77808696  0.08482420  0.80911146  1
  Al  Al3  1  0.44639261  0.09050471  0.37415680  1
  Al  Al4  1  0.55902549  0.20376541  0.07464353  1
  Al  Al5  1  0.11222816  0.09627773  0.87586473  1
  Al  Al6  1  0.22604686  0.20565395  0.63740191  1
  Al  Al7  1  0.88698720  0.20792401  0.13959408  1
  Al  Al8  1  0.44568679  0.07988601  0.89387063  1
  Al  Al9  1  0.57518176  0.18813349  0.55899008  1
  Al  Al10  1  0.11030050  0.42678672  0.38433427  1
  Al  Al11  1  0.22484439  0.54185700  0.08179939  1
  Al  Al12  1  0.77787084  0.43277820  0.87738211  1
  Al  Al13  1  0.89518690  0.54214279  0.63894593  1
  Al  Al14  1  0.45679254  0.42540994  0.32042628  1
  Al  Al15  1  0.54688162  0.55448420  0.06020962  1
  Al  Al16  1  0.11110626  0.42682035  0.88878886  1
  Al  Al17  1  0.22327389  0.54227909  0.57163582  1
  Al  Al18  1  0.78772988  0.41691437  0.39256222  1
  Al  Al19  1  0.87902016  0.54163404  0.13950792  1
  Al  Al20  1  0.44693459  0.42739467  0.81642963  1
  Al  Al21  1  0.55413272  0.53647762  0.57810603  1
  Al  Al22  1  0.10714784  0.77483331  0.32067260  1
  Al  Al23  1  0.23547798  0.86600838  0.05869591  1
  Al  Al24  1  0.76455907  0.76297894  0.89721143  1
  Al  Al25  1  0.44420465  0.76272784  0.31790670  1
  Al  Al26  1  0.10759991  0.76252809  0.82080193  1
  Al  Al27  1  0.20716110  0.87546494  0.58066747  1
  Al  Al28  1  0.78034684  0.77215669  0.37936873  1
  Al  Al29  1  0.88508521  0.87654765  0.08718984  1
  Al  Al30  1  0.55997819  0.87441123  0.63967721  1
  B  B31  1  0.91522201  0.23561227  0.65185801  1
  B  B32  1  0.77522299  0.08924347  0.30700431  1
  B  B33  1  0.88046300  0.86597863  0.59713293  1
  B  B34  1  0.55893624  0.87276057  0.14629118  1
  B  B35  1  0.43934443  0.75760821  0.80683909  1
  N  N36  1  0.21788066  0.20520201  0.32244981  1
  N  N37  1  0.10223933  0.09935892  0.06424985  1
  N  N38  1  0.89255393  0.21522138  0.79846575  1
  N  N39  1  0.77739066  0.04061410  0.63319191  1
  N  N40  1  0.58490779  0.19541332  0.36968215  1
  N  N41  1  0.45321295  0.06553160  0.08484332  1
  N  N42  1  0.22823305  0.20617994  0.82374360  1
  N  N43  1  0.08095801  0.11789186  0.58787059  1
  N  N44  1  0.88026298  0.20026196  0.32557120  1
  N  N45  1  0.76825200  0.09407447  0.14752333  1
  N  N46  1  0.56210441  0.20720152  0.88551555  1
  N  N47  1  0.43800589  0.08435769  0.56243181  1
  N  N48  1  0.22720886  0.54529222  0.37647643  1
  N  N49  1  0.10725963  0.42494982  0.07900122  1
  N  N50  1  0.89014433  0.54614145  0.82468867  1
  N  N51  1  0.79880328  0.40347929  0.58752204  1
  N  N52  1  0.55476735  0.54670192  0.38974116  1
  N  N53  1  0.44956887  0.42992568  0.13230022  1
  N  N54  1  0.22607255  0.54171850  0.87337001  1
  N  N55  1  0.11154100  0.42221891  0.57410217  1
  N  N56  1  0.88704438  0.54076178  0.32639629  1
  N  N57  1  0.78101013  0.42245955  0.06620767  1
  N  N58  1  0.53881613  0.56852277  0.86683177  1
  N  N59  1  0.45210896  0.41261807  0.62889912  1
  N  N60  1  0.22783953  0.87197747  0.39270528  1
  N  N61  1  0.11772810  0.76474409  0.13175281  1
  N  N62  1  0.89167468  0.87839923  0.89618861  1
  N  N63  1  0.78800444  0.76265069  0.57184941  1
  N  N64  1  0.56426788  0.87741338  0.30579308  1
  N  N65  1  0.45189377  0.77142525  0.13016129  1
  N  N66  1  0.24839108  0.85744427  0.86454515  1
  N  N67  1  0.07546434  0.77173286  0.62937867  1
  N  N68  1  0.87806519  0.90306263  0.35100855  1
  N  N69  1  0.74745735  0.76941924  0.08621651  1
  N  N70  1  0.54724958  0.86244971  0.82480731  1
  N  N71  1  0.43373862  0.75547689  0.64731952  1
