# generated using pymatgen
data_Gd5Al31N36
_symmetry_space_group_name_H-M   'P 1'
_cell_length_a   9.74902387
_cell_length_b   9.72636586
_cell_length_c   10.43836384
_cell_angle_alpha   89.79965453
_cell_angle_beta   90.34226586
_cell_angle_gamma   60.22083746
_symmetry_Int_Tables_number   1
_chemical_formula_structural   Gd5Al31N36
_chemical_formula_sum   'Gd5 Al31 N36'
_cell_volume   859.04744002
_cell_formula_units_Z   1
loop_
 _symmetry_equiv_pos_site_id
 _symmetry_equiv_pos_as_xyz
  1  'x, y, z'
loop_
 _atom_site_type_symbol
 _atom_site_label
 _atom_site_symmetry_multiplicity
 _atom_site_fract_x
 _atom_site_fract_y
 _atom_site_fract_z
 _atom_site_occupancy
  Al  Al0  1  0.12711763  0.09113493  0.29493707  1
  Al  Al1  1  0.22452179  0.20494558  0.05122185  1
  Al  Al2  1  0.77767610  0.09430299  0.87648337  1
  Al  Al3  1  0.88647554  0.19934378  0.63405556  1
  Al  Al4  1  0.44932338  0.08892260  0.37038995  1
  Al  Al5  1  0.54910151  0.20438678  0.11453309  1
  Al  Al6  1  0.10865047  0.08765951  0.81555461  1
  Al  Al7  1  0.88659733  0.20964449  0.11613298  1
  Al  Al8  1  0.45582703  0.07723323  0.87513917  1
  Al  Al9  1  0.57065297  0.18115066  0.63079344  1
  Al  Al10  1  0.12915125  0.41708498  0.30663087  1
  Al  Al11  1  0.21372523  0.54840424  0.06338185  1
  Al  Al12  1  0.77432103  0.42730546  0.87326578  1
  Al  Al13  1  0.89402662  0.54506338  0.56917227  1
  Al  Al14  1  0.43604650  0.43715488  0.29215978  1
  Al  Al15  1  0.54641708  0.55158756  0.05226544  1
  Al  Al16  1  0.09280790  0.44276483  0.80905331  1
  Al  Al17  1  0.21951596  0.54049314  0.55522903  1
  Al  Al18  1  0.79821955  0.42222369  0.36544928  1
  Al  Al19  1  0.11368562  0.75724338  0.31040230  1
  Al  Al20  1  0.22214036  0.87158386  0.05692908  1
  Al  Al21  1  0.78098526  0.76130379  0.80692626  1
  Al  Al22  1  0.89868669  0.85926628  0.56267499  1
  Al  Al23  1  0.44201911  0.75633413  0.30322095  1
  Al  Al24  1  0.54736982  0.88742738  0.12997951  1
  Al  Al25  1  0.10106283  0.76692790  0.80935603  1
  Al  Al26  1  0.21321134  0.87448509  0.55686036  1
  Al  Al27  1  0.78312536  0.76327806  0.31103100  1
  Al  Al28  1  0.89106349  0.87676548  0.05840707  1
  Al  Al29  1  0.43108315  0.77440259  0.80558447  1
  Al  Al30  1  0.55788330  0.87707068  0.62444489  1
  Gd  Gd31  1  0.22153071  0.20404731  0.58011457  1
  Gd  Gd32  1  0.77265626  0.10476179  0.36129793  1
  Gd  Gd33  1  0.89297449  0.54626921  0.07806145  1
  Gd  Gd34  1  0.42882373  0.42433195  0.83462280  1
  Gd  Gd35  1  0.55356238  0.53570124  0.56810081  1
  N  N36  1  0.22421623  0.20094716  0.36001305  1
  N  N37  1  0.12120299  0.09020032  0.10491683  1
  N  N38  1  0.87594395  0.21239338  0.82010642  1
  N  N39  1  0.78362405  0.09092032  0.58009869  1
  N  N40  1  0.52250581  0.21619954  0.29323509  1
  N  N41  1  0.44823930  0.09042708  0.05590735  1
  N  N42  1  0.21533967  0.21113555  0.85634763  1
  N  N43  1  0.10213406  0.07025489  0.63387763  1
  N  N44  1  0.90583420  0.22104412  0.29633588  1
  N  N45  1  0.77383474  0.10337189  0.06818689  1
  N  N46  1  0.57536571  0.16321308  0.81395687  1
  N  N47  1  0.48628492  0.07176442  0.55011105  1
  N  N48  1  0.22846426  0.53863642  0.36594255  1
  N  N49  1  0.15090526  0.40558170  0.12573840  1
  N  N50  1  0.87908955  0.54270239  0.85138662  1
  N  N51  1  0.82042812  0.40035387  0.55427421  1
  N  N52  1  0.56158235  0.53196757  0.34585583  1
  N  N53  1  0.43729631  0.44035322  0.09539438  1
  N  N54  1  0.17419544  0.56315008  0.88485317  1
  N  N55  1  0.09759227  0.46130810  0.62716756  1
  N  N56  1  0.89993746  0.54143445  0.34284445  1
  N  N57  1  0.76419331  0.41506751  0.05640330  1
  N  N58  1  0.55276055  0.56270568  0.85813212  1
  N  N59  1  0.42860659  0.40398514  0.61463855  1
  N  N60  1  0.22142255  0.87230091  0.36563967  1
  N  N61  1  0.10757016  0.76671432  0.12369553  1
  N  N62  1  0.89005508  0.86944956  0.87055070  1
  N  N63  1  0.78242390  0.75836073  0.61879728  1
  N  N64  1  0.55168606  0.87358233  0.31708581  1
  N  N65  1  0.43992652  0.76368037  0.11478527  1
  N  N66  1  0.21766082  0.87014244  0.87317637  1
  N  N67  1  0.11752964  0.75541519  0.62095940  1
  N  N68  1  0.90931583  0.84099008  0.37969780  1
  N  N69  1  0.76699403  0.80067722  0.12788895  1
  N  N70  1  0.55456255  0.87340301  0.81457289  1
  N  N71  1  0.42150388  0.79185840  0.61929537  1
