# generated using pymatgen
data_Gd5Al31N36
_symmetry_space_group_name_H-M   'P 1'
_cell_length_a   9.71605594
_cell_length_b   9.74598408
_cell_length_c   10.21971866
_cell_angle_alpha   90.51377399
_cell_angle_beta   90.61389064
_cell_angle_gamma   60.03738717
_symmetry_Int_Tables_number   1
_chemical_formula_structural   Gd5Al31N36
_chemical_formula_sum   'Gd5 Al31 N36'
_cell_volume   838.33974550
_cell_formula_units_Z   1
loop_
 _symmetry_equiv_pos_site_id
 _symmetry_equiv_pos_as_xyz
  1  'x, y, z'
loop_
 _atom_site_type_symbol
 _atom_site_label
 _atom_site_symmetry_multiplicity
 _atom_site_fract_x
 _atom_site_fract_y
 _atom_site_fract_z
 _atom_site_occupancy
  Al  Al0  1  0.11079113  0.09329613  0.38994918  1
  Al  Al1  1  0.22732941  0.20183089  0.15114958  1
  Al  Al2  1  0.78623936  0.08336801  0.89922787  1
  Al  Al3  1  0.89398945  0.19697361  0.65681407  1
  Al  Al4  1  0.45082082  0.09075541  0.39178164  1
  Al  Al5  1  0.55597889  0.19718277  0.14086473  1
  Al  Al6  1  0.11354468  0.09333723  0.90277482  1
  Al  Al7  1  0.88873568  0.20673964  0.13826988  1
  Al  Al8  1  0.44612356  0.08302315  0.90519345  1
  Al  Al9  1  0.56523375  0.18535044  0.66258251  1
  Al  Al10  1  0.10986829  0.43684195  0.40006452  1
  Al  Al11  1  0.21397112  0.54771755  0.14181070  1
  Al  Al12  1  0.77664957  0.42914726  0.89069920  1
  Al  Al13  1  0.89138492  0.54009092  0.64987166  1
  Al  Al14  1  0.43702394  0.43139038  0.32637825  1
  Al  Al15  1  0.55532601  0.54566481  0.14735288  1
  Al  Al16  1  0.11079144  0.42520509  0.90014169  1
  Al  Al17  1  0.20933746  0.54462944  0.65424704  1
  Al  Al18  1  0.79605119  0.42379300  0.40002391  1
  Al  Al19  1  0.11466456  0.75583281  0.39637553  1
  Al  Al20  1  0.22064725  0.87397206  0.14457209  1
  Al  Al21  1  0.77258499  0.76984589  0.89025994  1
  Al  Al22  1  0.89313469  0.86822703  0.65435953  1
  Al  Al23  1  0.43690655  0.77790543  0.39050718  1
  Al  Al24  1  0.55348940  0.87765989  0.14522734  1
  Al  Al25  1  0.10511730  0.76717839  0.89806799  1
  Al  Al26  1  0.21386226  0.87569007  0.64402425  1
  Al  Al27  1  0.77953600  0.75823648  0.40494921  1
  Al  Al28  1  0.88802717  0.87391780  0.14440897  1
  Al  Al29  1  0.44580134  0.76632847  0.89401393  1
  Al  Al30  1  0.55939661  0.87278380  0.64506810  1
  Gd  Gd31  1  0.22927424  0.19974385  0.63337166  1
  Gd  Gd32  1  0.78116587  0.09755093  0.39754897  1
  Gd  Gd33  1  0.88363546  0.54392818  0.13890880  1
  Gd  Gd34  1  0.44622932  0.42549018  0.88780884  1
  Gd  Gd35  1  0.54812216  0.53830736  0.61363799  1
  N  N36  1  0.22446700  0.20512336  0.34873912  1
  N  N37  1  0.11308194  0.09394478  0.09057488  1
  N  N38  1  0.89220972  0.20340540  0.84543795  1
  N  N39  1  0.78100947  0.09117084  0.61695095  1
  N  N40  1  0.53287706  0.21324350  0.32436156  1
  N  N41  1  0.44153449  0.09164500  0.09228523  1
  N  N42  1  0.22399888  0.20270500  0.85514090  1
  N  N43  1  0.09006028  0.07864364  0.57452915  1
  N  N44  1  0.90385238  0.22409969  0.32082173  1
  N  N45  1  0.78040907  0.09310402  0.09440944  1
  N  N46  1  0.57376277  0.16451601  0.85017080  1
  N  N47  1  0.48524495  0.07315589  0.57371755  1
  N  N48  1  0.21570737  0.54408996  0.33384586  1
  N  N49  1  0.13919126  0.41242296  0.08626609  1
  N  N50  1  0.88928900  0.53855227  0.84681505  1
  N  N51  1  0.81316510  0.40477086  0.58695466  1
  N  N52  1  0.55888922  0.54256206  0.34766165  1
  N  N53  1  0.44150488  0.43440745  0.12488603  1
  N  N54  1  0.18724336  0.55771164  0.84324965  1
  N  N55  1  0.09629966  0.45556426  0.58386629  1
  N  N56  1  0.88852747  0.54344364  0.35656651  1
  N  N57  1  0.75732283  0.41588179  0.07527383  1
  N  N58  1  0.56742102  0.55886889  0.83359921  1
  N  N59  1  0.42666505  0.40179232  0.64154461  1
  N  N60  1  0.21889174  0.87242296  0.33169452  1
  N  N61  1  0.10854955  0.76601273  0.08672070  1
  N  N62  1  0.89255138  0.86969148  0.84052897  1
  N  N63  1  0.77891135  0.75905858  0.59594074  1
  N  N64  1  0.56094133  0.87011219  0.33295658  1
  N  N65  1  0.44396997  0.76376471  0.08853465  1
  N  N66  1  0.22101063  0.87353970  0.83817106  1
  N  N67  1  0.11350315  0.75839678  0.58759569  1
  N  N68  1  0.90130218  0.84414533  0.33142896  1
  N  N69  1  0.75940019  0.79533336  0.07475836  1
  N  N70  1  0.55126720  0.87385630  0.83432117  1
  N  N71  1  0.42157688  0.80303431  0.57594304  1
