# generated using pymatgen
data_Gd5Al31N36
_symmetry_space_group_name_H-M   'P 1'
_cell_length_a   9.72246436
_cell_length_b   9.77293491
_cell_length_c   10.23579037
_cell_angle_alpha   90.57066844
_cell_angle_beta   90.75705348
_cell_angle_gamma   59.98570638
_symmetry_Int_Tables_number   1
_chemical_formula_structural   Gd5Al31N36
_chemical_formula_sum   'Gd5 Al31 N36'
_cell_volume   842.07281417
_cell_formula_units_Z   1
loop_
 _symmetry_equiv_pos_site_id
 _symmetry_equiv_pos_as_xyz
  1  'x, y, z'
loop_
 _atom_site_type_symbol
 _atom_site_label
 _atom_site_symmetry_multiplicity
 _atom_site_fract_x
 _atom_site_fract_y
 _atom_site_fract_z
 _atom_site_occupancy
  Al  Al0  1  0.11060935  0.09318513  0.39082085  1
  Al  Al1  1  0.22708180  0.20016814  0.15337393  1
  Al  Al2  1  0.78663143  0.08243265  0.89971769  1
  Al  Al3  1  0.89379556  0.19699578  0.65682610  1
  Al  Al4  1  0.45088709  0.09102552  0.39172811  1
  Al  Al5  1  0.55487655  0.19764391  0.14075930  1
  Al  Al6  1  0.11347068  0.09329149  0.90370872  1
  Al  Al7  1  0.88842151  0.20694759  0.13833458  1
  Al  Al8  1  0.44654106  0.08237019  0.90589453  1
  Al  Al9  1  0.56606401  0.18352453  0.66265447  1
  Al  Al10  1  0.10831512  0.43309948  0.39866055  1
  Al  Al11  1  0.21441480  0.54777779  0.09218540  1
  Al  Al12  1  0.77715192  0.42951089  0.89077707  1
  Al  Al13  1  0.89084496  0.54017464  0.65116316  1
  Al  Al14  1  0.43097410  0.43408407  0.32088689  1
  Al  Al15  1  0.55443072  0.54595539  0.14727931  1
  Al  Al16  1  0.10971750  0.42130463  0.90350401  1
  Al  Al17  1  0.21978694  0.53981335  0.60138315  1
  Al  Al18  1  0.79494112  0.42393516  0.39954713  1
  Al  Al19  1  0.11354005  0.75923685  0.39385359  1
  Al  Al20  1  0.22036417  0.87532788  0.14593538  1
  Al  Al21  1  0.77327422  0.76974213  0.89069719  1
  Al  Al22  1  0.89308645  0.86825818  0.65457133  1
  Al  Al23  1  0.43739771  0.77767600  0.39020463  1
  Al  Al24  1  0.55372955  0.87782094  0.14528342  1
  Al  Al25  1  0.10442241  0.77181658  0.89965347  1
  Al  Al26  1  0.21407915  0.87633836  0.64471958  1
  Al  Al27  1  0.77969001  0.75822709  0.40536047  1
  Al  Al28  1  0.88724634  0.87525972  0.14542078  1
  Al  Al29  1  0.44630638  0.76652736  0.89410863  1
  Al  Al30  1  0.55968196  0.87286084  0.64529680  1
  Gd  Gd31  1  0.22957395  0.19846211  0.63503574  1
  Gd  Gd32  1  0.77982936  0.09873839  0.39708238  1
  Gd  Gd33  1  0.88117721  0.54531110  0.14046359  1
  Gd  Gd34  1  0.45200930  0.42276265  0.88075629  1
  Gd  Gd35  1  0.54930966  0.53919355  0.61250110  1
  N  N36  1  0.22477167  0.20317307  0.34988834  1
  N  N37  1  0.11287078  0.09387778  0.09097358  1
  N  N38  1  0.89179464  0.20351841  0.84541314  1
  N  N39  1  0.78088984  0.09132614  0.61654159  1
  N  N40  1  0.53163872  0.21441683  0.32379402  1
  N  N41  1  0.44118361  0.09147185  0.09259306  1
  N  N42  1  0.22403671  0.20189986  0.85617867  1
  N  N43  1  0.08997208  0.07881283  0.57513491  1
  N  N44  1  0.90366250  0.22415525  0.32102209  1
  N  N45  1  0.77914426  0.09418714  0.09440303  1
  N  N46  1  0.57495733  0.16154901  0.84953392  1
  N  N47  1  0.48514439  0.07325070  0.57363262  1
  N  N48  1  0.22239193  0.54040100  0.36978115  1
  N  N49  1  0.13483447  0.40851093  0.09327826  1
  N  N50  1  0.89025557  0.53832342  0.84664948  1
  N  N51  1  0.81295819  0.40474371  0.58681358  1
  N  N52  1  0.55851684  0.54260864  0.34648901  1
  N  N53  1  0.43858085  0.43589719  0.12496475  1
  N  N54  1  0.19317854  0.55503420  0.89144601  1
  N  N55  1  0.09433915  0.45219520  0.58577193  1
  N  N56  1  0.88750388  0.54357976  0.35737837  1
  N  N57  1  0.75631492  0.41581036  0.07473317  1
  N  N58  1  0.56909361  0.56086709  0.83160158  1
  N  N59  1  0.42704533  0.40222067  0.64641501  1
  N  N60  1  0.21924722  0.87342135  0.33241890  1
  N  N61  1  0.10471721  0.77454068  0.09046846  1
  N  N62  1  0.89359258  0.86873947  0.83986539  1
  N  N63  1  0.77924131  0.75876982  0.59622018  1
  N  N64  1  0.56107475  0.87023884  0.33305632  1
  N  N65  1  0.44400053  0.76391744  0.08848510  1
  N  N66  1  0.22125907  0.87434666  0.83809331  1
  N  N67  1  0.11123929  0.76258499  0.58864890  1
  N  N68  1  0.90028906  0.84488879  0.33187106  1
  N  N69  1  0.75966087  0.79610978  0.07459522  1
  N  N70  1  0.55138193  0.87398483  0.83434211  1
  N  N71  1  0.42193789  0.80295620  0.57592549  1
