# generated using pymatgen
data_Gd5Al31N36
_symmetry_space_group_name_H-M   'P 1'
_cell_length_a   9.74309093
_cell_length_b   9.71514754
_cell_length_c   10.43221377
_cell_angle_alpha   90.15439007
_cell_angle_beta   90.34655597
_cell_angle_gamma   60.22070684
_symmetry_Int_Tables_number   1
_chemical_formula_structural   Gd5Al31N36
_chemical_formula_sum   'Gd5 Al31 N36'
_cell_volume   857.05140218
_cell_formula_units_Z   1
loop_
 _symmetry_equiv_pos_site_id
 _symmetry_equiv_pos_as_xyz
  1  'x, y, z'
loop_
 _atom_site_type_symbol
 _atom_site_label
 _atom_site_symmetry_multiplicity
 _atom_site_fract_x
 _atom_site_fract_y
 _atom_site_fract_z
 _atom_site_occupancy
  Al  Al0  1  0.12609518  0.09191110  0.29566113  1
  Al  Al1  1  0.22483574  0.20602555  0.05153171  1
  Al  Al2  1  0.77725246  0.09239533  0.87708948  1
  Al  Al3  1  0.88707433  0.19782468  0.64302972  1
  Al  Al4  1  0.44849818  0.09108747  0.37167324  1
  Al  Al5  1  0.55068303  0.20306229  0.11455665  1
  Al  Al6  1  0.11251496  0.08382179  0.81990887  1
  Al  Al7  1  0.89053080  0.20528447  0.11317582  1
  Al  Al8  1  0.45616311  0.07676853  0.87514176  1
  Al  Al9  1  0.56987979  0.18026899  0.63392696  1
  Al  Al10  1  0.12659301  0.41767725  0.30867439  1
  Al  Al11  1  0.21527872  0.54729483  0.06282820  1
  Al  Al12  1  0.77663733  0.43021375  0.85599881  1
  Al  Al13  1  0.89283634  0.53897774  0.55037623  1
  Al  Al14  1  0.43131166  0.43769593  0.28819995  1
  Al  Al15  1  0.54801054  0.55320150  0.05757987  1
  Al  Al16  1  0.09320762  0.44213602  0.80245863  1
  Al  Al17  1  0.22137233  0.53826350  0.55492552  1
  Al  Al18  1  0.78014603  0.43595145  0.30008754  1
  Al  Al19  1  0.11163585  0.75946437  0.31101937  1
  Al  Al20  1  0.22301312  0.87065744  0.05677494  1
  Al  Al21  1  0.78250197  0.75907183  0.80078968  1
  Al  Al22  1  0.89932387  0.85680845  0.56439890  1
  Al  Al23  1  0.43639167  0.76205194  0.30220382  1
  Al  Al24  1  0.54674444  0.88867659  0.13149617  1
  Al  Al25  1  0.10155467  0.76528541  0.80955007  1
  Al  Al26  1  0.21474049  0.87071810  0.55997815  1
  Al  Al27  1  0.78083848  0.76676261  0.31352890  1
  Al  Al28  1  0.89019082  0.87893278  0.05970414  1
  Al  Al29  1  0.43632100  0.76991237  0.80615789  1
  Al  Al30  1  0.55922463  0.87356654  0.62180941  1
  Gd  Gd31  1  0.21938463  0.20094253  0.58141707  1
  Gd  Gd32  1  0.77101091  0.11119942  0.37087378  1
  Gd  Gd33  1  0.89858091  0.55454482  0.06693761  1
  Gd  Gd34  1  0.43021119  0.42806175  0.83318620  1
  Gd  Gd35  1  0.55983434  0.53009154  0.55552421  1
  N  N36  1  0.22336443  0.20168789  0.36090622  1
  N  N37  1  0.12252679  0.08986601  0.10377839  1
  N  N38  1  0.88100203  0.20861474  0.83362459  1
  N  N39  1  0.78517579  0.08744520  0.58956220  1
  N  N40  1  0.52364176  0.21631878  0.29373444  1
  N  N41  1  0.44837551  0.09015333  0.05620932  1
  N  N42  1  0.21615314  0.21094818  0.85590229  1
  N  N43  1  0.10263424  0.06566972  0.63912425  1
  N  N44  1  0.90656470  0.21772630  0.29586378  1
  N  N45  1  0.77290462  0.10491098  0.06671580  1
  N  N46  1  0.57325606  0.16642900  0.81698902  1
  N  N47  1  0.48540071  0.07129607  0.55153892  1
  N  N48  1  0.22620791  0.54040915  0.36565982  1
  N  N49  1  0.15070396  0.40661931  0.12841285  1
  N  N50  1  0.88155626  0.54300935  0.85221201  1
  N  N51  1  0.81591495  0.40235626  0.58692147  1
  N  N52  1  0.55620185  0.53530930  0.33477242  1
  N  N53  1  0.43784781  0.43947895  0.09410670  1
  N  N54  1  0.17430123  0.56069602  0.88411249  1
  N  N55  1  0.09567352  0.46040668  0.62039735  1
  N  N56  1  0.89328219  0.54219750  0.35126634  1
  N  N57  1  0.76545168  0.42731485  0.09254375  1
  N  N58  1  0.55926033  0.56104697  0.86971928  1
  N  N59  1  0.43137287  0.40323013  0.61397217  1
  N  N60  1  0.21961523  0.87400307  0.36733272  1
  N  N61  1  0.10719364  0.76684373  0.12369212  1
  N  N62  1  0.88989287  0.86706667  0.87075452  1
  N  N63  1  0.78386081  0.75334823  0.61385408  1
  N  N64  1  0.54970354  0.87507180  0.31871834  1
  N  N65  1  0.43755381  0.76746324  0.11559583  1
  N  N66  1  0.22172249  0.86492585  0.87376510  1
  N  N67  1  0.11809816  0.75269405  0.62192880  1
  N  N68  1  0.90719429  0.84552711  0.38057191  1
  N  N69  1  0.76662321  0.80344358  0.13159312  1
  N  N70  1  0.55679645  0.87242030  0.81281047  1
  N  N71  1  0.42482720  0.78511196  0.61990529  1
