# generated using pymatgen
data_Gd5Al31N36
_symmetry_space_group_name_H-M   'P 1'
_cell_length_a   9.73910273
_cell_length_b   9.74563011
_cell_length_c   10.34210532
_cell_angle_alpha   90.47887437
_cell_angle_beta   90.54245158
_cell_angle_gamma   60.00342048
_symmetry_Int_Tables_number   1
_chemical_formula_structural   Gd5Al31N36
_chemical_formula_sum   'Gd5 Al31 N36'
_cell_volume   850.08070451
_cell_formula_units_Z   1
loop_
 _symmetry_equiv_pos_site_id
 _symmetry_equiv_pos_as_xyz
  1  'x, y, z'
loop_
 _atom_site_type_symbol
 _atom_site_label
 _atom_site_symmetry_multiplicity
 _atom_site_fract_x
 _atom_site_fract_y
 _atom_site_fract_z
 _atom_site_occupancy
  Al  Al0  1  0.10536370  0.09842727  0.38768668  1
  Al  Al1  1  0.23066352  0.19893510  0.16066415  1
  Al  Al2  1  0.78804878  0.08156427  0.90160297  1
  Al  Al3  1  0.89127472  0.19833280  0.65825652  1
  Al  Al4  1  0.45420946  0.08792396  0.39451968  1
  Al  Al5  1  0.55416253  0.19884588  0.14245959  1
  Al  Al6  1  0.10918400  0.10232174  0.90825059  1
  Al  Al7  1  0.88772705  0.20742957  0.14036204  1
  Al  Al8  1  0.44572811  0.08479981  0.90697984  1
  Al  Al9  1  0.56399727  0.18591783  0.66470633  1
  Al  Al10  1  0.11259170  0.42942301  0.38056950  1
  Al  Al11  1  0.21220541  0.54762268  0.08889119  1
  Al  Al12  1  0.77610593  0.42954119  0.89222708  1
  Al  Al13  1  0.88790833  0.54062799  0.64425406  1
  Al  Al14  1  0.43175541  0.43411879  0.32185345  1
  Al  Al15  1  0.55706019  0.54336552  0.14824401  1
  Al  Al16  1  0.10419985  0.43177431  0.86964056  1
  Al  Al17  1  0.22067501  0.54047724  0.58215239  1
  Al  Al18  1  0.79186983  0.42511922  0.40096248  1
  Al  Al19  1  0.11796303  0.75285316  0.32367144  1
  Al  Al20  1  0.22147983  0.87051784  0.08570833  1
  Al  Al21  1  0.77221761  0.77199775  0.89210773  1
  Al  Al22  1  0.88626876  0.87123484  0.65725566  1
  Al  Al23  1  0.44399768  0.77290323  0.38701010  1
  Al  Al24  1  0.55564602  0.87764729  0.14687780  1
  Al  Al25  1  0.11568483  0.76309714  0.83371035  1
  Al  Al26  1  0.20861367  0.87031535  0.56630098  1
  Al  Al27  1  0.77960898  0.75769136  0.40620590  1
  Al  Al28  1  0.88281271  0.87652081  0.14485501  1
  Al  Al29  1  0.45187890  0.76456113  0.89885242  1
  Al  Al30  1  0.55991093  0.87314088  0.64618281  1
  Gd  Gd31  1  0.23008931  0.19337871  0.63105908  1
  Gd  Gd32  1  0.78030007  0.09748018  0.40050228  1
  Gd  Gd33  1  0.88339994  0.54340499  0.14193540  1
  Gd  Gd34  1  0.44906362  0.42293252  0.88158834  1
  Gd  Gd35  1  0.54534781  0.54156471  0.61766715  1
  N  N36  1  0.23012042  0.19528610  0.35536601  1
  N  N37  1  0.11096230  0.10083817  0.09557220  1
  N  N38  1  0.89220048  0.20418964  0.84513699  1
  N  N39  1  0.77906499  0.09231126  0.61815305  1
  N  N40  1  0.53207659  0.21370788  0.32439076  1
  N  N41  1  0.44123676  0.09178406  0.09202489  1
  N  N42  1  0.22155030  0.20895288  0.85626852  1
  N  N43  1  0.08123844  0.08611642  0.57169335  1
  N  N44  1  0.89986265  0.22594845  0.32055443  1
  N  N45  1  0.77994439  0.09383313  0.09371681  1
  N  N46  1  0.57598121  0.16228497  0.85081837  1
  N  N47  1  0.48726842  0.07324604  0.57457697  1
  N  N48  1  0.22807166  0.54410691  0.39208890  1
  N  N49  1  0.14071740  0.41525310  0.14317764  1
  N  N50  1  0.88440294  0.54224231  0.84276334  1
  N  N51  1  0.80712455  0.40672135  0.58648705  1
  N  N52  1  0.55992774  0.54073876  0.34519336  1
  N  N53  1  0.43787063  0.43689418  0.12679172  1
  N  N54  1  0.18633205  0.56075085  0.90568718  1
  N  N55  1  0.09552268  0.44969152  0.59203008  1
  N  N56  1  0.88693342  0.54290872  0.35978562  1
  N  N57  1  0.75784577  0.41431894  0.07396252  1
  N  N58  1  0.56791833  0.55974128  0.83431923  1
  N  N59  1  0.42243407  0.40443542  0.65153452  1
  N  N60  1  0.21640922  0.86970348  0.37238514  1
  N  N61  1  0.11367099  0.76298809  0.13867598  1
  N  N62  1  0.89149119  0.86950365  0.84179892  1
  N  N63  1  0.77829412  0.76004615  0.59505972  1
  N  N64  1  0.56305799  0.86979444  0.33234016  1
  N  N65  1  0.45323433  0.75994768  0.09260355  1
  N  N66  1  0.22140979  0.87221148  0.89440255  1
  N  N67  1  0.12101520  0.75556637  0.64326664  1
  N  N68  1  0.89414038  0.84638894  0.33182235  1
  N  N69  1  0.76013121  0.79508623  0.07381499  1
  N  N70  1  0.55012453  0.87584603  0.83434734  1
  N  N71  1  0.42777874  0.80195172  0.57299854  1
