# generated using pymatgen
data_Gd5Al31N36
_symmetry_space_group_name_H-M   'P 1'
_cell_length_a   9.75749147
_cell_length_b   9.77911931
_cell_length_c   10.19203178
_cell_angle_alpha   89.61113486
_cell_angle_beta   89.70056690
_cell_angle_gamma   60.04601128
_symmetry_Int_Tables_number   1
_chemical_formula_structural   Gd5Al31N36
_chemical_formula_sum   'Gd5 Al31 N36'
_cell_volume   842.59623930
_cell_formula_units_Z   1
loop_
 _symmetry_equiv_pos_site_id
 _symmetry_equiv_pos_as_xyz
  1  'x, y, z'
loop_
 _atom_site_type_symbol
 _atom_site_label
 _atom_site_symmetry_multiplicity
 _atom_site_fract_x
 _atom_site_fract_y
 _atom_site_fract_z
 _atom_site_occupancy
  Al  Al0  1  0.11337946  0.09573943  0.30425694  1
  Al  Al1  1  0.22038703  0.20675532  0.05639858  1
  Al  Al2  1  0.79465745  0.08320499  0.81014810  1
  Al  Al3  1  0.90071505  0.19956664  0.56567237  1
  Al  Al4  1  0.43648056  0.09058862  0.31124712  1
  Al  Al5  1  0.55034640  0.20576760  0.10995315  1
  Al  Al6  1  0.10907697  0.08717557  0.81594629  1
  Al  Al7  1  0.88421777  0.20289318  0.05562749  1
  Al  Al8  1  0.45045788  0.08344362  0.84361739  1
  Al  Al9  1  0.56392408  0.19103836  0.63298362  1
  Al  Al10  1  0.12131687  0.42168901  0.30988117  1
  Al  Al11  1  0.21010319  0.55091359  0.06452313  1
  Al  Al12  1  0.78950633  0.42648904  0.80740105  1
  Al  Al13  1  0.89153585  0.54280978  0.55658672  1
  Al  Al14  1  0.43120289  0.44005830  0.29298507  1
  Al  Al15  1  0.55749934  0.54601511  0.06234119  1
  Al  Al16  1  0.09815333  0.44464335  0.80369572  1
  Al  Al17  1  0.22074717  0.54178465  0.55552229  1
  Al  Al18  1  0.78128507  0.42452977  0.30739969  1
  Al  Al19  1  0.11225172  0.75767518  0.31197726  1
  Al  Al20  1  0.21988755  0.87333497  0.06159025  1
  Al  Al21  1  0.77498056  0.76287482  0.80256345  1
  Al  Al22  1  0.89897430  0.85693143  0.56613118  1
  Al  Al23  1  0.44121504  0.76380567  0.30343874  1
  Al  Al24  1  0.55438383  0.87520605  0.05970207  1
  Al  Al25  1  0.10706735  0.76420124  0.81073556  1
  Al  Al26  1  0.21820693  0.87177084  0.56230202  1
  Al  Al27  1  0.77766923  0.76125739  0.31417202  1
  Al  Al28  1  0.88336075  0.88230346  0.05566246  1
  Al  Al29  1  0.44486680  0.77116758  0.81263030  1
  Al  Al30  1  0.55978630  0.87015596  0.55694927  1
  Gd  Gd31  1  0.22314077  0.20356186  0.57578638  1
  Gd  Gd32  1  0.77651762  0.09341784  0.33347963  1
  Gd  Gd33  1  0.88842641  0.54493023  0.06750438  1
  Gd  Gd34  1  0.43881342  0.42968538  0.84286057  1
  Gd  Gd35  1  0.55686071  0.53599006  0.56259910  1
  N  N36  1  0.22298240  0.20041577  0.35146480  1
  N  N37  1  0.10749662  0.09614457  0.11252985  1
  N  N38  1  0.88919339  0.20622385  0.86753651  1
  N  N39  1  0.78864973  0.08770185  0.60720282  1
  N  N40  1  0.51929546  0.22292770  0.30055869  1
  N  N41  1  0.43925209  0.09364757  0.08545438  1
  N  N42  1  0.21690446  0.21108523  0.85722010  1
  N  N43  1  0.09973278  0.07124320  0.63355733  1
  N  N44  1  0.90832939  0.21929418  0.37874201  1
  N  N45  1  0.77713773  0.09587018  0.10247701  1
  N  N46  1  0.57796106  0.17199674  0.82815160  1
  N  N47  1  0.47455759  0.07282376  0.60696919  1
  N  N48  1  0.22349980  0.54076377  0.36431363  1
  N  N49  1  0.14133304  0.41287475  0.12583875  1
  N  N50  1  0.88565952  0.54413290  0.85037426  1
  N  N51  1  0.81225992  0.41049484  0.62173317  1
  N  N52  1  0.55223891  0.53893065  0.34154253  1
  N  N53  1  0.43631363  0.44165283  0.09415291  1
  N  N54  1  0.17975700  0.56150389  0.88202447  1
  N  N55  1  0.09620703  0.46257401  0.61818752  1
  N  N56  1  0.88920185  0.53792788  0.35784380  1
  N  N57  1  0.76713475  0.41038987  0.12288926  1
  N  N58  1  0.57566568  0.55565295  0.86842144  1
  N  N59  1  0.42969371  0.40975641  0.61544357  1
  N  N60  1  0.22056393  0.87290810  0.36708205  1
  N  N61  1  0.10411503  0.76860128  0.12223203  1
  N  N62  1  0.89028955  0.86982018  0.86355208  1
  N  N63  1  0.77557675  0.75844189  0.61425449  1
  N  N64  1  0.55452925  0.86877653  0.36458746  1
  N  N65  1  0.44221757  0.76689250  0.11579321  1
  N  N66  1  0.22395826  0.86756546  0.87406224  1
  N  N67  1  0.11953774  0.75507545  0.62089226  1
  N  N68  1  0.90708886  0.83681403  0.38193956  1
  N  N69  1  0.76057039  0.79815812  0.12914657  1
  N  N70  1  0.56224924  0.86522512  0.87180007  1
  N  N71  1  0.42968057  0.79003219  0.62471817  1
