# generated using pymatgen
data_Gd5Al31N36
_symmetry_space_group_name_H-M   'P 1'
_cell_length_a   9.75434003
_cell_length_b   9.72643614
_cell_length_c   10.43035933
_cell_angle_alpha   89.88622389
_cell_angle_beta   90.39330708
_cell_angle_gamma   59.82758141
_symmetry_Int_Tables_number   1
_chemical_formula_structural   Gd5Al31N36
_chemical_formula_sum   'Gd5 Al31 N36'
_cell_volume   855.47149800
_cell_formula_units_Z   1
loop_
 _symmetry_equiv_pos_site_id
 _symmetry_equiv_pos_as_xyz
  1  'x, y, z'
loop_
 _atom_site_type_symbol
 _atom_site_label
 _atom_site_symmetry_multiplicity
 _atom_site_fract_x
 _atom_site_fract_y
 _atom_site_fract_z
 _atom_site_occupancy
  Al  Al0  1  0.10914505  0.09808032  0.40003783  1
  Al  Al1  1  0.22710041  0.20573738  0.09224219  1
  Al  Al2  1  0.78694066  0.08317616  0.90921185  1
  Al  Al3  1  0.88601692  0.20189043  0.66467511  1
  Al  Al4  1  0.45140797  0.08890465  0.40662337  1
  Al  Al5  1  0.55475214  0.19855726  0.15064055  1
  Al  Al6  1  0.10304725  0.09845774  0.91010459  1
  Al  Al7  1  0.88924432  0.20398139  0.14741166  1
  Al  Al8  1  0.45732120  0.08159944  0.91098103  1
  Al  Al9  1  0.56336915  0.19111352  0.67137904  1
  Al  Al10  1  0.12783148  0.41364716  0.34542814  1
  Al  Al11  1  0.21337483  0.54640764  0.09601075  1
  Al  Al12  1  0.77032528  0.43325525  0.89820183  1
  Al  Al13  1  0.88114503  0.54412827  0.66217410  1
  Al  Al14  1  0.43123363  0.42924543  0.33238197  1
  Al  Al15  1  0.55816506  0.53553524  0.15653245  1
  Al  Al16  1  0.10391183  0.44132984  0.84561799  1
  Al  Al17  1  0.21524779  0.53735780  0.59337775  1
  Al  Al18  1  0.80249093  0.42138834  0.40685437  1
  Al  Al19  1  0.12008631  0.75072162  0.33641406  1
  Al  Al20  1  0.22794634  0.86420844  0.08770921  1
  Al  Al21  1  0.77237591  0.77179666  0.90509266  1
  Al  Al22  1  0.88484456  0.87196964  0.66510565  1
  Al  Al23  1  0.43922574  0.76777935  0.33555485  1
  Al  Al24  1  0.55735033  0.88035964  0.15834617  1
  Al  Al25  1  0.11271715  0.76097209  0.84095916  1
  Al  Al26  1  0.20722000  0.87094236  0.58079308  1
  Al  Al27  1  0.78440928  0.75289681  0.41179754  1
  Al  Al28  1  0.88528100  0.87558629  0.15675969  1
  Al  Al29  1  0.43387462  0.77965733  0.82773195  1
  Al  Al30  1  0.56494283  0.87898859  0.65534890  1
  Gd  Gd31  1  0.22861881  0.18870621  0.63435351  1
  Gd  Gd32  1  0.78047408  0.09896616  0.40913230  1
  Gd  Gd33  1  0.88526750  0.53783302  0.13809671  1
  Gd  Gd34  1  0.44774478  0.43105330  0.88350757  1
  Gd  Gd35  1  0.54006589  0.54979697  0.60662419  1
  N  N36  1  0.22813565  0.19956377  0.39855680  1
  N  N37  1  0.10834575  0.09750310  0.09464229  1
  N  N38  1  0.88866381  0.20643011  0.84963196  1
  N  N39  1  0.77708730  0.09387316  0.62451197  1
  N  N40  1  0.53272562  0.20918920  0.33072936  1
  N  N41  1  0.44882997  0.08911950  0.09341212  1
  N  N42  1  0.22136075  0.21084306  0.88776450  1
  N  N43  1  0.07446893  0.08614507  0.58086524  1
  N  N44  1  0.90596174  0.22188968  0.32570506  1
  N  N45  1  0.78049251  0.09257851  0.10060338  1
  N  N46  1  0.57625096  0.16956183  0.85590749  1
  N  N47  1  0.48807532  0.07711158  0.58533850  1
  N  N48  1  0.22456440  0.53689717  0.40319010  1
  N  N49  1  0.14860713  0.40761279  0.16022602  1
  N  N50  1  0.87866509  0.54568132  0.86190808  1
  N  N51  1  0.80768377  0.41102715  0.59164475  1
  N  N52  1  0.56443906  0.53070603  0.35513902  1
  N  N53  1  0.43702179  0.43507818  0.13529214  1
  N  N54  1  0.18475249  0.56061768  0.91753246  1
  N  N55  1  0.09846294  0.45352317  0.66343533  1
  N  N56  1  0.89665395  0.53864194  0.35913963  1
  N  N57  1  0.75425523  0.41255107  0.07914215  1
  N  N58  1  0.56881576  0.56084917  0.82997122  1
  N  N59  1  0.42439935  0.41036648  0.65466085  1
  N  N60  1  0.22586229  0.86147731  0.39286295  1
  N  N61  1  0.11711035  0.76132845  0.15090307  1
  N  N62  1  0.88917725  0.87077365  0.84957665  1
  N  N63  1  0.77974648  0.75779530  0.59984745  1
  N  N64  1  0.56423639  0.87011608  0.34587508  1
  N  N65  1  0.44340005  0.76339026  0.14830483  1
  N  N66  1  0.22455944  0.86670272  0.90038458  1
  N  N67  1  0.11748687  0.75473006  0.65149484  1
  N  N68  1  0.89629440  0.84817604  0.34210075  1
  N  N69  1  0.76192492  0.79415092  0.08674880  1
  N  N70  1  0.55870959  0.87763587  0.84259799  1
  N  N71  1  0.40737656  0.81940454  0.64439819  1
