# generated using pymatgen
data_Gd5Al31N36
_symmetry_space_group_name_H-M   'P 1'
_cell_length_a   9.75396610
_cell_length_b   9.74674963
_cell_length_c   10.39541303
_cell_angle_alpha   89.98056231
_cell_angle_beta   90.37269898
_cell_angle_gamma   60.26296584
_symmetry_Int_Tables_number   1
_chemical_formula_structural   Gd5Al31N36
_chemical_formula_sum   'Gd5 Al31 N36'
_cell_volume   858.11460961
_cell_formula_units_Z   1
loop_
 _symmetry_equiv_pos_site_id
 _symmetry_equiv_pos_as_xyz
  1  'x, y, z'
loop_
 _atom_site_type_symbol
 _atom_site_label
 _atom_site_symmetry_multiplicity
 _atom_site_fract_x
 _atom_site_fract_y
 _atom_site_fract_z
 _atom_site_occupancy
  Al  Al0  1  0.12711422  0.09075964  0.29457312  1
  Al  Al1  1  0.22481888  0.20405974  0.05315314  1
  Al  Al2  1  0.77743520  0.09687304  0.87528773  1
  Al  Al3  1  0.88625511  0.19896695  0.63331103  1
  Al  Al4  1  0.45149847  0.08850539  0.36844925  1
  Al  Al5  1  0.54757189  0.20563144  0.11441789  1
  Al  Al6  1  0.10850617  0.08789421  0.81516347  1
  Al  Al7  1  0.88569317  0.20921538  0.11677252  1
  Al  Al8  1  0.45316848  0.08088653  0.87621465  1
  Al  Al9  1  0.56973448  0.18184627  0.62944212  1
  Al  Al10  1  0.13192340  0.41612484  0.30425441  1
  Al  Al11  1  0.21375774  0.54934845  0.06365437  1
  Al  Al12  1  0.77326257  0.42661630  0.87194314  1
  Al  Al13  1  0.88447974  0.54328718  0.63235837  1
  Al  Al14  1  0.43770483  0.43794869  0.29300501  1
  Al  Al15  1  0.54589032  0.55206764  0.05131047  1
  Al  Al16  1  0.10084097  0.43895074  0.81411738  1
  Al  Al17  1  0.21798506  0.54011613  0.55533981  1
  Al  Al18  1  0.80383411  0.42206896  0.37150709  1
  Al  Al19  1  0.11424637  0.75654056  0.30967683  1
  Al  Al20  1  0.22133329  0.87208069  0.05660384  1
  Al  Al21  1  0.77025315  0.77189747  0.85298194  1
  Al  Al22  1  0.89853182  0.85912441  0.56537428  1
  Al  Al23  1  0.44485468  0.75603899  0.30112379  1
  Al  Al24  1  0.55334480  0.88257149  0.12212691  1
  Al  Al25  1  0.10261326  0.76779359  0.80633918  1
  Al  Al26  1  0.21424518  0.87481479  0.55586690  1
  Al  Al27  1  0.78254144  0.75067012  0.35946342  1
  Al  Al28  1  0.89261743  0.87613455  0.05284670  1
  Al  Al29  1  0.42978393  0.77613192  0.80488243  1
  Al  Al30  1  0.55977587  0.87755303  0.62705455  1
  Gd  Gd31  1  0.21909161  0.20672491  0.57763964  1
  Gd  Gd32  1  0.77408636  0.10218720  0.35888300  1
  Gd  Gd33  1  0.89126476  0.54000805  0.09418097  1
  Gd  Gd34  1  0.42863324  0.42586784  0.83374521  1
  Gd  Gd35  1  0.55245787  0.53756280  0.56810786  1
  N  N36  1  0.22633947  0.19989739  0.35667129  1
  N  N37  1  0.11949807  0.09064792  0.10459728  1
  N  N38  1  0.87633227  0.21274207  0.81966460  1
  N  N39  1  0.78301582  0.09112436  0.57898958  1
  N  N40  1  0.52289264  0.21797582  0.29404244  1
  N  N41  1  0.44681662  0.09115452  0.05796379  1
  N  N42  1  0.21516288  0.21104722  0.85808543  1
  N  N43  1  0.10205101  0.07084245  0.63259416  1
  N  N44  1  0.90604769  0.22150932  0.29869667  1
  N  N45  1  0.77378410  0.10161393  0.07056211  1
  N  N46  1  0.57426398  0.16499812  0.81464379  1
  N  N47  1  0.48485720  0.07185260  0.54951389  1
  N  N48  1  0.22865033  0.53858444  0.36514813  1
  N  N49  1  0.15402526  0.40509491  0.12255207  1
  N  N50  1  0.87631741  0.54205803  0.82958945  1
  N  N51  1  0.82133224  0.40333060  0.56037773  1
  N  N52  1  0.56373741  0.53324094  0.34637654  1
  N  N53  1  0.43758463  0.44122335  0.09541855  1
  N  N54  1  0.17398301  0.56609857  0.88546916  1
  N  N55  1  0.10002912  0.46029157  0.63214697  1
  N  N56  1  0.89975861  0.53769336  0.32002212  1
  N  N57  1  0.76316796  0.41222465  0.05256132  1
  N  N58  1  0.55227371  0.56447528  0.85636631  1
  N  N59  1  0.42872398  0.40430432  0.61329029  1
  N  N60  1  0.22344379  0.87213043  0.36416697  1
  N  N61  1  0.10606367  0.76737506  0.12303092  1
  N  N62  1  0.89406651  0.87583828  0.86316387  1
  N  N63  1  0.77691169  0.75804045  0.59668542  1
  N  N64  1  0.56255369  0.87062206  0.31047667  1
  N  N65  1  0.43908078  0.76406877  0.11371182  1
  N  N66  1  0.21790775  0.87111371  0.87239969  1
  N  N67  1  0.11880417  0.75512156  0.61877245  1
  N  N68  1  0.91062590  0.83967394  0.37774840  1
  N  N69  1  0.75820034  0.79429521  0.06285773  1
  N  N70  1  0.55126047  0.87735377  0.81447222  1
  N  N71  1  0.42157040  0.79313737  0.61889476  1
