# generated using pymatgen
data_Gd5Al31N36
_symmetry_space_group_name_H-M   'P 1'
_cell_length_a   9.75433473
_cell_length_b   9.72642050
_cell_length_c   10.43029204
_cell_angle_alpha   89.88653574
_cell_angle_beta   90.39292072
_cell_angle_gamma   59.82853338
_symmetry_Int_Tables_number   1
_chemical_formula_structural   Gd5Al31N36
_chemical_formula_sum   'Gd5 Al31 N36'
_cell_volume   855.47249628
_cell_formula_units_Z   1
loop_
 _symmetry_equiv_pos_site_id
 _symmetry_equiv_pos_as_xyz
  1  'x, y, z'
loop_
 _atom_site_type_symbol
 _atom_site_label
 _atom_site_symmetry_multiplicity
 _atom_site_fract_x
 _atom_site_fract_y
 _atom_site_fract_z
 _atom_site_occupancy
  Al  Al0  1  0.10911267  0.09811919  0.40279449  1
  Al  Al1  1  0.22706685  0.20577647  0.09498885  1
  Al  Al2  1  0.78690851  0.08321462  0.91196133  1
  Al  Al3  1  0.88599072  0.20192559  0.66742857  1
  Al  Al4  1  0.45137363  0.08894253  0.40937430  1
  Al  Al5  1  0.55471708  0.19859621  0.15338890  1
  Al  Al6  1  0.10301543  0.09849578  0.91284762  1
  Al  Al7  1  0.88921447  0.20401907  0.15016460  1
  Al  Al8  1  0.45728771  0.08163463  0.91372576  1
  Al  Al9  1  0.56334177  0.19114516  0.67413116  1
  Al  Al10  1  0.12779716  0.41368634  0.34817382  1
  Al  Al11  1  0.21334034  0.54644900  0.09876135  1
  Al  Al12  1  0.77028964  0.43329063  0.90095831  1
  Al  Al13  1  0.88110736  0.54416833  0.66492860  1
  Al  Al14  1  0.43119659  0.42928648  0.33512806  1
  Al  Al15  1  0.55813143  0.53557521  0.15928005  1
  Al  Al16  1  0.10387284  0.44137259  0.84836763  1
  Al  Al17  1  0.21521099  0.53739962  0.59612654  1
  Al  Al18  1  0.80246046  0.42142465  0.40960667  1
  Al  Al19  1  0.12005099  0.75076432  0.33916087  1
  Al  Al20  1  0.22791304  0.86424948  0.09045399  1
  Al  Al21  1  0.77233993  0.77183691  0.90784321  1
  Al  Al22  1  0.88481453  0.87200645  0.66785669  1
  Al  Al23  1  0.43919158  0.76781811  0.33830520  1
  Al  Al24  1  0.55731402  0.88040006  0.16109351  1
  Al  Al25  1  0.11268248  0.76101168  0.84371129  1
  Al  Al26  1  0.20719396  0.87097777  0.58354332  1
  Al  Al27  1  0.78437535  0.75293450  0.41454739  1
  Al  Al28  1  0.88524528  0.87562845  0.15951089  1
  Al  Al29  1  0.43384453  0.77968635  0.83048028  1
  Al  Al30  1  0.56491171  0.87902073  0.65809855  1
  Gd  Gd31  1  0.22859018  0.18875628  0.63710355  1
  Gd  Gd32  1  0.78043214  0.09900646  0.41188055  1
  Gd  Gd33  1  0.88523519  0.53787683  0.14084370  1
  Gd  Gd34  1  0.44770336  0.43108700  0.88625541  1
  Gd  Gd35  1  0.54003674  0.54982136  0.60937324  1
  N  N36  1  0.22810240  0.19960577  0.40130749  1
  N  N37  1  0.10831210  0.09754223  0.09738754  1
  N  N38  1  0.88863097  0.20646850  0.85238501  1
  N  N39  1  0.77705940  0.09390918  0.62726211  1
  N  N40  1  0.53268617  0.20923189  0.33347785  1
  N  N41  1  0.44879426  0.08915788  0.09615801  1
  N  N42  1  0.22132863  0.21088391  0.89050875  1
  N  N43  1  0.07444997  0.08618083  0.58362750  1
  N  N44  1  0.90593185  0.22192305  0.32846129  1
  N  N45  1  0.78045822  0.09261891  0.10335510  1
  N  N46  1  0.57622159  0.16959599  0.85865837  1
  N  N47  1  0.48804879  0.07714193  0.58808910  1
  N  N48  1  0.22452811  0.53694032  0.40593673  1
  N  N49  1  0.14857333  0.40765127  0.16297253  1
  N  N50  1  0.87862756  0.54572055  0.86466153  1
  N  N51  1  0.80765251  0.41106143  0.59439732  1
  N  N52  1  0.56440431  0.53074539  0.35788904  1
  N  N53  1  0.43698698  0.43511766  0.13803826  1
  N  N54  1  0.18471350  0.56066014  0.92028312  1
  N  N55  1  0.09842191  0.45356941  0.66618498  1
  N  N56  1  0.89662069  0.53868038  0.36188795  1
  N  N57  1  0.75422619  0.41258857  0.08189981  1
  N  N58  1  0.56878136  0.56087904  0.83272727  1
  N  N59  1  0.42436075  0.41039531  0.65740895  1
  N  N60  1  0.22582732  0.86152001  0.39561203  1
  N  N61  1  0.11707401  0.76137079  0.15364962  1
  N  N62  1  0.88914415  0.87081253  0.85232782  1
  N  N63  1  0.77971422  0.75783181  0.60259862  1
  N  N64  1  0.56420310  0.87015551  0.34862342  1
  N  N65  1  0.44336454  0.76342874  0.15105279  1
  N  N66  1  0.22452747  0.86674216  0.90312955  1
  N  N67  1  0.11745496  0.75476884  0.65424514  1
  N  N68  1  0.89626069  0.84821571  0.34485142  1
  N  N69  1  0.76188799  0.79419388  0.08949902  1
  N  N70  1  0.55867620  0.87766955  0.84534764  1
  N  N71  1  0.40735629  0.81942228  0.64714380  1
