# generated using pymatgen
data_Gd5Al31N36
_symmetry_space_group_name_H-M   'P 1'
_cell_length_a   9.74839989
_cell_length_b   9.71964528
_cell_length_c   10.43873324
_cell_angle_alpha   89.91168376
_cell_angle_beta   90.33846617
_cell_angle_gamma   60.19278092
_symmetry_Int_Tables_number   1
_chemical_formula_structural   Gd5Al31N36
_chemical_formula_sum   'Gd5 Al31 N36'
_cell_volume   858.20137070
_cell_formula_units_Z   1
loop_
 _symmetry_equiv_pos_site_id
 _symmetry_equiv_pos_as_xyz
  1  'x, y, z'
loop_
 _atom_site_type_symbol
 _atom_site_label
 _atom_site_symmetry_multiplicity
 _atom_site_fract_x
 _atom_site_fract_y
 _atom_site_fract_z
 _atom_site_occupancy
  Al  Al0  1  0.12682038  0.09186791  0.29490102  1
  Al  Al1  1  0.22425880  0.20572955  0.05093958  1
  Al  Al2  1  0.77786808  0.09347522  0.87569088  1
  Al  Al3  1  0.88654704  0.20014823  0.63560333  1
  Al  Al4  1  0.44890698  0.09009447  0.37113478  1
  Al  Al5  1  0.55017518  0.20353394  0.11435983  1
  Al  Al6  1  0.10901112  0.08687869  0.81683656  1
  Al  Al7  1  0.88681548  0.20944458  0.11527989  1
  Al  Al8  1  0.45650082  0.07626061  0.87505556  1
  Al  Al9  1  0.57062024  0.18055529  0.63264126  1
  Al  Al10  1  0.12989946  0.41712911  0.30850914  1
  Al  Al11  1  0.21331602  0.54819855  0.06333846  1
  Al  Al12  1  0.77452465  0.42760621  0.87510435  1
  Al  Al13  1  0.89683602  0.54428084  0.55058568  1
  Al  Al14  1  0.43499638  0.43760928  0.29107825  1
  Al  Al15  1  0.54643063  0.55221192  0.05392465  1
  Al  Al16  1  0.09084287  0.44357639  0.80555440  1
  Al  Al17  1  0.22024821  0.53946492  0.55554612  1
  Al  Al18  1  0.79534532  0.42216232  0.36261425  1
  Al  Al19  1  0.11288955  0.75868340  0.31053273  1
  Al  Al20  1  0.22229482  0.87149265  0.05698738  1
  Al  Al21  1  0.78251825  0.75812627  0.80335434  1
  Al  Al22  1  0.89893172  0.85870703  0.56402756  1
  Al  Al23  1  0.44046636  0.75778801  0.30376963  1
  Al  Al24  1  0.54692570  0.88793187  0.13123243  1
  Al  Al25  1  0.10125209  0.76613578  0.80970491  1
  Al  Al26  1  0.21317722  0.87365738  0.55771840  1
  Al  Al27  1  0.78164952  0.76642740  0.31281214  1
  Al  Al28  1  0.89041794  0.87732395  0.05844767  1
  Al  Al29  1  0.43241147  0.77365461  0.80538940  1
  Al  Al30  1  0.55942957  0.87508998  0.62253329  1
  Gd  Gd31  1  0.22259811  0.20175571  0.58218270  1
  Gd  Gd32  1  0.77163002  0.10784847  0.36558698  1
  Gd  Gd33  1  0.89382523  0.54860986  0.07534498  1
  Gd  Gd34  1  0.42878995  0.42521658  0.83524324  1
  Gd  Gd35  1  0.55469637  0.53436600  0.56722318  1
  N  N36  1  0.22371522  0.20143196  0.36146999  1
  N  N37  1  0.12152969  0.09045018  0.10443937  1
  N  N38  1  0.87638067  0.21265972  0.82213140  1
  N  N39  1  0.78426651  0.08977740  0.58415316  1
  N  N40  1  0.52300450  0.21618403  0.29321688  1
  N  N41  1  0.44816040  0.09021589  0.05595122  1
  N  N42  1  0.21546010  0.21119025  0.85564408  1
  N  N43  1  0.10195162  0.06910600  0.63547775  1
  N  N44  1  0.90564126  0.22095354  0.29491188  1
  N  N45  1  0.77381697  0.10366278  0.06693342  1
  N  N46  1  0.57458405  0.16409875  0.81534884  1
  N  N47  1  0.48734721  0.07119718  0.55035023  1
  N  N48  1  0.22813620  0.53976561  0.36616564  1
  N  N49  1  0.14999243  0.40621261  0.12789452  1
  N  N50  1  0.87959507  0.54247393  0.85400088  1
  N  N51  1  0.82035995  0.39815755  0.55145636  1
  N  N52  1  0.56043046  0.53270142  0.34424380  1
  N  N53  1  0.43696381  0.44032133  0.09520258  1
  N  N54  1  0.17354736  0.56193215  0.88448979  1
  N  N55  1  0.09576633  0.46084892  0.62330450  1
  N  N56  1  0.89901605  0.54387820  0.35264487  1
  N  N57  1  0.76471000  0.41711712  0.05946871  1
  N  N58  1  0.55352119  0.56285233  0.86032603  1
  N  N59  1  0.42914718  0.40340058  0.61518710  1
  N  N60  1  0.22051448  0.87338956  0.36613454  1
  N  N61  1  0.10715532  0.76694791  0.12361191  1
  N  N62  1  0.88968072  0.86815470  0.86996695  1
  N  N63  1  0.78387595  0.75455855  0.61540056  1
  N  N64  1  0.55062372  0.87438458  0.31826224  1
  N  N65  1  0.43923937  0.76469353  0.11570291  1
  N  N66  1  0.21866129  0.86880478  0.87346344  1
  N  N67  1  0.11802136  0.75427107  0.62158006  1
  N  N68  1  0.90857771  0.84387221  0.38040180  1
  N  N69  1  0.76695554  0.80155808  0.13058739  1
  N  N70  1  0.55606800  0.87261520  0.81286825  1
  N  N71  1  0.42199589  0.79078672  0.61887573  1
