# generated using pymatgen
data_Gd5Al31N36
_symmetry_space_group_name_H-M   'P 1'
_cell_length_a   9.74526201
_cell_length_b   9.71775593
_cell_length_c   10.43160768
_cell_angle_alpha   90.10226415
_cell_angle_beta   90.35497763
_cell_angle_gamma   60.21302833
_symmetry_Int_Tables_number   1
_chemical_formula_structural   Gd5Al31N36
_chemical_formula_sum   'Gd5 Al31 N36'
_cell_volume   857.35529322
_cell_formula_units_Z   1
loop_
 _symmetry_equiv_pos_site_id
 _symmetry_equiv_pos_as_xyz
  1  'x, y, z'
loop_
 _atom_site_type_symbol
 _atom_site_label
 _atom_site_symmetry_multiplicity
 _atom_site_fract_x
 _atom_site_fract_y
 _atom_site_fract_z
 _atom_site_occupancy
  Al  Al0  1  0.12639450  0.09192472  0.29490080  1
  Al  Al1  1  0.22477540  0.20589042  0.05122240  1
  Al  Al2  1  0.77754215  0.09263019  0.87620839  1
  Al  Al3  1  0.88632163  0.19970880  0.64092426  1
  Al  Al4  1  0.44854568  0.09093879  0.37165560  1
  Al  Al5  1  0.55101964  0.20281995  0.11442405  1
  Al  Al6  1  0.11129611  0.08468563  0.81920953  1
  Al  Al7  1  0.88916512  0.20728522  0.11325533  1
  Al  Al8  1  0.45623275  0.07664235  0.87506873  1
  Al  Al9  1  0.56997572  0.18011309  0.63385348  1
  Al  Al10  1  0.12819445  0.41742480  0.30837965  1
  Al  Al11  1  0.21503704  0.54746883  0.06285602  1
  Al  Al12  1  0.77598890  0.42813666  0.87509975  1
  Al  Al13  1  0.89424547  0.54042039  0.55035663  1
  Al  Al14  1  0.43218816  0.43744361  0.28857792  1
  Al  Al15  1  0.54707791  0.55320282  0.05707520  1
  Al  Al16  1  0.09212862  0.44242788  0.80350628  1
  Al  Al17  1  0.22105138  0.53835759  0.55517294  1
  Al  Al18  1  0.78605917  0.43092941  0.33085407  1
  Al  Al19  1  0.11180001  0.75946243  0.31089646  1
  Al  Al20  1  0.22276289  0.87088611  0.05666176  1
  Al  Al21  1  0.78254472  0.75795519  0.80151654  1
  Al  Al22  1  0.89916077  0.85728846  0.56465050  1
  Al  Al23  1  0.43709872  0.76161000  0.30242439  1
  Al  Al24  1  0.54667607  0.88871025  0.13133264  1
  Al  Al25  1  0.10143264  0.76541016  0.80971688  1
  Al  Al26  1  0.21413799  0.87157687  0.55968627  1
  Al  Al27  1  0.78065735  0.76784114  0.31312885  1
  Al  Al28  1  0.89012977  0.87888205  0.05924033  1
  Al  Al29  1  0.43541020  0.77065959  0.80603694  1
  Al  Al30  1  0.55912715  0.87398296  0.62204168  1
  Gd  Gd31  1  0.21982268  0.20100156  0.58151901  1
  Gd  Gd32  1  0.77115264  0.11077295  0.37034746  1
  Gd  Gd33  1  0.89801366  0.55363467  0.07003202  1
  Gd  Gd34  1  0.42977061  0.42755298  0.83351709  1
  Gd  Gd35  1  0.55761243  0.53155658  0.55894559  1
  N  N36  1  0.22327736  0.20173229  0.36085932  1
  N  N37  1  0.12242178  0.08987237  0.10380711  1
  N  N38  1  0.87922954  0.21056538  0.82952893  1
  N  N39  1  0.78497809  0.08780118  0.58884183  1
  N  N40  1  0.52385535  0.21604367  0.29378082  1
  N  N41  1  0.44832261  0.09023859  0.05617949  1
  N  N42  1  0.21601178  0.21086118  0.85583176  1
  N  N43  1  0.10206581  0.06667575  0.63835258  1
  N  N44  1  0.90590284  0.21908312  0.29393353  1
  N  N45  1  0.77334760  0.10458832  0.06651698  1
  N  N46  1  0.57341888  0.16599958  0.81675168  1
  N  N47  1  0.48564168  0.07129513  0.55131518  1
  N  N48  1  0.22685559  0.54037837  0.36581705  1
  N  N49  1  0.15124744  0.40622706  0.12828453  1
  N  N50  1  0.88058376  0.54213652  0.85231908  1
  N  N51  1  0.81812431  0.39849928  0.56471923  1
  N  N52  1  0.55761588  0.53480237  0.33624990  1
  N  N53  1  0.43775925  0.43958528  0.09482932  1
  N  N54  1  0.17402597  0.56091298  0.88425675  1
  N  N55  1  0.09559243  0.46031014  0.62123825  1
  N  N56  1  0.89596029  0.54406071  0.35060970  1
  N  N57  1  0.76707452  0.42254875  0.07193042  1
  N  N58  1  0.55646846  0.56218290  0.86707563  1
  N  N59  1  0.43086308  0.40296102  0.61395678  1
  N  N60  1  0.21958727  0.87412524  0.36705186  1
  N  N61  1  0.10716700  0.76679166  0.12370419  1
  N  N62  1  0.88975550  0.86715866  0.87042364  1
  N  N63  1  0.78374201  0.75334512  0.61400058  1
  N  N64  1  0.54981502  0.87507289  0.31869108  1
  N  N65  1  0.43785373  0.76697849  0.11578264  1
  N  N66  1  0.22077422  0.86595746  0.87364174  1
  N  N67  1  0.11816458  0.75282473  0.62185065  1
  N  N68  1  0.90735044  0.84575563  0.38066692  1
  N  N69  1  0.76630486  0.80384380  0.13142965  1
  N  N70  1  0.55658276  0.87249706  0.81273381  1
  N  N71  1  0.42398835  0.78672324  0.61948489  1
