# generated using pymatgen
data_Gd5Al31N36
_symmetry_space_group_name_H-M   'P 1'
_cell_length_a   9.75436916
_cell_length_b   9.77572906
_cell_length_c   10.20617709
_cell_angle_alpha   89.62782814
_cell_angle_beta   89.75080370
_cell_angle_gamma   60.06674191
_symmetry_Int_Tables_number   1
_chemical_formula_structural   Gd5Al31N36
_chemical_formula_sum   'Gd5 Al31 N36'
_cell_volume   843.38183748
_cell_formula_units_Z   1
loop_
 _symmetry_equiv_pos_site_id
 _symmetry_equiv_pos_as_xyz
  1  'x, y, z'
loop_
 _atom_site_type_symbol
 _atom_site_label
 _atom_site_symmetry_multiplicity
 _atom_site_fract_x
 _atom_site_fract_y
 _atom_site_fract_z
 _atom_site_occupancy
  Al  Al0  1  0.11398900  0.09572724  0.30467607  1
  Al  Al1  1  0.21923084  0.20759125  0.05802355  1
  Al  Al2  1  0.79420781  0.08290821  0.80872888  1
  Al  Al3  1  0.90051700  0.19939726  0.56548184  1
  Al  Al4  1  0.44106209  0.09189966  0.34812572  1
  Al  Al5  1  0.54868819  0.20480638  0.11230162  1
  Al  Al6  1  0.10853575  0.08717054  0.81598781  1
  Al  Al7  1  0.88371005  0.20304550  0.05555246  1
  Al  Al8  1  0.45010384  0.08652400  0.86866596  1
  Al  Al9  1  0.56323722  0.18985319  0.63129631  1
  Al  Al10  1  0.12155450  0.42114458  0.31024296  1
  Al  Al11  1  0.21033153  0.55083675  0.06440911  1
  Al  Al12  1  0.78937731  0.42650996  0.80731812  1
  Al  Al13  1  0.89136203  0.54303582  0.55642560  1
  Al  Al14  1  0.43109004  0.43980701  0.29267886  1
  Al  Al15  1  0.55740677  0.54580098  0.06202692  1
  Al  Al16  1  0.09769894  0.44510769  0.80379810  1
  Al  Al17  1  0.22080208  0.54192206  0.55540401  1
  Al  Al18  1  0.78125205  0.42449753  0.30736316  1
  Al  Al19  1  0.11230149  0.75756371  0.31195599  1
  Al  Al20  1  0.21977932  0.87335661  0.06144430  1
  Al  Al21  1  0.77473362  0.76305220  0.80282725  1
  Al  Al22  1  0.89892509  0.85730145  0.56598195  1
  Al  Al23  1  0.44136521  0.76338162  0.30288771  1
  Al  Al24  1  0.55477408  0.87442192  0.06094435  1
  Al  Al25  1  0.10712844  0.76423175  0.81064160  1
  Al  Al26  1  0.21806642  0.87188050  0.56211238  1
  Al  Al27  1  0.77795098  0.76060570  0.31378520  1
  Al  Al28  1  0.88323078  0.88259216  0.05549194  1
  Al  Al29  1  0.44484652  0.77156586  0.81267831  1
  Al  Al30  1  0.56187953  0.86721879  0.55604263  1
  Gd  Gd31  1  0.22170618  0.20446140  0.58031108  1
  Gd  Gd32  1  0.77660921  0.09328654  0.33341884  1
  Gd  Gd33  1  0.88836041  0.54501296  0.06737586  1
  Gd  Gd34  1  0.43938224  0.42822681  0.84250517  1
  Gd  Gd35  1  0.55655185  0.53630426  0.56253276  1
  N  N36  1  0.22199515  0.20098403  0.35295618  1
  N  N37  1  0.10757945  0.09622095  0.11278008  1
  N  N38  1  0.88841734  0.20623395  0.86759889  1
  N  N39  1  0.78918140  0.08760714  0.60716694  1
  N  N40  1  0.51846538  0.22191993  0.29858030  1
  N  N41  1  0.44037784  0.09647985  0.06614797  1
  N  N42  1  0.21533791  0.21191059  0.85507045  1
  N  N43  1  0.09931032  0.07075857  0.63368146  1
  N  N44  1  0.90823875  0.21915068  0.37862874  1
  N  N45  1  0.77624132  0.09629060  0.10237885  1
  N  N46  1  0.57652654  0.16925179  0.82145811  1
  N  N47  1  0.47731030  0.07769808  0.57122153  1
  N  N48  1  0.22361155  0.54059830  0.36431865  1
  N  N49  1  0.14123141  0.41302210  0.12621254  1
  N  N50  1  0.88549186  0.54422217  0.85055798  1
  N  N51  1  0.81228194  0.41049461  0.62169625  1
  N  N52  1  0.55221157  0.53826953  0.34154316  1
  N  N53  1  0.43643112  0.44138013  0.09405270  1
  N  N54  1  0.18026102  0.56132479  0.88196372  1
  N  N55  1  0.09567819  0.46352062  0.61823850  1
  N  N56  1  0.88947879  0.53767191  0.35792738  1
  N  N57  1  0.76711001  0.41056367  0.12287518  1
  N  N58  1  0.57533149  0.55538007  0.86819371  1
  N  N59  1  0.42964782  0.41015396  0.61557294  1
  N  N60  1  0.22073425  0.87268884  0.36709513  1
  N  N61  1  0.10404758  0.76862010  0.12226172  1
  N  N62  1  0.89031914  0.86989065  0.86367474  1
  N  N63  1  0.77565317  0.75875426  0.61500260  1
  N  N64  1  0.55672383  0.86357490  0.36346268  1
  N  N65  1  0.44200271  0.76696956  0.11552520  1
  N  N66  1  0.22383782  0.86773833  0.87415451  1
  N  N67  1  0.11965969  0.75504710  0.62091439  1
  N  N68  1  0.90704334  0.83674994  0.38191927  1
  N  N69  1  0.76058121  0.79832175  0.12907682  1
  N  N70  1  0.56250889  0.86486533  0.87052811  1
  N  N71  1  0.42962816  0.79133746  0.62507981  1
