# generated using pymatgen
data_Gd5Al31N36
_symmetry_space_group_name_H-M   'P 1'
_cell_length_a   9.76478079
_cell_length_b   9.73497600
_cell_length_c   10.31525130
_cell_angle_alpha   89.72719667
_cell_angle_beta   89.96524707
_cell_angle_gamma   59.95968668
_symmetry_Int_Tables_number   1
_chemical_formula_structural   Gd5Al31N36
_chemical_formula_sum   'Gd5 Al31 N36'
_cell_volume   848.83919753
_cell_formula_units_Z   1
loop_
 _symmetry_equiv_pos_site_id
 _symmetry_equiv_pos_as_xyz
  1  'x, y, z'
loop_
 _atom_site_type_symbol
 _atom_site_label
 _atom_site_symmetry_multiplicity
 _atom_site_fract_x
 _atom_site_fract_y
 _atom_site_fract_z
 _atom_site_occupancy
  Al  Al0  1  0.11625301  0.09846306  0.30805516  1
  Al  Al1  1  0.22055877  0.20632315  0.05663119  1
  Al  Al2  1  0.78977666  0.08543247  0.82270616  1
  Al  Al3  1  0.89910089  0.20181497  0.56366907  1
  Al  Al4  1  0.44824407  0.08971934  0.37122471  1
  Al  Al5  1  0.54649977  0.20484214  0.11504737  1
  Al  Al6  1  0.10577548  0.08883755  0.81539837  1
  Al  Al7  1  0.88366350  0.20547319  0.05725331  1
  Al  Al8  1  0.45638224  0.07829168  0.87627291  1
  Al  Al9  1  0.56809304  0.18623531  0.62641799  1
  Al  Al10  1  0.12388487  0.41809070  0.31240390  1
  Al  Al11  1  0.21125097  0.54923344  0.06413390  1
  Al  Al12  1  0.78665679  0.42890104  0.80669850  1
  Al  Al13  1  0.89151795  0.54289542  0.55620718  1
  Al  Al14  1  0.43061356  0.43829762  0.29267323  1
  Al  Al15  1  0.55521584  0.54644581  0.06116637  1
  Al  Al16  1  0.09765679  0.44383967  0.80491101  1
  Al  Al17  1  0.21910904  0.54170098  0.55574043  1
  Al  Al18  1  0.77976076  0.42676106  0.30764438  1
  Al  Al19  1  0.11220509  0.75678545  0.31143066  1
  Al  Al20  1  0.21879431  0.87415440  0.06131684  1
  Al  Al21  1  0.78487543  0.75940789  0.80386757  1
  Al  Al22  1  0.89790264  0.86063704  0.56332391  1
  Al  Al23  1  0.43477391  0.76259917  0.30362775  1
  Al  Al24  1  0.54778971  0.88561365  0.13007099  1
  Al  Al25  1  0.10685230  0.76444683  0.80978597  1
  Al  Al26  1  0.21417234  0.87356129  0.56109226  1
  Al  Al27  1  0.78100867  0.75940906  0.31481551  1
  Al  Al28  1  0.88635165  0.88019586  0.05617859  1
  Al  Al29  1  0.43938362  0.76984725  0.81341341  1
  Al  Al30  1  0.56070752  0.87453136  0.62498780  1
  Gd  Gd31  1  0.22812188  0.20125226  0.58817779  1
  Gd  Gd32  1  0.77892599  0.09388224  0.33030201  1
  Gd  Gd33  1  0.88925401  0.54291719  0.06759630  1
  Gd  Gd34  1  0.43888156  0.42545560  0.83980508  1
  Gd  Gd35  1  0.55397363  0.53643757  0.56043451  1
  N  N36  1  0.22446049  0.20127966  0.36330926  1
  N  N37  1  0.10834578  0.09773232  0.11569016  1
  N  N38  1  0.88710699  0.20878706  0.87016603  1
  N  N39  1  0.78896500  0.08976355  0.59884548  1
  N  N40  1  0.51925609  0.21916087  0.29781109  1
  N  N41  1  0.44497536  0.09126415  0.05924397  1
  N  N42  1  0.21620454  0.21049143  0.85588293  1
  N  N43  1  0.09765256  0.07387602  0.63409147  1
  N  N44  1  0.90855961  0.22130516  0.37816763  1
  N  N45  1  0.77390978  0.09793217  0.09580740  1
  N  N46  1  0.57461943  0.16534679  0.81376712  1
  N  N47  1  0.48937414  0.07021515  0.55152270  1
  N  N48  1  0.22397875  0.53983774  0.36589838  1
  N  N49  1  0.14346994  0.41042167  0.12871858  1
  N  N50  1  0.88600104  0.54300264  0.85278533  1
  N  N51  1  0.80883706  0.41373278  0.62285353  1
  N  N52  1  0.55070863  0.53814593  0.34227735  1
  N  N53  1  0.43629087  0.43969798  0.09410199  1
  N  N54  1  0.18055429  0.56046481  0.88264595  1
  N  N55  1  0.09591647  0.46129394  0.62038187  1
  N  N56  1  0.88921459  0.53792514  0.36005776  1
  N  N57  1  0.76433057  0.41285461  0.12504053  1
  N  N58  1  0.57321667  0.55545505  0.87012786  1
  N  N59  1  0.42824212  0.40799675  0.61527354  1
  N  N60  1  0.21743334  0.87383622  0.36836459  1
  N  N61  1  0.10533666  0.76792506  0.12313397  1
  N  N62  1  0.89257318  0.86922079  0.86685408  1
  N  N63  1  0.78401496  0.75656883  0.61625533  1
  N  N64  1  0.54997673  0.87342548  0.31913320  1
  N  N65  1  0.43766797  0.76591471  0.11470309  1
  N  N66  1  0.22079082  0.86966314  0.87514044  1
  N  N67  1  0.11783024  0.75581150  0.62163405  1
  N  N68  1  0.90783015  0.83722687  0.38113001  1
  N  N69  1  0.76914774  0.79400990  0.12825167  1
  N  N70  1  0.55895499  0.87233701  0.81783152  1
  N  N71  1  0.42317706  0.78987122  0.62399498  1
