# generated using pymatgen
data_Gd5Al31N36
_symmetry_space_group_name_H-M   'P 1'
_cell_length_a   9.70823680
_cell_length_b   9.71434266
_cell_length_c   10.23503119
_cell_angle_alpha   90.05008232
_cell_angle_beta   90.08566188
_cell_angle_gamma   59.97744398
_symmetry_Int_Tables_number   1
_chemical_formula_structural   Gd5Al31N36
_chemical_formula_sum   'Gd5 Al31 N36'
_cell_volume   835.74605635
_cell_formula_units_Z   1
loop_
 _symmetry_equiv_pos_site_id
 _symmetry_equiv_pos_as_xyz
  1  'x, y, z'
loop_
 _atom_site_type_symbol
 _atom_site_label
 _atom_site_symmetry_multiplicity
 _atom_site_fract_x
 _atom_site_fract_y
 _atom_site_fract_z
 _atom_site_occupancy
  Al  Al0  1  0.11093294  0.09253064  0.39189512  1
  Al  Al1  1  0.22933418  0.20198757  0.15151860  1
  Al  Al2  1  0.78151543  0.08753840  0.90110795  1
  Al  Al3  1  0.89267937  0.19775503  0.65971440  1
  Al  Al4  1  0.45010856  0.08901031  0.39524817  1
  Al  Al5  1  0.55236714  0.20585934  0.15275507  1
  Al  Al6  1  0.11295636  0.09299433  0.90658921  1
  Al  Al7  1  0.88894951  0.20582939  0.14237776  1
  Al  Al8  1  0.44629570  0.08716321  0.90753526  1
  Al  Al9  1  0.56165962  0.19247589  0.65567979  1
  Al  Al10  1  0.10758932  0.43464091  0.40351720  1
  Al  Al11  1  0.22540287  0.54037906  0.15836066  1
  Al  Al12  1  0.77683130  0.42832421  0.89905512  1
  Al  Al13  1  0.89262839  0.54040389  0.65440804  1
  Al  Al14  1  0.43423529  0.42342904  0.39733057  1
  Al  Al15  1  0.55399194  0.53908712  0.16205453  1
  Al  Al16  1  0.11288208  0.42694320  0.90081030  1
  Al  Al17  1  0.20945445  0.54592161  0.64652486  1
  Al  Al18  1  0.79362460  0.42361890  0.40481983  1
  Al  Al19  1  0.11350916  0.75591676  0.39889766  1
  Al  Al20  1  0.22176017  0.87114728  0.14774833  1
  Al  Al21  1  0.77186276  0.76956602  0.89472640  1
  Al  Al22  1  0.89103777  0.86994588  0.65796536  1
  Al  Al23  1  0.43704130  0.77557907  0.39497499  1
  Al  Al24  1  0.55396276  0.87745457  0.14906569  1
  Al  Al25  1  0.10589407  0.76417798  0.89931659  1
  Al  Al26  1  0.21219701  0.87590619  0.64717737  1
  Al  Al27  1  0.77924609  0.75689298  0.40712315  1
  Al  Al28  1  0.88962311  0.87138552  0.14472149  1
  Al  Al29  1  0.44530181  0.76716654  0.90258462  1
  Al  Al30  1  0.55856490  0.87568497  0.64975526  1
  Gd  Gd31  1  0.22617309  0.19724072  0.63738294  1
  Gd  Gd32  1  0.78502574  0.09232037  0.39875066  1
  Gd  Gd33  1  0.88821926  0.54143064  0.14205258  1
  Gd  Gd34  1  0.44087884  0.43053115  0.90305535  1
  Gd  Gd35  1  0.55326836  0.54560800  0.62691340  1
  N  N36  1  0.22431686  0.20436350  0.34989434  1
  N  N37  1  0.11389712  0.09315227  0.09366288  1
  N  N38  1  0.89165277  0.20385572  0.84852993  1
  N  N39  1  0.77971176  0.09301760  0.61795606  1
  N  N40  1  0.53337368  0.21395647  0.33461106  1
  N  N41  1  0.44504661  0.09340639  0.09531245  1
  N  N42  1  0.22376053  0.20315545  0.85865873  1
  N  N43  1  0.08833926  0.07845004  0.57658047  1
  N  N44  1  0.90383711  0.22350983  0.32465842  1
  N  N45  1  0.77854068  0.09367731  0.09721656  1
  N  N46  1  0.56709495  0.17639096  0.84276429  1
  N  N47  1  0.48163962  0.07561855  0.57752873  1
  N  N48  1  0.21848703  0.54063497  0.34440547  1
  N  N49  1  0.14533342  0.41394185  0.08691831  1
  N  N50  1  0.88954231  0.53876922  0.85124022  1
  N  N51  1  0.81449808  0.40610789  0.59171676  1
  N  N52  1  0.55751892  0.53991032  0.36030247  1
  N  N53  1  0.44435833  0.43186848  0.12132221  1
  N  N54  1  0.19103062  0.55595707  0.83100293  1
  N  N55  1  0.09642568  0.45328947  0.58646608  1
  N  N56  1  0.88781266  0.54211499  0.35940980  1
  N  N57  1  0.75808319  0.41639336  0.08314871  1
  N  N58  1  0.56634938  0.55766048  0.84322340  1
  N  N59  1  0.42696909  0.40783590  0.59173075  1
  N  N60  1  0.21879374  0.87100242  0.33493554  1
  N  N61  1  0.11330699  0.75876033  0.08886231  1
  N  N62  1  0.89079678  0.87124734  0.84434111  1
  N  N63  1  0.77809131  0.75994037  0.59897724  1
  N  N64  1  0.56087233  0.86912271  0.33676832  1
  N  N65  1  0.44525363  0.76170931  0.09574315  1
  N  N66  1  0.22132210  0.87261075  0.84141398  1
  N  N67  1  0.10944640  0.76224910  0.58859188  1
  N  N68  1  0.90309991  0.83982842  0.33121526  1
  N  N69  1  0.75997002  0.79338053  0.07793744  1
  N  N70  1  0.55096273  0.87535527  0.83910963  1
  N  N71  1  0.42043663  0.80642355  0.58021416  1
