# generated using pymatgen
data_Gd5Al31N36
_symmetry_space_group_name_H-M   'P 1'
_cell_length_a   9.74605253
_cell_length_b   9.71785471
_cell_length_c   10.43294447
_cell_angle_alpha   90.07296072
_cell_angle_beta   90.35688427
_cell_angle_gamma   60.20883466
_symmetry_Int_Tables_number   1
_chemical_formula_structural   Gd5Al31N36
_chemical_formula_sum   'Gd5 Al31 N36'
_cell_volume   857.50639018
_cell_formula_units_Z   1
loop_
 _symmetry_equiv_pos_site_id
 _symmetry_equiv_pos_as_xyz
  1  'x, y, z'
loop_
 _atom_site_type_symbol
 _atom_site_label
 _atom_site_symmetry_multiplicity
 _atom_site_fract_x
 _atom_site_fract_y
 _atom_site_fract_z
 _atom_site_occupancy
  Al  Al0  1  0.12640739  0.09193595  0.29475279  1
  Al  Al1  1  0.22469982  0.20584873  0.05118410  1
  Al  Al2  1  0.77762810  0.09285314  0.87599717  1
  Al  Al3  1  0.88622085  0.19997795  0.63958987  1
  Al  Al4  1  0.44858485  0.09083732  0.37153240  1
  Al  Al5  1  0.55102441  0.20286847  0.11438710  1
  Al  Al6  1  0.11078839  0.08513339  0.81880741  1
  Al  Al7  1  0.88842160  0.20833775  0.11377819  1
  Al  Al8  1  0.45626437  0.07660127  0.87507568  1
  Al  Al9  1  0.57002614  0.18010619  0.63375347  1
  Al  Al10  1  0.12854252  0.41743708  0.30833501  1
  Al  Al11  1  0.21477831  0.54759298  0.06293600  1
  Al  Al12  1  0.77568417  0.42785151  0.87663319  1
  Al  Al13  1  0.89495938  0.54141962  0.55020964  1
  Al  Al14  1  0.43277460  0.43748135  0.28893509  1
  Al  Al15  1  0.54729672  0.55286560  0.05674492  1
  Al  Al16  1  0.09190670  0.44254126  0.80395549  1
  Al  Al17  1  0.22079580  0.53844773  0.55519022  1
  Al  Al18  1  0.78911443  0.42795696  0.34345108  1
  Al  Al19  1  0.11195421  0.75938818  0.31082776  1
  Al  Al20  1  0.22267108  0.87100225  0.05670330  1
  Al  Al21  1  0.78255648  0.75784459  0.80185876  1
  Al  Al22  1  0.89909598  0.85753280  0.56458695  1
  Al  Al23  1  0.43775812  0.76091585  0.30261571  1
  Al  Al24  1  0.54669487  0.88863854  0.13132444  1
  Al  Al25  1  0.10139218  0.76549010  0.80977212  1
  Al  Al26  1  0.21381549  0.87201028  0.55934307  1
  Al  Al27  1  0.78076267  0.76775326  0.31301142  1
  Al  Al28  1  0.89016409  0.87871320  0.05908596  1
  Al  Al29  1  0.43488876  0.77117968  0.80602268  1
  Al  Al30  1  0.55911484  0.87418124  0.62213624  1
  Gd  Gd31  1  0.22040220  0.20096410  0.58153506  1
  Gd  Gd32  1  0.77119437  0.11027369  0.36958519  1
  Gd  Gd33  1  0.89717854  0.55268044  0.07123755  1
  Gd  Gd34  1  0.42962781  0.42722377  0.83392219  1
  Gd  Gd35  1  0.55613544  0.53248233  0.56055277  1
  N  N36  1  0.22330336  0.20172049  0.36091907  1
  N  N37  1  0.12224614  0.08999068  0.10385777  1
  N  N38  1  0.87845959  0.21132516  0.82749729  1
  N  N39  1  0.78478888  0.08811160  0.58815640  1
  N  N40  1  0.52375884  0.21602772  0.29368617  1
  N  N41  1  0.44830581  0.09026323  0.05613250  1
  N  N42  1  0.21593684  0.21085798  0.85578040  1
  N  N43  1  0.10187448  0.06724561  0.63780939  1
  N  N44  1  0.90572630  0.21958265  0.29392460  1
  N  N45  1  0.77353779  0.10452116  0.06647625  1
  N  N46  1  0.57357052  0.16573542  0.81655686  1
  N  N47  1  0.48589522  0.07125135  0.55116555  1
  N  N48  1  0.22712414  0.54029921  0.36588118  1
  N  N49  1  0.15113177  0.40621155  0.12818379  1
  N  N50  1  0.88034604  0.54203906  0.85229129  1
  N  N51  1  0.81859969  0.39776689  0.55735037  1
  N  N52  1  0.55829749  0.53439264  0.33780958  1
  N  N53  1  0.43771483  0.43970499  0.09494009  1
  N  N54  1  0.17396881  0.56104489  0.88428341  1
  N  N55  1  0.09555343  0.46019875  0.62164267  1
  N  N56  1  0.89688780  0.54439752  0.35096425  1
  N  N57  1  0.76705577  0.42112386  0.06733228  1
  N  N58  1  0.55577266  0.56245666  0.86567989  1
  N  N59  1  0.43044855  0.40295855  0.61413032  1
  N  N60  1  0.21971730  0.87403884  0.36692451  1
  N  N61  1  0.10717670  0.76681174  0.12368761  1
  N  N62  1  0.88971871  0.86733723  0.87028847  1
  N  N63  1  0.78368827  0.75349475  0.61420290  1
  N  N64  1  0.54991492  0.87503436  0.31863969  1
  N  N65  1  0.43810974  0.76659741  0.11576610  1
  N  N66  1  0.22033748  0.86649067  0.87357909  1
  N  N67  1  0.11814883  0.75296353  0.62181591  1
  N  N68  1  0.90751657  0.84558185  0.38066294  1
  N  N69  1  0.76634637  0.80363865  0.13128028  1
  N  N70  1  0.55648257  0.87255549  0.81268323  1
  N  N71  1  0.42349230  0.78753026  0.61939080  1
