# generated using pymatgen
data_Gd5Al31N36
_symmetry_space_group_name_H-M   'P 1'
_cell_length_a   9.74161211
_cell_length_b   9.75074451
_cell_length_c   10.25274275
_cell_angle_alpha   89.62737159
_cell_angle_beta   89.94151522
_cell_angle_gamma   60.14825983
_symmetry_Int_Tables_number   1
_chemical_formula_structural   Gd5Al31N36
_chemical_formula_sum   'Gd5 Al31 N36'
_cell_volume   844.64766004
_cell_formula_units_Z   1
loop_
 _symmetry_equiv_pos_site_id
 _symmetry_equiv_pos_as_xyz
  1  'x, y, z'
loop_
 _atom_site_type_symbol
 _atom_site_label
 _atom_site_symmetry_multiplicity
 _atom_site_fract_x
 _atom_site_fract_y
 _atom_site_fract_z
 _atom_site_occupancy
  Al  Al0  1  0.11511096  0.09810144  0.30744358  1
  Al  Al1  1  0.21844266  0.20866949  0.05835034  1
  Al  Al2  1  0.79428686  0.08141060  0.80567942  1
  Al  Al3  1  0.90103911  0.20140959  0.56338980  1
  Al  Al4  1  0.44454490  0.09461006  0.36523967  1
  Al  Al5  1  0.54642635  0.20634119  0.11652539  1
  Al  Al6  1  0.10669127  0.08795146  0.81586849  1
  Al  Al7  1  0.88193658  0.20478687  0.05554593  1
  Al  Al8  1  0.45408785  0.08247137  0.87702763  1
  Al  Al9  1  0.56691181  0.18752433  0.62613410  1
  Al  Al10  1  0.12206039  0.41912980  0.31261509  1
  Al  Al11  1  0.20978671  0.55098849  0.06447478  1
  Al  Al12  1  0.78708592  0.42684294  0.80631371  1
  Al  Al13  1  0.89119657  0.54165776  0.55567992  1
  Al  Al14  1  0.43014292  0.44061590  0.29329908  1
  Al  Al15  1  0.55507132  0.54663826  0.05969944  1
  Al  Al16  1  0.09580674  0.44608577  0.80421901  1
  Al  Al17  1  0.21945714  0.54186433  0.55501157  1
  Al  Al18  1  0.77897630  0.42602203  0.30740338  1
  Al  Al19  1  0.11186875  0.75787803  0.31155183  1
  Al  Al20  1  0.21827345  0.87499710  0.06140337  1
  Al  Al21  1  0.77393862  0.76322285  0.80347996  1
  Al  Al22  1  0.90035230  0.85727171  0.56542139  1
  Al  Al23  1  0.43971918  0.76285071  0.30317347  1
  Al  Al24  1  0.55377372  0.87558777  0.07157005  1
  Al  Al25  1  0.10797075  0.76362197  0.81077601  1
  Al  Al26  1  0.21693595  0.87438440  0.56141538  1
  Al  Al27  1  0.77947594  0.75931208  0.31393306  1
  Al  Al28  1  0.88285201  0.88380999  0.05451346  1
  Al  Al29  1  0.44405953  0.77258287  0.81320661  1
  Al  Al30  1  0.56626261  0.86428351  0.55254197  1
  Gd  Gd31  1  0.23212630  0.20071967  0.59095930  1
  Gd  Gd32  1  0.77736561  0.09262600  0.33179661  1
  Gd  Gd33  1  0.88772337  0.54551169  0.06714583  1
  Gd  Gd34  1  0.43985657  0.42133455  0.84241931  1
  Gd  Gd35  1  0.55204766  0.53868526  0.56400640  1
  N  N36  1  0.22244833  0.20191848  0.36190369  1
  N  N37  1  0.10712075  0.09808133  0.11430992  1
  N  N38  1  0.88673330  0.20649610  0.86760527  1
  N  N39  1  0.79251795  0.08707333  0.60627470  1
  N  N40  1  0.51818199  0.22295984  0.29871435  1
  N  N41  1  0.44038354  0.09857352  0.06379128  1
  N  N42  1  0.21656539  0.21104914  0.85444813  1
  N  N43  1  0.09963840  0.07382284  0.63318662  1
  N  N44  1  0.90719191  0.22013380  0.37759144  1
  N  N45  1  0.77391289  0.09796625  0.10146922  1
  N  N46  1  0.57649643  0.16171344  0.81219866  1
  N  N47  1  0.48884291  0.07681742  0.54770000  1
  N  N48  1  0.22299921  0.54106238  0.36489896  1
  N  N49  1  0.14071655  0.41284095  0.12811771  1
  N  N50  1  0.88439161  0.54351322  0.85087458  1
  N  N51  1  0.80820594  0.41245781  0.62120172  1
  N  N52  1  0.55104489  0.53820791  0.34375152  1
  N  N53  1  0.43530565  0.44168041  0.09398411  1
  N  N54  1  0.18071305  0.56036465  0.88225797  1
  N  N55  1  0.09532652  0.46185334  0.61879723  1
  N  N56  1  0.88959524  0.53706029  0.35871649  1
  N  N57  1  0.76435034  0.41292102  0.12278367  1
  N  N58  1  0.57189040  0.55387926  0.86576586  1
  N  N59  1  0.42803591  0.40800191  0.61566427  1
  N  N60  1  0.21954801  0.87349755  0.36773022  1
  N  N61  1  0.10337692  0.76940901  0.12211808  1
  N  N62  1  0.89119606  0.86921769  0.86367978  1
  N  N63  1  0.77730110  0.75827436  0.61576528  1
  N  N64  1  0.55762684  0.86099695  0.35812632  1
  N  N65  1  0.43965139  0.76673952  0.11634249  1
  N  N66  1  0.22268866  0.86912241  0.87438578  1
  N  N67  1  0.12114348  0.75476934  0.62159644  1
  N  N68  1  0.90789533  0.83623311  0.38271744  1
  N  N69  1  0.76295884  0.79811885  0.13045273  1
  N  N70  1  0.56371044  0.86219031  0.87364163  1
  N  N71  1  0.42890101  0.79685962  0.62524563  1
