# generated using pymatgen
data_Gd5Al31N36
_symmetry_space_group_name_H-M   'P 1'
_cell_length_a   9.75625684
_cell_length_b   9.74756964
_cell_length_c   10.39589318
_cell_angle_alpha   89.96144810
_cell_angle_beta   90.37353927
_cell_angle_gamma   60.26719728
_symmetry_Int_Tables_number   1
_chemical_formula_structural   Gd5Al31N36
_chemical_formula_sum   'Gd5 Al31 N36'
_cell_volume   858.46268302
_cell_formula_units_Z   1
loop_
 _symmetry_equiv_pos_site_id
 _symmetry_equiv_pos_as_xyz
  1  'x, y, z'
loop_
 _atom_site_type_symbol
 _atom_site_label
 _atom_site_symmetry_multiplicity
 _atom_site_fract_x
 _atom_site_fract_y
 _atom_site_fract_z
 _atom_site_occupancy
  Al  Al0  1  0.12699622  0.09086239  0.29458880  1
  Al  Al1  1  0.22483392  0.20414410  0.05319277  1
  Al  Al2  1  0.77737679  0.09678737  0.87570131  1
  Al  Al3  1  0.88627334  0.19891339  0.63328621  1
  Al  Al4  1  0.45123684  0.08869090  0.36859306  1
  Al  Al5  1  0.54782066  0.20545122  0.11445522  1
  Al  Al6  1  0.10849485  0.08792807  0.81519169  1
  Al  Al7  1  0.88557410  0.20940349  0.11679379  1
  Al  Al8  1  0.45325547  0.08079275  0.87647205  1
  Al  Al9  1  0.56984327  0.18184675  0.62945660  1
  Al  Al10  1  0.13168185  0.41614477  0.30399091  1
  Al  Al11  1  0.21385213  0.54939968  0.06378564  1
  Al  Al12  1  0.77308068  0.42624367  0.87204832  1
  Al  Al13  1  0.88507894  0.54246111  0.63208319  1
  Al  Al14  1  0.43763113  0.43791979  0.29294354  1
  Al  Al15  1  0.54590470  0.55208891  0.05145164  1
  Al  Al16  1  0.10128218  0.43844471  0.81410438  1
  Al  Al17  1  0.21797621  0.54018173  0.55532774  1
  Al  Al18  1  0.80364689  0.42233222  0.37114100  1
  Al  Al19  1  0.11425607  0.75641286  0.30977200  1
  Al  Al20  1  0.22117413  0.87211938  0.05671536  1
  Al  Al21  1  0.77253687  0.77117458  0.83740260  1
  Al  Al22  1  0.89812314  0.85867194  0.56542465  1
  Al  Al23  1  0.44446993  0.75599947  0.30128080  1
  Al  Al24  1  0.55218247  0.88325480  0.12235871  1
  Al  Al25  1  0.10251259  0.76783533  0.80661112  1
  Al  Al26  1  0.21409596  0.87486369  0.55594378  1
  Al  Al27  1  0.78324265  0.75224854  0.34429037  1
  Al  Al28  1  0.89212939  0.87592506  0.05327310  1
  Al  Al29  1  0.42962660  0.77607521  0.80522806  1
  Al  Al30  1  0.55873530  0.87823764  0.62729030  1
  Gd  Gd31  1  0.21919293  0.20664826  0.57762421  1
  Gd  Gd32  1  0.77404580  0.10222088  0.35892100  1
  Gd  Gd33  1  0.89210772  0.53993514  0.09086997  1
  Gd  Gd34  1  0.42870255  0.42568262  0.83389145  1
  Gd  Gd35  1  0.55236309  0.53752395  0.56812126  1
  N  N36  1  0.22622383  0.19996110  0.35676415  1
  N  N37  1  0.11948850  0.09074092  0.10463681  1
  N  N38  1  0.87632256  0.21250630  0.81957735  1
  N  N39  1  0.78307088  0.09115331  0.57882195  1
  N  N40  1  0.52301045  0.21786601  0.29413713  1
  N  N41  1  0.44669690  0.09143568  0.05796161  1
  N  N42  1  0.21525286  0.21094232  0.85804101  1
  N  N43  1  0.10204820  0.07092302  0.63258667  1
  N  N44  1  0.90596439  0.22143954  0.29881487  1
  N  N45  1  0.77382420  0.10194751  0.07030646  1
  N  N46  1  0.57440860  0.16475357  0.81451619  1
  N  N47  1  0.48498613  0.07183841  0.54951971  1
  N  N48  1  0.22858231  0.53857053  0.36519820  1
  N  N49  1  0.15446159  0.40494456  0.12264744  1
  N  N50  1  0.87724760  0.54048976  0.83051439  1
  N  N51  1  0.82120496  0.40361104  0.56020949  1
  N  N52  1  0.56359312  0.53320449  0.34641175  1
  N  N53  1  0.43759687  0.44121529  0.09544507  1
  N  N54  1  0.17399183  0.56599286  0.88545846  1
  N  N55  1  0.10017825  0.46014645  0.63205018  1
  N  N56  1  0.90007830  0.53705944  0.31965293  1
  N  N57  1  0.76283275  0.41234978  0.05269239  1
  N  N58  1  0.55223155  0.56431460  0.85622872  1
  N  N59  1  0.42867114  0.40429393  0.61333904  1
  N  N60  1  0.22307911  0.87217016  0.36430330  1
  N  N61  1  0.10618683  0.76746408  0.12317287  1
  N  N62  1  0.89364188  0.87532832  0.86434754  1
  N  N63  1  0.77833860  0.76001694  0.61061077  1
  N  N64  1  0.56063600  0.87126886  0.31141574  1
  N  N65  1  0.43887151  0.76412191  0.11376655  1
  N  N66  1  0.21765821  0.87113134  0.87243644  1
  N  N67  1  0.11864853  0.75524492  0.61885822  1
  N  N68  1  0.91000148  0.83900554  0.37853415  1
  N  N69  1  0.75998833  0.79475550  0.07556759  1
  N  N70  1  0.55035240  0.87746148  0.81576199  1
  N  N71  1  0.42157644  0.79313046  0.61896323  1
