# generated using pymatgen
data_Gd5Al31N36
_symmetry_space_group_name_H-M   'P 1'
_cell_length_a   9.70891886
_cell_length_b   9.72060596
_cell_length_c   10.49634655
_cell_angle_alpha   90.13957826
_cell_angle_beta   90.39469055
_cell_angle_gamma   60.23377953
_symmetry_Int_Tables_number   1
_chemical_formula_structural   Gd5Al31N36
_chemical_formula_sum   'Gd5 Al31 N36'
_cell_volume   859.88561152
_cell_formula_units_Z   1
loop_
 _symmetry_equiv_pos_site_id
 _symmetry_equiv_pos_as_xyz
  1  'x, y, z'
loop_
 _atom_site_type_symbol
 _atom_site_label
 _atom_site_symmetry_multiplicity
 _atom_site_fract_x
 _atom_site_fract_y
 _atom_site_fract_z
 _atom_site_occupancy
  Al  Al0  1  0.12926643  0.08895271  0.30426889  1
  Al  Al1  1  0.22200187  0.20606179  0.06292896  1
  Al  Al2  1  0.77669906  0.09813270  0.88616636  1
  Al  Al3  1  0.88599220  0.19796845  0.64678105  1
  Al  Al4  1  0.45371680  0.08632229  0.37943348  1
  Al  Al5  1  0.54716348  0.20583251  0.12506604  1
  Al  Al6  1  0.10889647  0.08849264  0.82597012  1
  Al  Al7  1  0.88628499  0.20858195  0.12778472  1
  Al  Al8  1  0.45214590  0.08196727  0.88634091  1
  Al  Al9  1  0.56921610  0.18112114  0.64140004  1
  Al  Al10  1  0.13513765  0.41468313  0.31719902  1
  Al  Al11  1  0.21168559  0.54916435  0.07369888  1
  Al  Al12  1  0.77500267  0.42946749  0.88417097  1
  Al  Al13  1  0.88228915  0.54445441  0.64245710  1
  Al  Al14  1  0.43926309  0.43750941  0.30260287  1
  Al  Al15  1  0.54590295  0.55143999  0.06087929  1
  Al  Al16  1  0.09685970  0.44235517  0.82495124  1
  Al  Al17  1  0.21788060  0.53980931  0.56609213  1
  Al  Al18  1  0.80758079  0.41782160  0.38694099  1
  Al  Al19  1  0.11499203  0.75656888  0.32013340  1
  Al  Al20  1  0.22272703  0.87131244  0.06682086  1
  Al  Al21  1  0.76633074  0.77213344  0.88169459  1
  Al  Al22  1  0.90070288  0.85966026  0.57488928  1
  Al  Al23  1  0.44786550  0.75495393  0.31136483  1
  Al  Al24  1  0.55377660  0.88386402  0.13465958  1
  Al  Al25  1  0.10193467  0.76845033  0.81745817  1
  Al  Al26  1  0.21507900  0.87430605  0.56682438  1
  Al  Al27  1  0.78250507  0.74760793  0.39560628  1
  Al  Al28  1  0.89342787  0.87665440  0.06200794  1
  Al  Al29  1  0.43125270  0.77605042  0.81469647  1
  Al  Al30  1  0.56094601  0.87597193  0.63638946  1
  Gd  Gd31  1  0.21717964  0.20800813  0.58655016  1
  Gd  Gd32  1  0.77440508  0.10204637  0.37153702  1
  Gd  Gd33  1  0.88210733  0.54530992  0.12569066  1
  Gd  Gd34  1  0.42745188  0.42842728  0.84212248  1
  Gd  Gd35  1  0.55195714  0.53661561  0.57603461  1
  N  N36  1  0.22790885  0.19856261  0.36766274  1
  N  N37  1  0.12061588  0.08934842  0.11620069  1
  N  N38  1  0.87585904  0.21431803  0.83081708  1
  N  N39  1  0.78311825  0.08979247  0.59087731  1
  N  N40  1  0.52329635  0.21691172  0.30336604  1
  N  N41  1  0.44600445  0.09139969  0.06733229  1
  N  N42  1  0.21286805  0.21344502  0.87024472  1
  N  N43  1  0.10309751  0.06999543  0.64504900  1
  N  N44  1  0.90697794  0.22066212  0.30828050  1
  N  N45  1  0.77330342  0.10176418  0.08033111  1
  N  N46  1  0.57277615  0.16712923  0.82518602  1
  N  N47  1  0.48485439  0.07115205  0.55967220  1
  N  N48  1  0.23084072  0.53816437  0.37682235  1
  N  N49  1  0.14760391  0.40807576  0.13467931  1
  N  N50  1  0.87086892  0.54885860  0.83370116  1
  N  N51  1  0.82188093  0.40013395  0.57243598  1
  N  N52  1  0.56678109  0.53156776  0.35717879  1
  N  N53  1  0.43684067  0.44113547  0.10697205  1
  N  N54  1  0.17305475  0.56685686  0.89715773  1
  N  N55  1  0.09916820  0.46146420  0.64398410  1
  N  N56  1  0.90309828  0.53601499  0.34162094  1
  N  N57  1  0.76597453  0.41208565  0.06265880  1
  N  N58  1  0.55208761  0.56605631  0.87067690  1
  N  N59  1  0.42882533  0.40368418  0.62418520  1
  N  N60  1  0.22588387  0.87110622  0.37571292  1
  N  N61  1  0.10574669  0.76731278  0.13420413  1
  N  N62  1  0.89300073  0.87665521  0.87345246  1
  N  N63  1  0.77291392  0.75306944  0.58152162  1
  N  N64  1  0.56780556  0.86803514  0.32030803  1
  N  N65  1  0.44077982  0.76311259  0.12575236  1
  N  N66  1  0.21885302  0.87152865  0.88376724  1
  N  N67  1  0.11928485  0.75458210  0.63085777  1
  N  N68  1  0.91263432  0.84014645  0.38939540  1
  N  N69  1  0.75545251  0.79437175  0.06356528  1
  N  N70  1  0.55399649  0.87813613  0.82075307  1
  N  N71  1  0.42239855  0.79111174  0.63072661  1
