# generated using pymatgen
data_Gd5Al31N36
_symmetry_space_group_name_H-M   'P 1'
_cell_length_a   9.70658155
_cell_length_b   9.71793591
_cell_length_c   10.23432102
_cell_angle_alpha   89.87801095
_cell_angle_beta   90.04259818
_cell_angle_gamma   60.03907682
_symmetry_Int_Tables_number   1
_chemical_formula_structural   Gd5Al31N36
_chemical_formula_sum   'Gd5 Al31 N36'
_cell_volume   836.37097244
_cell_formula_units_Z   1
loop_
 _symmetry_equiv_pos_site_id
 _symmetry_equiv_pos_as_xyz
  1  'x, y, z'
loop_
 _atom_site_type_symbol
 _atom_site_label
 _atom_site_symmetry_multiplicity
 _atom_site_fract_x
 _atom_site_fract_y
 _atom_site_fract_z
 _atom_site_occupancy
  Al  Al0  1  0.11490224  0.09523645  0.30087017  1
  Al  Al1  1  0.22762755  0.20299119  0.05491048  1
  Al  Al2  1  0.78051052  0.08952060  0.80420727  1
  Al  Al3  1  0.89477670  0.20081089  0.56281968  1
  Al  Al4  1  0.43958853  0.09394033  0.30025633  1
  Al  Al5  1  0.56109572  0.19522573  0.05473726  1
  Al  Al6  1  0.10805387  0.08832300  0.81329832  1
  Al  Al7  1  0.88768374  0.20198303  0.04958936  1
  Al  Al8  1  0.45587983  0.08269424  0.81066050  1
  Al  Al9  1  0.55310602  0.20189654  0.55517085  1
  Al  Al10  1  0.11893774  0.42231340  0.30581982  1
  Al  Al11  1  0.21682778  0.54391574  0.06286380  1
  Al  Al12  1  0.78691041  0.42701118  0.80444128  1
  Al  Al13  1  0.89061143  0.54337955  0.55509520  1
  Al  Al14  1  0.43764500  0.42829402  0.29714522  1
  Al  Al15  1  0.55681638  0.54025700  0.06291798  1
  Al  Al16  1  0.10025759  0.44058077  0.80308680  1
  Al  Al17  1  0.21624655  0.54445295  0.55027197  1
  Al  Al18  1  0.78194718  0.42341075  0.30553668  1
  Al  Al19  1  0.11428200  0.75570542  0.30877174  1
  Al  Al20  1  0.22118116  0.87176802  0.05875743  1
  Al  Al21  1  0.77453272  0.76263720  0.80073535  1
  Al  Al22  1  0.89474746  0.86272164  0.56394398  1
  Al  Al23  1  0.44197003  0.76496294  0.30094629  1
  Al  Al24  1  0.55344236  0.87942732  0.05867736  1
  Al  Al25  1  0.10570143  0.76486901  0.80825217  1
  Al  Al26  1  0.21550070  0.87401303  0.56064775  1
  Al  Al27  1  0.77666827  0.76270797  0.31384701  1
  Al  Al28  1  0.88747123  0.87766431  0.04966562  1
  Al  Al29  1  0.44312708  0.77274283  0.81429848  1
  Al  Al30  1  0.55759297  0.87608817  0.55842074  1
  Gd  Gd31  1  0.22210217  0.20166003  0.56793048  1
  Gd  Gd32  1  0.78302696  0.08941602  0.31394373  1
  Gd  Gd33  1  0.88639500  0.54482335  0.06420826  1
  Gd  Gd34  1  0.43749112  0.42891073  0.82400549  1
  Gd  Gd35  1  0.55413676  0.54503806  0.55702460  1
  N  N36  1  0.22434034  0.20094913  0.34774442  1
  N  N37  1  0.11012193  0.09455499  0.10967572  1
  N  N38  1  0.88643479  0.20703000  0.86295057  1
  N  N39  1  0.77675520  0.09449561  0.60678891  1
  N  N40  1  0.52602476  0.21741092  0.36645963  1
  N  N41  1  0.44395447  0.09407913  0.11241073  1
  N  N42  1  0.22247422  0.20701463  0.85692520  1
  N  N43  1  0.09565311  0.07478648  0.63129574  1
  N  N44  1  0.90941007  0.21701815  0.37736422  1
  N  N45  1  0.78197262  0.09265149  0.09567503  1
  N  N46  1  0.57258160  0.17447415  0.87193907  1
  N  N47  1  0.47653645  0.07804170  0.62714724  1
  N  N48  1  0.22345948  0.53880938  0.36055542  1
  N  N49  1  0.13980032  0.41200270  0.12246480  1
  N  N50  1  0.88589319  0.54337417  0.84766895  1
  N  N51  1  0.80825184  0.41315979  0.61909329  1
  N  N52  1  0.55313176  0.53859159  0.33841728  1
  N  N53  1  0.44337577  0.42657754  0.10099861  1
  N  N54  1  0.18295559  0.55993029  0.88054278  1
  N  N55  1  0.09737395  0.45915154  0.61722843  1
  N  N56  1  0.88880217  0.53832537  0.35697362  1
  N  N57  1  0.76899508  0.40706433  0.12201609  1
  N  N58  1  0.57297103  0.55497080  0.86933447  1
  N  N59  1  0.42844772  0.41495348  0.60574139  1
  N  N60  1  0.22161522  0.87231603  0.36577441  1
  N  N61  1  0.10734558  0.76512739  0.11942019  1
  N  N62  1  0.88771640  0.87153952  0.85840613  1
  N  N63  1  0.77430318  0.76020830  0.61281306  1
  N  N64  1  0.55295219  0.87278830  0.36767642  1
  N  N65  1  0.44390317  0.76563291  0.11383623  1
  N  N66  1  0.22198190  0.86836476  0.87222180  1
  N  N67  1  0.11705005  0.75678009  0.61898714  1
  N  N68  1  0.90837759  0.83804669  0.38106876  1
  N  N69  1  0.76199591  0.79865196  0.12869565  1
  N  N70  1  0.55991890  0.87020760  0.87181898  1
  N  N71  1  0.42612688  0.79765166  0.62657966  1
