# generated using pymatgen
data_Gd5Al31N36
_symmetry_space_group_name_H-M   'P 1'
_cell_length_a   9.72194984
_cell_length_b   9.74125138
_cell_length_c   10.37231437
_cell_angle_alpha   90.52276941
_cell_angle_beta   90.62696734
_cell_angle_gamma   60.01262205
_symmetry_Int_Tables_number   1
_chemical_formula_structural   Gd5Al31N36
_chemical_formula_sum   'Gd5 Al31 N36'
_cell_volume   850.74574122
_cell_formula_units_Z   1
loop_
 _symmetry_equiv_pos_site_id
 _symmetry_equiv_pos_as_xyz
  1  'x, y, z'
loop_
 _atom_site_type_symbol
 _atom_site_label
 _atom_site_symmetry_multiplicity
 _atom_site_fract_x
 _atom_site_fract_y
 _atom_site_fract_z
 _atom_site_occupancy
  Al  Al0  1  0.10577287  0.10035877  0.38732519  1
  Al  Al1  1  0.22837318  0.20062597  0.15658728  1
  Al  Al2  1  0.78794509  0.08138624  0.90128079  1
  Al  Al3  1  0.89200800  0.19837309  0.65824858  1
  Al  Al4  1  0.45194172  0.09002313  0.39408833  1
  Al  Al5  1  0.55448075  0.19847291  0.14289423  1
  Al  Al6  1  0.10958944  0.10106739  0.90827568  1
  Al  Al7  1  0.88747167  0.20741442  0.14053817  1
  Al  Al8  1  0.44650131  0.08345590  0.90747507  1
  Al  Al9  1  0.56410378  0.18551202  0.66430235  1
  Al  Al10  1  0.10773205  0.43086635  0.39981344  1
  Al  Al11  1  0.21304407  0.55055780  0.08525132  1
  Al  Al12  1  0.77729425  0.42963583  0.89238448  1
  Al  Al13  1  0.89163469  0.53923530  0.64930692  1
  Al  Al14  1  0.43158766  0.43392139  0.32216630  1
  Al  Al15  1  0.55625410  0.54331924  0.14850655  1
  Al  Al16  1  0.10673399  0.42599695  0.90422200  1
  Al  Al17  1  0.22135540  0.54131181  0.58286495  1
  Al  Al18  1  0.79169210  0.42521169  0.40165546  1
  Al  Al19  1  0.11771040  0.75296880  0.32356103  1
  Al  Al20  1  0.22124903  0.87042162  0.08505729  1
  Al  Al21  1  0.77416095  0.76990857  0.89208175  1
  Al  Al22  1  0.88600679  0.87153537  0.65753185  1
  Al  Al23  1  0.44399079  0.77275597  0.38739279  1
  Al  Al24  1  0.55511805  0.87796969  0.14729018  1
  Al  Al25  1  0.11651798  0.76277721  0.83241807  1
  Al  Al26  1  0.20877344  0.87133241  0.56576302  1
  Al  Al27  1  0.77935859  0.75798182  0.40704105  1
  Al  Al28  1  0.88211129  0.87681751  0.14490996  1
  Al  Al29  1  0.45223188  0.76430516  0.89879650  1
  Al  Al30  1  0.55994574  0.87296774  0.64634913  1
  Gd  Gd31  1  0.22956855  0.19632695  0.63797033  1
  Gd  Gd32  1  0.78084797  0.09714265  0.40064908  1
  Gd  Gd33  1  0.88064906  0.54479202  0.14420147  1
  Gd  Gd34  1  0.44959206  0.42255760  0.88053950  1
  Gd  Gd35  1  0.54674872  0.54137288  0.61851981  1
  N  N36  1  0.22657507  0.20237365  0.34983145  1
  N  N37  1  0.11019871  0.09977529  0.09547717  1
  N  N38  1  0.89211613  0.20396626  0.84491893  1
  N  N39  1  0.77939756  0.09230041  0.61764716  1
  N  N40  1  0.53258543  0.21356465  0.32445584  1
  N  N41  1  0.44161874  0.09163868  0.09261874  1
  N  N42  1  0.22306620  0.20582626  0.85802661  1
  N  N43  1  0.08302930  0.08774095  0.57152735  1
  N  N44  1  0.89933236  0.22650277  0.32052654  1
  N  N45  1  0.77955906  0.09394296  0.09338071  1
  N  N46  1  0.57580491  0.16154640  0.84981763  1
  N  N47  1  0.48511755  0.07386115  0.57420779  1
  N  N48  1  0.22652286  0.54324062  0.38949583  1
  N  N49  1  0.13476184  0.41103257  0.10062673  1
  N  N50  1  0.88951871  0.53919597  0.84473895  1
  N  N51  1  0.80878622  0.40698952  0.58696181  1
  N  N52  1  0.55983964  0.54088807  0.34510488  1
  N  N53  1  0.43666624  0.43643151  0.12777869  1
  N  N54  1  0.18910533  0.56266753  0.90269584  1
  N  N55  1  0.09538202  0.44970286  0.58430585  1
  N  N56  1  0.88743050  0.54277425  0.35896501  1
  N  N57  1  0.75717899  0.41481810  0.07408018  1
  N  N58  1  0.56876581  0.55965727  0.83414710  1
  N  N59  1  0.42297253  0.40417751  0.65044865  1
  N  N60  1  0.21587948  0.87077952  0.37257066  1
  N  N61  1  0.11311711  0.76324707  0.13922666  1
  N  N62  1  0.89173077  0.86955528  0.84142774  1
  N  N63  1  0.77925426  0.75896434  0.59569245  1
  N  N64  1  0.56221765  0.87051811  0.33257607  1
  N  N65  1  0.45321624  0.75958805  0.09255418  1
  N  N66  1  0.22170172  0.87197203  0.89433135  1
  N  N67  1  0.12066560  0.75645443  0.64196512  1
  N  N68  1  0.89354958  0.84639450  0.33142313  1
  N  N69  1  0.75987794  0.79466136  0.07366196  1
  N  N70  1  0.55124635  0.87475212  0.83422062  1
  N  N71  1  0.42849450  0.80096438  0.57268795  1
