# generated using pymatgen
data_Gd5Al31N36
_symmetry_space_group_name_H-M   'P 1'
_cell_length_a   9.74361692
_cell_length_b   9.76405226
_cell_length_c   10.20366202
_cell_angle_alpha   89.80249369
_cell_angle_beta   89.65064608
_cell_angle_gamma   60.03219657
_symmetry_Int_Tables_number   1
_chemical_formula_structural   Gd5Al31N36
_chemical_formula_sum   'Gd5 Al31 N36'
_cell_volume   840.94904462
_cell_formula_units_Z   1
loop_
 _symmetry_equiv_pos_site_id
 _symmetry_equiv_pos_as_xyz
  1  'x, y, z'
loop_
 _atom_site_type_symbol
 _atom_site_label
 _atom_site_symmetry_multiplicity
 _atom_site_fract_x
 _atom_site_fract_y
 _atom_site_fract_z
 _atom_site_occupancy
  Al  Al0  1  0.11310638  0.09690847  0.30386540  1
  Al  Al1  1  0.22339949  0.20436155  0.05424555  1
  Al  Al2  1  0.79170256  0.08494816  0.81725988  1
  Al  Al3  1  0.89905691  0.20021051  0.56592830  1
  Al  Al4  1  0.43520322  0.09312608  0.29310085  1
  Al  Al5  1  0.55290881  0.20404214  0.09663283  1
  Al  Al6  1  0.11021417  0.08778095  0.81495701  1
  Al  Al7  1  0.88665144  0.20307572  0.05432568  1
  Al  Al8  1  0.45350171  0.07848821  0.82002941  1
  Al  Al9  1  0.56568242  0.19180307  0.63092928  1
  Al  Al10  1  0.12104137  0.42219304  0.30848781  1
  Al  Al11  1  0.20986497  0.55042711  0.06417696  1
  Al  Al12  1  0.78852189  0.42692623  0.80692676  1
  Al  Al13  1  0.89070126  0.54234741  0.55615478  1
  Al  Al14  1  0.43269537  0.43872862  0.29084187  1
  Al  Al15  1  0.55728461  0.54612489  0.06311087  1
  Al  Al16  1  0.09958048  0.44121500  0.80376649  1
  Al  Al17  1  0.21921017  0.54102626  0.55466034  1
  Al  Al18  1  0.78064700  0.42519727  0.30783802  1
  Al  Al19  1  0.11250022  0.75761747  0.31253496  1
  Al  Al20  1  0.22009153  0.87315931  0.06162279  1
  Al  Al21  1  0.77560715  0.76143950  0.80313220  1
  Al  Al22  1  0.89805457  0.85833031  0.56670562  1
  Al  Al23  1  0.44089261  0.76648372  0.30443080  1
  Al  Al24  1  0.55341855  0.87657710  0.05877163  1
  Al  Al25  1  0.10628660  0.76416374  0.81055583  1
  Al  Al26  1  0.21749499  0.87264587  0.56214683  1
  Al  Al27  1  0.77582838  0.76345565  0.31568440  1
  Al  Al28  1  0.88527684  0.87937434  0.05476222  1
  Al  Al29  1  0.44484946  0.77079951  0.81383536  1
  Al  Al30  1  0.55938754  0.87153655  0.55900947  1
  Gd  Gd31  1  0.22738066  0.20125061  0.57001155  1
  Gd  Gd32  1  0.77891261  0.09234538  0.32475357  1
  Gd  Gd33  1  0.88784414  0.54483135  0.06754337  1
  Gd  Gd34  1  0.43655874  0.43256597  0.84211330  1
  Gd  Gd35  1  0.55420313  0.53662621  0.56132214  1
  N  N36  1  0.22406993  0.20115583  0.34959119  1
  N  N37  1  0.10799282  0.09594326  0.11233774  1
  N  N38  1  0.89021886  0.20707065  0.86695686  1
  N  N39  1  0.78751044  0.08790338  0.61241056  1
  N  N40  1  0.52268298  0.22286318  0.30176380  1
  N  N41  1  0.43789214  0.09037625  0.10220950  1
  N  N42  1  0.22068476  0.20800009  0.85795698  1
  N  N43  1  0.10014978  0.07420383  0.63208404  1
  N  N44  1  0.90752051  0.21992378  0.37955134  1
  N  N45  1  0.78030466  0.09419691  0.09743696  1
  N  N46  1  0.57525843  0.17484349  0.84737788  1
  N  N47  1  0.47634830  0.06834943  0.63265151  1
  N  N48  1  0.22404478  0.54051411  0.36403885  1
  N  N49  1  0.14121225  0.41223219  0.12452596  1
  N  N50  1  0.88636395  0.54284100  0.85020432  1
  N  N51  1  0.80852123  0.41232543  0.62124739  1
  N  N52  1  0.55136461  0.54111389  0.34122097  1
  N  N53  1  0.43596690  0.44157184  0.09315083  1
  N  N54  1  0.17794537  0.56179077  0.88195644  1
  N  N55  1  0.09657424  0.45876129  0.61758594  1
  N  N56  1  0.88840731  0.53902743  0.35787158  1
  N  N57  1  0.76711042  0.40967149  0.12362812  1
  N  N58  1  0.57569026  0.55613725  0.86969676  1
  N  N59  1  0.42852876  0.40709858  0.61537411  1
  N  N60  1  0.21984669  0.87414472  0.36752661  1
  N  N61  1  0.10451019  0.76809679  0.12272275  1
  N  N62  1  0.88986879  0.86892524  0.86349637  1
  N  N63  1  0.77558612  0.75851007  0.61463025  1
  N  N64  1  0.55153904  0.87534783  0.36794666  1
  N  N65  1  0.44226821  0.76724540  0.11652740  1
  N  N66  1  0.22322667  0.86758435  0.87379453  1
  N  N67  1  0.11957611  0.75473736  0.62090265  1
  N  N68  1  0.90686268  0.83770692  0.38319567  1
  N  N69  1  0.76011856  0.79880267  0.13023610  1
  N  N70  1  0.56182320  0.86585806  0.87306654  1
  N  N71  1  0.42907898  0.79071548  0.62546735  1
