# generated using pymatgen
data_Gd5Al31N36
_symmetry_space_group_name_H-M   'P 1'
_cell_length_a   9.71103000
_cell_length_b   9.71932899
_cell_length_c   10.22478715
_cell_angle_alpha   90.30524823
_cell_angle_beta   90.25303423
_cell_angle_gamma   60.15184490
_symmetry_Int_Tables_number   1
_chemical_formula_structural   Gd5Al31N36
_chemical_formula_sum   'Gd5 Al31 N36'
_cell_volume   837.03169312
_cell_formula_units_Z   1
loop_
 _symmetry_equiv_pos_site_id
 _symmetry_equiv_pos_as_xyz
  1  'x, y, z'
loop_
 _atom_site_type_symbol
 _atom_site_label
 _atom_site_symmetry_multiplicity
 _atom_site_fract_x
 _atom_site_fract_y
 _atom_site_fract_z
 _atom_site_occupancy
  Al  Al0  1  0.11134799  0.09316754  0.38897321  1
  Al  Al1  1  0.22914315  0.20216533  0.14882782  1
  Al  Al2  1  0.78346724  0.08607301  0.89780899  1
  Al  Al3  1  0.89373278  0.19748783  0.65663569  1
  Al  Al4  1  0.45115948  0.08950106  0.39212451  1
  Al  Al5  1  0.55642088  0.19936831  0.14477740  1
  Al  Al6  1  0.11326262  0.09333115  0.90248891  1
  Al  Al7  1  0.88945287  0.20587343  0.13868663  1
  Al  Al8  1  0.44616088  0.08485857  0.90433872  1
  Al  Al9  1  0.56282691  0.18995633  0.65827287  1
  Al  Al10  1  0.10874268  0.43577192  0.40025883  1
  Al  Al11  1  0.21841854  0.54539630  0.15031735  1
  Al  Al12  1  0.77559645  0.42827010  0.89324097  1
  Al  Al13  1  0.89106975  0.54024035  0.65004653  1
  Al  Al14  1  0.43881911  0.42886442  0.34663756  1
  Al  Al15  1  0.55599786  0.54367296  0.15188155  1
  Al  Al16  1  0.11056236  0.42695434  0.89726465  1
  Al  Al17  1  0.20893986  0.54540504  0.64805937  1
  Al  Al18  1  0.79567057  0.42340472  0.40070582  1
  Al  Al19  1  0.11385988  0.75654370  0.39668606  1
  Al  Al20  1  0.22132035  0.87258608  0.14401916  1
  Al  Al21  1  0.77139416  0.76962692  0.89072081  1
  Al  Al22  1  0.89161475  0.86888932  0.65476153  1
  Al  Al23  1  0.43687085  0.77727242  0.39138745  1
  Al  Al24  1  0.55388052  0.87734249  0.14535246  1
  Al  Al25  1  0.10424588  0.76592168  0.89616083  1
  Al  Al26  1  0.21257909  0.87630052  0.64368509  1
  Al  Al27  1  0.77963464  0.75719538  0.40386514  1
  Al  Al28  1  0.88912247  0.87239248  0.14243100  1
  Al  Al29  1  0.44482265  0.76636695  0.89626510  1
  Al  Al30  1  0.55878383  0.87373247  0.64531134  1
  Gd  Gd31  1  0.22878550  0.19958698  0.63305737  1
  Gd  Gd32  1  0.78414194  0.09397494  0.39808575  1
  Gd  Gd33  1  0.88763418  0.54198217  0.13772025  1
  Gd  Gd34  1  0.43890194  0.42904444  0.89569645  1
  Gd  Gd35  1  0.54974036  0.54096962  0.61890124  1
  N  N36  1  0.22519605  0.20510612  0.34703613  1
  N  N37  1  0.11391194  0.09366794  0.09012580  1
  N  N38  1  0.89241054  0.20359352  0.84532070  1
  N  N39  1  0.78046070  0.09188312  0.61718046  1
  N  N40  1  0.53573446  0.21116290  0.32744176  1
  N  N41  1  0.44388189  0.09213491  0.09174272  1
  N  N42  1  0.22408723  0.20325763  0.85467547  1
  N  N43  1  0.08967897  0.07921151  0.57374918  1
  N  N44  1  0.90432458  0.22326375  0.32110733  1
  N  N45  1  0.78040579  0.09278091  0.09345237  1
  N  N46  1  0.56981435  0.17162615  0.84607627  1
  N  N47  1  0.48462272  0.07342883  0.57387128  1
  N  N48  1  0.21681649  0.54301312  0.33774754  1
  N  N49  1  0.14422603  0.41336352  0.08329129  1
  N  N50  1  0.88800442  0.53869988  0.84723064  1
  N  N51  1  0.81315841  0.40515760  0.58737832  1
  N  N52  1  0.55968603  0.54227238  0.35140584  1
  N  N53  1  0.44346926  0.43314240  0.12751109  1
  N  N54  1  0.18591873  0.55848149  0.83292659  1
  N  N55  1  0.09476069  0.45522322  0.58285590  1
  N  N56  1  0.88886916  0.54249904  0.35520967  1
  N  N57  1  0.75856070  0.41580636  0.07782070  1
  N  N58  1  0.56499196  0.55655468  0.83866639  1
  N  N59  1  0.42541459  0.40431251  0.61948455  1
  N  N60  1  0.21923880  0.87161979  0.33130055  1
  N  N61  1  0.11143175  0.76152665  0.08546599  1
  N  N62  1  0.89055407  0.87084923  0.84100262  1
  N  N63  1  0.77811573  0.75919526  0.59534038  1
  N  N64  1  0.56119323  0.86950949  0.33298948  1
  N  N65  1  0.44443181  0.76297835  0.09002171  1
  N  N66  1  0.22065833  0.87312830  0.83796675  1
  N  N67  1  0.11042545  0.76116620  0.58625986  1
  N  N68  1  0.90289907  0.84162876  0.32916485  1
  N  N69  1  0.75968781  0.79380706  0.07475102  1
  N  N70  1  0.55086027  0.87412688  0.83479969  1
  N  N71  1  0.42038768  0.80445202  0.57643408  1
