# generated using pymatgen
data_Gd5Al31N36
_symmetry_space_group_name_H-M   'P 1'
_cell_length_a   9.77101508
_cell_length_b   9.74445464
_cell_length_c   10.36947180
_cell_angle_alpha   89.98787332
_cell_angle_beta   90.42905422
_cell_angle_gamma   59.98255210
_symmetry_Int_Tables_number   1
_chemical_formula_structural   Gd5Al31N36
_chemical_formula_sum   'Gd5 Al31 N36'
_cell_volume   854.85290373
_cell_formula_units_Z   1
loop_
 _symmetry_equiv_pos_site_id
 _symmetry_equiv_pos_as_xyz
  1  'x, y, z'
loop_
 _atom_site_type_symbol
 _atom_site_label
 _atom_site_symmetry_multiplicity
 _atom_site_fract_x
 _atom_site_fract_y
 _atom_site_fract_z
 _atom_site_occupancy
  Al  Al0  1  0.11219665  0.09720844  0.39237807  1
  Al  Al1  1  0.22557471  0.20661574  0.08182619  1
  Al  Al2  1  0.78594778  0.08310054  0.90337997  1
  Al  Al3  1  0.88874490  0.20089118  0.66010914  1
  Al  Al4  1  0.45156080  0.08824762  0.39825258  1
  Al  Al5  1  0.55231471  0.19942136  0.14246176  1
  Al  Al6  1  0.10346168  0.09734232  0.89736656  1
  Al  Al7  1  0.89014814  0.20402748  0.13979851  1
  Al  Al8  1  0.45683359  0.08016906  0.90233158  1
  Al  Al9  1  0.56558577  0.18835657  0.66313257  1
  Al  Al10  1  0.12736680  0.41484937  0.33634888  1
  Al  Al11  1  0.21256845  0.54830001  0.08926567  1
  Al  Al12  1  0.76869302  0.43242770  0.89338336  1
  Al  Al13  1  0.87977408  0.54541667  0.65554329  1
  Al  Al14  1  0.42970657  0.43016811  0.32500759  1
  Al  Al15  1  0.55710754  0.53671421  0.15012918  1
  Al  Al16  1  0.10126233  0.44407164  0.83936064  1
  Al  Al17  1  0.21382995  0.54011736  0.58570562  1
  Al  Al18  1  0.80524957  0.41987432  0.39968195  1
  Al  Al19  1  0.11861018  0.75338921  0.33034733  1
  Al  Al20  1  0.22744065  0.86541969  0.07937095  1
  Al  Al21  1  0.77080414  0.77331138  0.89679417  1
  Al  Al22  1  0.88576046  0.87247052  0.65619043  1
  Al  Al23  1  0.43868201  0.76824462  0.33131470  1
  Al  Al24  1  0.55557162  0.88064523  0.15070177  1
  Al  Al25  1  0.11217234  0.76158334  0.83318184  1
  Al  Al26  1  0.21133767  0.87098392  0.57757046  1
  Al  Al27  1  0.78454620  0.75243606  0.40436076  1
  Al  Al28  1  0.88435286  0.87635485  0.14947480  1
  Al  Al29  1  0.43604290  0.77533192  0.81907215  1
  Al  Al30  1  0.56561848  0.87638291  0.64590530  1
  Gd  Gd31  1  0.23051106  0.19812553  0.62582290  1
  Gd  Gd32  1  0.77734753  0.10017941  0.39879631  1
  Gd  Gd33  1  0.88530333  0.54012822  0.12814502  1
  Gd  Gd34  1  0.44509778  0.42881851  0.87577563  1
  Gd  Gd35  1  0.54417507  0.54129063  0.59902083  1
  N  N36  1  0.22824742  0.20090396  0.39006005  1
  N  N37  1  0.10797811  0.09754856  0.08522752  1
  N  N38  1  0.88540643  0.20714052  0.84584309  1
  N  N39  1  0.77906837  0.09452598  0.61524067  1
  N  N40  1  0.52958055  0.21110001  0.32307993  1
  N  N41  1  0.44695497  0.08909959  0.08558328  1
  N  N42  1  0.22065119  0.21260049  0.87897133  1
  N  N43  1  0.08548624  0.08472723  0.59027164  1
  N  N44  1  0.90855933  0.21931110  0.32073530  1
  N  N45  1  0.77890770  0.09366276  0.09555656  1
  N  N46  1  0.57671256  0.16741690  0.84850220  1
  N  N47  1  0.49082457  0.07392377  0.57721346  1
  N  N48  1  0.22323990  0.53902466  0.39482376  1
  N  N49  1  0.14822778  0.40806738  0.15088283  1
  N  N50  1  0.87660783  0.54606577  0.85666127  1
  N  N51  1  0.81117079  0.40859817  0.58511809  1
  N  N52  1  0.56365785  0.53063604  0.34944489  1
  N  N53  1  0.43606172  0.43600420  0.12748737  1
  N  N54  1  0.18303520  0.56265023  0.91026293  1
  N  N55  1  0.09484078  0.46014511  0.65683282  1
  N  N56  1  0.89694890  0.53861932  0.35092602  1
  N  N57  1  0.75447290  0.41353921  0.07577160  1
  N  N58  1  0.56784291  0.55725559  0.82547748  1
  N  N59  1  0.42219842  0.40644953  0.64611524  1
  N  N60  1  0.22352635  0.86544107  0.38764507  1
  N  N61  1  0.11587301  0.76329571  0.14368152  1
  N  N62  1  0.88888083  0.87152338  0.84200930  1
  N  N63  1  0.78036571  0.75771510  0.59272310  1
  N  N64  1  0.56434694  0.86993309  0.33884871  1
  N  N65  1  0.44163995  0.76382301  0.14228489  1
  N  N66  1  0.22595095  0.86589351  0.89088975  1
  N  N67  1  0.11787111  0.75588324  0.64326059  1
  N  N68  1  0.89576924  0.84846536  0.33566668  1
  N  N69  1  0.75967981  0.79656508  0.07921046  1
  N  N70  1  0.55765497  0.87636934  0.83427159  1
  N  N71  1  0.41679116  0.80686198  0.63307254  1
