# generated using pymatgen
data_Gd5Al31N36
_symmetry_space_group_name_H-M   'P 1'
_cell_length_a   9.76491837
_cell_length_b   9.73644378
_cell_length_c   10.31744419
_cell_angle_alpha   89.73250507
_cell_angle_beta   89.96718219
_cell_angle_gamma   59.95460016
_symmetry_Int_Tables_number   1
_chemical_formula_structural   Gd5Al31N36
_chemical_formula_sum   'Gd5 Al31 N36'
_cell_volume   849.11642070
_cell_formula_units_Z   1
loop_
 _symmetry_equiv_pos_site_id
 _symmetry_equiv_pos_as_xyz
  1  'x, y, z'
loop_
 _atom_site_type_symbol
 _atom_site_label
 _atom_site_symmetry_multiplicity
 _atom_site_fract_x
 _atom_site_fract_y
 _atom_site_fract_z
 _atom_site_occupancy
  Al  Al0  1  0.11663150  0.09844989  0.30809260  1
  Al  Al1  1  0.22058507  0.20636008  0.05653006  1
  Al  Al2  1  0.78718779  0.08675806  0.83691922  1
  Al  Al3  1  0.89872852  0.20163765  0.56317272  1
  Al  Al4  1  0.44854727  0.08970064  0.37151068  1
  Al  Al5  1  0.54607505  0.20499261  0.11485887  1
  Al  Al6  1  0.10554442  0.08879570  0.81504091  1
  Al  Al7  1  0.88459722  0.20612840  0.05797853  1
  Al  Al8  1  0.45596514  0.07832151  0.87603333  1
  Al  Al9  1  0.57003523  0.18532578  0.62624506  1
  Al  Al10  1  0.12386742  0.41810468  0.31241403  1
  Al  Al11  1  0.21140612  0.54904262  0.06404068  1
  Al  Al12  1  0.78657862  0.42905904  0.80647547  1
  Al  Al13  1  0.89148919  0.54300714  0.55622557  1
  Al  Al14  1  0.43087591  0.43804172  0.29266091  1
  Al  Al15  1  0.55511584  0.54642879  0.06108650  1
  Al  Al16  1  0.09757249  0.44391772  0.80481734  1
  Al  Al17  1  0.21916130  0.54164745  0.55580577  1
  Al  Al18  1  0.77990214  0.42685684  0.30770326  1
  Al  Al19  1  0.11257522  0.75644391  0.31154492  1
  Al  Al20  1  0.21896338  0.87407822  0.06123965  1
  Al  Al21  1  0.78481824  0.75945256  0.80360989  1
  Al  Al22  1  0.89732089  0.86159228  0.56269858  1
  Al  Al23  1  0.43483631  0.76254230  0.30369843  1
  Al  Al24  1  0.54766682  0.88570173  0.13017090  1
  Al  Al25  1  0.10652780  0.76473876  0.80949831  1
  Al  Al26  1  0.21404277  0.87360870  0.56111763  1
  Al  Al27  1  0.78105280  0.75922705  0.31489610  1
  Al  Al28  1  0.88745388  0.87832649  0.05706676  1
  Al  Al29  1  0.43935982  0.76984074  0.81328378  1
  Al  Al30  1  0.56057388  0.87462095  0.62488935  1
  Gd  Gd31  1  0.22789000  0.20138767  0.58802305  1
  Gd  Gd32  1  0.77928175  0.09379390  0.33190417  1
  Gd  Gd33  1  0.88913711  0.54294715  0.06745398  1
  Gd  Gd34  1  0.43841440  0.42594521  0.83918218  1
  Gd  Gd35  1  0.55403593  0.53615740  0.56032277  1
  N  N36  1  0.22482099  0.20128953  0.36319665  1
  N  N37  1  0.10863145  0.09758163  0.11579144  1
  N  N38  1  0.88749420  0.20948456  0.87084303  1
  N  N39  1  0.78758202  0.09063820  0.59062484  1
  N  N40  1  0.51986266  0.21870977  0.29726488  1
  N  N41  1  0.44494077  0.09118863  0.05900843  1
  N  N42  1  0.21610867  0.21051096  0.85582509  1
  N  N43  1  0.09732277  0.07397441  0.63397525  1
  N  N44  1  0.90918831  0.22153252  0.37729833  1
  N  N45  1  0.77332231  0.09812567  0.09078415  1
  N  N46  1  0.57470871  0.16535691  0.81378625  1
  N  N47  1  0.48898297  0.07047696  0.55197294  1
  N  N48  1  0.22431697  0.53951581  0.36591415  1
  N  N49  1  0.14336002  0.41046453  0.12864287  1
  N  N50  1  0.88589277  0.54310429  0.85269767  1
  N  N51  1  0.80891164  0.41365948  0.62275992  1
  N  N52  1  0.55078291  0.53806941  0.34221847  1
  N  N53  1  0.43628858  0.43966526  0.09404420  1
  N  N54  1  0.18039161  0.56063707  0.88261570  1
  N  N55  1  0.09587977  0.46138525  0.62041996  1
  N  N56  1  0.88924542  0.53792856  0.36012282  1
  N  N57  1  0.76421176  0.41301951  0.12519957  1
  N  N58  1  0.57316304  0.55543796  0.87016517  1
  N  N59  1  0.42835272  0.40774275  0.61541805  1
  N  N60  1  0.21753097  0.87378597  0.36836258  1
  N  N61  1  0.10570322  0.76771244  0.12329150  1
  N  N62  1  0.89283628  0.86826133  0.86765530  1
  N  N63  1  0.78398438  0.75679580  0.61612334  1
  N  N64  1  0.54995477  0.87345858  0.31917655  1
  N  N65  1  0.43771830  0.76587658  0.11472389  1
  N  N66  1  0.22062080  0.86974332  0.87510981  1
  N  N67  1  0.11753111  0.75598896  0.62151835  1
  N  N68  1  0.90830152  0.83652097  0.38034074  1
  N  N69  1  0.76906103  0.79385172  0.12849334  1
  N  N70  1  0.55891783  0.87235048  0.81777806  1
  N  N71  1  0.42317240  0.78969964  0.62400167  1
