# generated using pymatgen
data_Gd5Al31N36
_symmetry_space_group_name_H-M   'P 1'
_cell_length_a   9.70658086
_cell_length_b   9.71793576
_cell_length_c   10.23432373
_cell_angle_alpha   89.87802285
_cell_angle_beta   90.04259780
_cell_angle_gamma   60.03909682
_symmetry_Int_Tables_number   1
_chemical_formula_structural   Gd5Al31N36
_chemical_formula_sum   'Gd5 Al31 N36'
_cell_volume   836.37128957
_cell_formula_units_Z   1
loop_
 _symmetry_equiv_pos_site_id
 _symmetry_equiv_pos_as_xyz
  1  'x, y, z'
loop_
 _atom_site_type_symbol
 _atom_site_label
 _atom_site_symmetry_multiplicity
 _atom_site_fract_x
 _atom_site_fract_y
 _atom_site_fract_z
 _atom_site_occupancy
  Al  Al0  1  0.11489935  0.09523955  0.29942398  1
  Al  Al1  1  0.22762483  0.20299412  0.05346215  1
  Al  Al2  1  0.78050776  0.08952419  0.80275931  1
  Al  Al3  1  0.89477324  0.20081399  0.56136875  1
  Al  Al4  1  0.43958522  0.09394386  0.29881011  1
  Al  Al5  1  0.56109250  0.19522900  0.05328744  1
  Al  Al6  1  0.10805030  0.08832652  0.81184967  1
  Al  Al7  1  0.88768087  0.20198653  0.04814195  1
  Al  Al8  1  0.45587704  0.08269710  0.80921189  1
  Al  Al9  1  0.55310316  0.20189988  0.55372097  1
  Al  Al10  1  0.11893494  0.42231659  0.30437090  1
  Al  Al11  1  0.21682464  0.54391934  0.06141443  1
  Al  Al12  1  0.78690757  0.42701413  0.80299093  1
  Al  Al13  1  0.89060809  0.54338334  0.55364607  1
  Al  Al14  1  0.43764193  0.42829749  0.29569579  1
  Al  Al15  1  0.55681288  0.54026106  0.06146796  1
  Al  Al16  1  0.10025388  0.44058440  0.80163831  1
  Al  Al17  1  0.21624346  0.54445616  0.54882498  1
  Al  Al18  1  0.78194326  0.42341426  0.30408667  1
  Al  Al19  1  0.11427924  0.75570801  0.30732622  1
  Al  Al20  1  0.22117810  0.87177162  0.05731225  1
  Al  Al21  1  0.77452931  0.76264058  0.79928984  1
  Al  Al22  1  0.89474402  0.86272475  0.56249669  1
  Al  Al23  1  0.44196700  0.76496588  0.29950106  1
  Al  Al24  1  0.55343845  0.87943102  0.05723203  1
  Al  Al25  1  0.10569822  0.76487287  0.80680600  1
  Al  Al26  1  0.21549733  0.87401630  0.55920216  1
  Al  Al27  1  0.77666541  0.76271071  0.31239788  1
  Al  Al28  1  0.88746843  0.87766785  0.04821778  1
  Al  Al29  1  0.44312366  0.77274667  0.81285029  1
  Al  Al30  1  0.55759059  0.87609126  0.55697427  1
  Gd  Gd31  1  0.22209902  0.20166361  0.56648353  1
  Gd  Gd32  1  0.78302405  0.08941758  0.31249481  1
  Gd  Gd33  1  0.88639222  0.54482654  0.06276005  1
  Gd  Gd34  1  0.43748770  0.42891394  0.82255688  1
  Gd  Gd35  1  0.55413333  0.54504149  0.55557684  1
  N  N36  1  0.22433694  0.20095290  0.34629760  1
  N  N37  1  0.11011895  0.09455861  0.10822913  1
  N  N38  1  0.88643171  0.20703365  0.86150275  1
  N  N39  1  0.77675213  0.09449887  0.60534030  1
  N  N40  1  0.52602212  0.21741449  0.36501071  1
  N  N41  1  0.44395126  0.09408300  0.11096403  1
  N  N42  1  0.22247124  0.20701789  0.85547652  1
  N  N43  1  0.09564887  0.07479052  0.62984719  1
  N  N44  1  0.90940587  0.21702133  0.37591411  1
  N  N45  1  0.78196919  0.09265519  0.09422635  1
  N  N46  1  0.57257853  0.17447739  0.87048976  1
  N  N47  1  0.47653359  0.07804532  0.62569875  1
  N  N48  1  0.22345693  0.53881191  0.35910794  1
  N  N49  1  0.13979774  0.41200579  0.12101595  1
  N  N50  1  0.88588983  0.54337701  0.84622093  1
  N  N51  1  0.80824901  0.41316266  0.61764322  1
  N  N52  1  0.55312878  0.53859437  0.33696978  1
  N  N53  1  0.44337261  0.42658121  0.09954928  1
  N  N54  1  0.18295206  0.55993372  0.87909411  1
  N  N55  1  0.09737024  0.45915514  0.61578027  1
  N  N56  1  0.88879902  0.53832834  0.35552435  1
  N  N57  1  0.76899118  0.40706850  0.12056649  1
  N  N58  1  0.57296771  0.55497425  0.86788484  1
  N  N59  1  0.42844483  0.41495634  0.60429299  1
  N  N60  1  0.22161207  0.87231916  0.36432861  1
  N  N61  1  0.10734243  0.76513055  0.11797377  1
  N  N62  1  0.88771321  0.87154318  0.85695893  1
  N  N63  1  0.77430013  0.76021129  0.61136706  1
  N  N64  1  0.55294971  0.87279135  0.36622942  1
  N  N65  1  0.44390012  0.76563598  0.11239037  1
  N  N66  1  0.22197865  0.86836864  0.87077549  1
  N  N67  1  0.11704685  0.75678334  0.61754065  1
  N  N68  1  0.90837451  0.83804878  0.37962169  1
  N  N69  1  0.76199300  0.79865546  0.12724744  1
  N  N70  1  0.55991519  0.87021129  0.87037277  1
  N  N71  1  0.42612358  0.79765554  0.62513212  1
