# generated using pymatgen
data_Gd5Al31N36
_symmetry_space_group_name_H-M   'P 1'
_cell_length_a   9.73811454
_cell_length_b   9.72421057
_cell_length_c   10.41830785
_cell_angle_alpha   89.97633259
_cell_angle_beta   90.40682829
_cell_angle_gamma   59.84489467
_symmetry_Int_Tables_number   1
_chemical_formula_structural   Gd5Al31N36
_chemical_formula_sum   'Gd5 Al31 N36'
_cell_volume   853.02272272
_cell_formula_units_Z   1
loop_
 _symmetry_equiv_pos_site_id
 _symmetry_equiv_pos_as_xyz
  1  'x, y, z'
loop_
 _atom_site_type_symbol
 _atom_site_label
 _atom_site_symmetry_multiplicity
 _atom_site_fract_x
 _atom_site_fract_y
 _atom_site_fract_z
 _atom_site_occupancy
  Al  Al0  1  0.10754842  0.09399650  0.39600732  1
  Al  Al1  1  0.23527289  0.19116788  0.16540463  1
  Al  Al2  1  0.78631980  0.08376889  0.90943307  1
  Al  Al3  1  0.88667297  0.20216452  0.66628049  1
  Al  Al4  1  0.45586514  0.08476790  0.40394194  1
  Al  Al5  1  0.55555099  0.19735623  0.14980453  1
  Al  Al6  1  0.10892427  0.10454032  0.91595671  1
  Al  Al7  1  0.88869829  0.20360914  0.14738242  1
  Al  Al8  1  0.44468139  0.08799968  0.91490956  1
  Al  Al9  1  0.56082159  0.19184396  0.67384929  1
  Al  Al10  1  0.12283407  0.42388982  0.34777180  1
  Al  Al11  1  0.21418424  0.54524356  0.09580960  1
  Al  Al12  1  0.77105721  0.43281675  0.89766592  1
  Al  Al13  1  0.87903292  0.54621990  0.66269116  1
  Al  Al14  1  0.43232355  0.42856597  0.33222758  1
  Al  Al15  1  0.55939386  0.53467874  0.15662972  1
  Al  Al16  1  0.10629067  0.43781007  0.84337345  1
  Al  Al17  1  0.21532926  0.53981935  0.59531958  1
  Al  Al18  1  0.80084430  0.42143245  0.40742728  1
  Al  Al19  1  0.12084390  0.74999429  0.33656870  1
  Al  Al20  1  0.22851302  0.86417273  0.08889696  1
  Al  Al21  1  0.77056353  0.77366790  0.90517299  1
  Al  Al22  1  0.88446930  0.87243948  0.66709295  1
  Al  Al23  1  0.44103254  0.76554872  0.33601373  1
  Al  Al24  1  0.55981984  0.87728700  0.15774986  1
  Al  Al25  1  0.11260744  0.76261837  0.84331421  1
  Al  Al26  1  0.20657354  0.87274700  0.58089120  1
  Al  Al27  1  0.78455819  0.75250237  0.41272890  1
  Al  Al28  1  0.88617827  0.87479512  0.15713132  1
  Al  Al29  1  0.43262104  0.78183718  0.82962244  1
  Al  Al30  1  0.56198288  0.88236678  0.65695891  1
  Gd  Gd31  1  0.22622872  0.19003474  0.63801430  1
  Gd  Gd32  1  0.78056667  0.09830199  0.41156077  1
  Gd  Gd33  1  0.88929363  0.53507065  0.13428692  1
  Gd  Gd34  1  0.44835134  0.43145403  0.88525589  1
  Gd  Gd35  1  0.53905749  0.55103768  0.60852832  1
  N  N36  1  0.23275905  0.18917908  0.36228385  1
  N  N37  1  0.11215447  0.09848332  0.10160361  1
  N  N38  1  0.89161486  0.20554233  0.85187715  1
  N  N39  1  0.77576788  0.09472573  0.62769364  1
  N  N40  1  0.53398567  0.20865563  0.33079382  1
  N  N41  1  0.44398272  0.08944642  0.09919522  1
  N  N42  1  0.22275776  0.20660390  0.86312115  1
  N  N43  1  0.07297972  0.08916463  0.57537990  1
  N  N44  1  0.90322963  0.22216740  0.32584216  1
  N  N45  1  0.78120329  0.09133328  0.10083930  1
  N  N46  1  0.57313141  0.16954440  0.85957874  1
  N  N47  1  0.48325843  0.08061776  0.58245692  1
  N  N48  1  0.22639638  0.53722048  0.40598458  1
  N  N49  1  0.14937070  0.41133675  0.16529977  1
  N  N50  1  0.87954577  0.54572179  0.86158387  1
  N  N51  1  0.80673683  0.41149589  0.59271019  1
  N  N52  1  0.56484499  0.53002301  0.35584141  1
  N  N53  1  0.43808465  0.43430972  0.13564754  1
  N  N54  1  0.18461018  0.55982412  0.91698569  1
  N  N55  1  0.09621734  0.45596771  0.65820937  1
  N  N56  1  0.89542443  0.53843991  0.35990805  1
  N  N57  1  0.75503138  0.41171397  0.07898068  1
  N  N58  1  0.56867461  0.56252353  0.83078243  1
  N  N59  1  0.42392003  0.41109138  0.65691074  1
  N  N60  1  0.22714695  0.85944916  0.39281991  1
  N  N61  1  0.11804404  0.76038891  0.15131829  1
  N  N62  1  0.88888105  0.87108580  0.85094685  1
  N  N63  1  0.77722071  0.76046671  0.60101132  1
  N  N64  1  0.56663525  0.86723824  0.34602526  1
  N  N65  1  0.44453716  0.76201666  0.14902748  1
  N  N66  1  0.22368046  0.86925971  0.90326845  1
  N  N67  1  0.11702553  0.75731922  0.65298807  1
  N  N68  1  0.89704460  0.84743197  0.34310340  1
  N  N69  1  0.76349985  0.79250093  0.08723850  1
  N  N70  1  0.55626513  0.88117147  0.84481436  1
  N  N71  1  0.40581768  0.82131117  0.64551557  1
