# generated using pymatgen
data_Gd5Al31N36
_symmetry_space_group_name_H-M   'P 1'
_cell_length_a   9.75964693
_cell_length_b   9.72121874
_cell_length_c   10.36521942
_cell_angle_alpha   89.93195131
_cell_angle_beta   89.98229507
_cell_angle_gamma   60.14745400
_symmetry_Int_Tables_number   1
_chemical_formula_structural   Gd5Al31N36
_chemical_formula_sum   'Gd5 Al31 N36'
_cell_volume   852.91745644
_cell_formula_units_Z   1
loop_
 _symmetry_equiv_pos_site_id
 _symmetry_equiv_pos_as_xyz
  1  'x, y, z'
loop_
 _atom_site_type_symbol
 _atom_site_label
 _atom_site_symmetry_multiplicity
 _atom_site_fract_x
 _atom_site_fract_y
 _atom_site_fract_z
 _atom_site_occupancy
  Al  Al0  1  0.11785023  0.09670398  0.30232449  1
  Al  Al1  1  0.22325494  0.20652095  0.05409327  1
  Al  Al2  1  0.77836438  0.09208427  0.87732964  1
  Al  Al3  1  0.89546627  0.19626033  0.58587403  1
  Al  Al4  1  0.44750641  0.09091653  0.37065198  1
  Al  Al5  1  0.54544916  0.20598692  0.11379263  1
  Al  Al6  1  0.10682089  0.08808943  0.81928492  1
  Al  Al7  1  0.88832289  0.20983431  0.06401314  1
  Al  Al8  1  0.45607497  0.07865137  0.87441323  1
  Al  Al9  1  0.57195806  0.18255109  0.62999237  1
  Al  Al10  1  0.12335335  0.41731501  0.31141589  1
  Al  Al11  1  0.21310227  0.54831069  0.06277057  1
  Al  Al12  1  0.78485346  0.43068017  0.80909076  1
  Al  Al13  1  0.89199213  0.54072018  0.55510288  1
  Al  Al14  1  0.42992733  0.43891140  0.28930611  1
  Al  Al15  1  0.55420801  0.54975720  0.05653332  1
  Al  Al16  1  0.09681219  0.44405790  0.80261725  1
  Al  Al17  1  0.22024327  0.53971921  0.55428583  1
  Al  Al18  1  0.77900991  0.42880260  0.29963733  1
  Al  Al19  1  0.11317266  0.75663119  0.31097956  1
  Al  Al20  1  0.22177596  0.87245009  0.05889602  1
  Al  Al21  1  0.78359945  0.76210423  0.80160135  1
  Al  Al22  1  0.89883986  0.85798500  0.56089754  1
  Al  Al23  1  0.43533403  0.76207975  0.30241198  1
  Al  Al24  1  0.54799881  0.88665663  0.13080173  1
  Al  Al25  1  0.10328541  0.76670730  0.80934377  1
  Al  Al26  1  0.21456669  0.87138737  0.55959230  1
  Al  Al27  1  0.78134427  0.75900625  0.31516513  1
  Al  Al28  1  0.89112890  0.87450966  0.06051789  1
  Al  Al29  1  0.43872567  0.76994089  0.80898168  1
  Al  Al30  1  0.56036588  0.87407036  0.62199787  1
  Gd  Gd31  1  0.22612498  0.19958225  0.58522883  1
  Gd  Gd32  1  0.77291427  0.09768571  0.34772114  1
  Gd  Gd33  1  0.89294777  0.54687275  0.06311973  1
  Gd  Gd34  1  0.43531091  0.42873309  0.83598296  1
  Gd  Gd35  1  0.55677342  0.53273043  0.55632177  1
  N  N36  1  0.22429174  0.20059568  0.36245519  1
  N  N37  1  0.11404669  0.09536528  0.11052667  1
  N  N38  1  0.88821536  0.21119372  0.87206897  1
  N  N39  1  0.78382249  0.08934259  0.57859664  1
  N  N40  1  0.51761477  0.21976778  0.29312270  1
  N  N41  1  0.44694764  0.08997483  0.05668936  1
  N  N42  1  0.21706163  0.21155069  0.85524907  1
  N  N43  1  0.09912169  0.06956973  0.63807618  1
  N  N44  1  0.90778959  0.21993067  0.35255137  1
  N  N45  1  0.77093951  0.10089525  0.07486993  1
  N  N46  1  0.57627603  0.16657426  0.81547409  1
  N  N47  1  0.48787828  0.07126942  0.55143883  1
  N  N48  1  0.22477242  0.53920035  0.36516600  1
  N  N49  1  0.14540258  0.40951770  0.12849562  1
  N  N50  1  0.88468754  0.54570452  0.84986573  1
  N  N51  1  0.80965181  0.41105403  0.62495099  1
  N  N52  1  0.55149181  0.53726379  0.33883919  1
  N  N53  1  0.43713535  0.44054321  0.09146260  1
  N  N54  1  0.17807905  0.56169490  0.88244013  1
  N  N55  1  0.09643090  0.45938990  0.61895159  1
  N  N56  1  0.88829456  0.53781169  0.36045251  1
  N  N57  1  0.76353222  0.42179346  0.11720430  1
  N  N58  1  0.57063046  0.55751000  0.86742527  1
  N  N59  1  0.42964034  0.40626663  0.61445600  1
  N  N60  1  0.21877369  0.87325910  0.36747014  1
  N  N61  1  0.10755200  0.76708851  0.12335217  1
  N  N62  1  0.89142767  0.86860907  0.87082353  1
  N  N63  1  0.78395588  0.75544668  0.61437292  1
  N  N64  1  0.54986061  0.87415138  0.31892318  1
  N  N65  1  0.43821310  0.76673035  0.11407518  1
  N  N66  1  0.22208829  0.86757302  0.87408642  1
  N  N67  1  0.11697799  0.75465792  0.62119218  1
  N  N68  1  0.91007475  0.83550228  0.37872848  1
  N  N69  1  0.76907415  0.79536260  0.13064856  1
  N  N70  1  0.55757895  0.87376766  0.81354729  1
  N  N71  1  0.42416960  0.78673574  0.62060953  1
