# generated using pymatgen
data_Gd5Al31N36
_symmetry_space_group_name_H-M   'P 1'
_cell_length_a   9.70823772
_cell_length_b   9.71434212
_cell_length_c   10.23502565
_cell_angle_alpha   90.05007707
_cell_angle_beta   90.08563324
_cell_angle_gamma   59.97746904
_symmetry_Int_Tables_number   1
_chemical_formula_structural   Gd5Al31N36
_chemical_formula_sum   'Gd5 Al31 N36'
_cell_volume   835.74584909
_cell_formula_units_Z   1
loop_
 _symmetry_equiv_pos_site_id
 _symmetry_equiv_pos_as_xyz
  1  'x, y, z'
loop_
 _atom_site_type_symbol
 _atom_site_label
 _atom_site_symmetry_multiplicity
 _atom_site_fract_x
 _atom_site_fract_y
 _atom_site_fract_z
 _atom_site_occupancy
  Al  Al0  1  0.11095005  0.09250866  0.40132801  1
  Al  Al1  1  0.22935120  0.20196617  0.16094941  1
  Al  Al2  1  0.78153355  0.08751712  0.91053787  1
  Al  Al3  1  0.89269735  0.19773377  0.66914477  1
  Al  Al4  1  0.45012552  0.08898926  0.40467759  1
  Al  Al5  1  0.55238424  0.20583835  0.16218383  1
  Al  Al6  1  0.11297331  0.09297284  0.91602331  1
  Al  Al7  1  0.88896659  0.20580768  0.15181160  1
  Al  Al8  1  0.44631296  0.08714090  0.91696761  1
  Al  Al9  1  0.56167743  0.19245361  0.66511389  1
  Al  Al10  1  0.10760648  0.43461900  0.41294714  1
  Al  Al11  1  0.22542063  0.54035732  0.16779202  1
  Al  Al12  1  0.77684857  0.42830204  0.90848919  1
  Al  Al13  1  0.89264635  0.54038197  0.66384212  1
  Al  Al14  1  0.43425213  0.42340675  0.40676501  1
  Al  Al15  1  0.55400936  0.53906494  0.17148910  1
  Al  Al16  1  0.11289958  0.42692134  0.91024119  1
  Al  Al17  1  0.20947116  0.54590018  0.65595688  1
  Al  Al18  1  0.79364245  0.42359683  0.41425340  1
  Al  Al19  1  0.11352620  0.75589496  0.40833088  1
  Al  Al20  1  0.22177755  0.87112538  0.15718296  1
  Al  Al21  1  0.77187944  0.76954514  0.90415591  1
  Al  Al22  1  0.89105569  0.86992431  0.66739708  1
  Al  Al23  1  0.43705862  0.77555719  0.40440655  1
  Al  Al24  1  0.55398048  0.87743266  0.15849846  1
  Al  Al25  1  0.10591132  0.76415656  0.90874937  1
  Al  Al26  1  0.21221486  0.87588484  0.65661177  1
  Al  Al27  1  0.77926416  0.75687042  0.41655492  1
  Al  Al28  1  0.88964009  0.87136423  0.15415154  1
  Al  Al29  1  0.44531949  0.76714485  0.91201719  1
  Al  Al30  1  0.55858218  0.87566372  0.65918564  1
  Gd  Gd31  1  0.22619168  0.19721926  0.64681466  1
  Gd  Gd32  1  0.78504061  0.09229818  0.40818214  1
  Gd  Gd33  1  0.88823653  0.54141035  0.15148328  1
  Gd  Gd34  1  0.44089555  0.43051044  0.91248615  1
  Gd  Gd35  1  0.55328593  0.54558678  0.63634577  1
  N  N36  1  0.22433376  0.20434167  0.35932530  1
  N  N37  1  0.11391406  0.09313053  0.10309662  1
  N  N38  1  0.89167045  0.20383439  0.85796128  1
  N  N39  1  0.77972924  0.09299633  0.62738811  1
  N  N40  1  0.53338965  0.21393615  0.34404047  1
  N  N41  1  0.44506376  0.09338420  0.10474417  1
  N  N42  1  0.22377785  0.20313344  0.86809102  1
  N  N43  1  0.08835813  0.07842835  0.58601353  1
  N  N44  1  0.90385363  0.22348699  0.33409254  1
  N  N45  1  0.77855827  0.09365594  0.10664744  1
  N  N46  1  0.56711225  0.17636905  0.85219770  1
  N  N47  1  0.48165809  0.07559725  0.58695890  1
  N  N48  1  0.21850476  0.54061329  0.35383717  1
  N  N49  1  0.14535092  0.41392030  0.09634932  1
  N  N50  1  0.88955954  0.53874741  0.86067309  1
  N  N51  1  0.81451555  0.40608699  0.60114966  1
  N  N52  1  0.55753605  0.53988815  0.36973600  1
  N  N53  1  0.44437559  0.43184760  0.13075241  1
  N  N54  1  0.19104701  0.55593607  0.84043482  1
  N  N55  1  0.09644271  0.45326800  0.59589687  1
  N  N56  1  0.88782984  0.54209282  0.36884067  1
  N  N57  1  0.75810090  0.41637161  0.09258278  1
  N  N58  1  0.56636741  0.55763889  0.85265605  1
  N  N59  1  0.42698654  0.40781395  0.60116455  1
  N  N60  1  0.21881091  0.87098048  0.34436934  1
  N  N61  1  0.11332437  0.75873889  0.09829461  1
  N  N62  1  0.89081449  0.87122586  0.85377240  1
  N  N63  1  0.77810929  0.75991832  0.60840923  1
  N  N64  1  0.56089019  0.86910064  0.34620042  1
  N  N65  1  0.44527104  0.76168761  0.10517657  1
  N  N66  1  0.22133971  0.87258904  0.85084739  1
  N  N67  1  0.10946406  0.76222778  0.59802470  1
  N  N68  1  0.90311746  0.83980614  0.34064638  1
  N  N69  1  0.75998649  0.79335987  0.08736742  1
  N  N70  1  0.55097953  0.87533396  0.84854027  1
  N  N71  1  0.42045400  0.80640194  0.58964602  1
