# generated using pymatgen
data_Gd5Al31N36
_symmetry_space_group_name_H-M   'P 1'
_cell_length_a   9.76449814
_cell_length_b   9.73735101
_cell_length_c   10.32059874
_cell_angle_alpha   89.73681797
_cell_angle_beta   89.96659395
_cell_angle_gamma   59.95067302
_symmetry_Int_Tables_number   1
_chemical_formula_structural   Gd5Al31N36
_chemical_formula_sum   'Gd5 Al31 N36'
_cell_volume   849.38533836
_cell_formula_units_Z   1
loop_
 _symmetry_equiv_pos_site_id
 _symmetry_equiv_pos_as_xyz
  1  'x, y, z'
loop_
 _atom_site_type_symbol
 _atom_site_label
 _atom_site_symmetry_multiplicity
 _atom_site_fract_x
 _atom_site_fract_y
 _atom_site_fract_z
 _atom_site_occupancy
  Al  Al0  1  0.11697606  0.09843228  0.30815324  1
  Al  Al1  1  0.22059846  0.20639807  0.05635258  1
  Al  Al2  1  0.78442257  0.08811269  0.85136640  1
  Al  Al3  1  0.89840293  0.20150290  0.56273665  1
  Al  Al4  1  0.44882273  0.08967786  0.37175819  1
  Al  Al5  1  0.54541623  0.20527270  0.11465244  1
  Al  Al6  1  0.10513513  0.08880841  0.81475702  1
  Al  Al7  1  0.88562944  0.20690055  0.05843764  1
  Al  Al8  1  0.45572415  0.07839705  0.87573257  1
  Al  Al9  1  0.57178629  0.18447485  0.62623575  1
  Al  Al10  1  0.12383405  0.41811335  0.31242660  1
  Al  Al11  1  0.21155114  0.54885564  0.06391514  1
  Al  Al12  1  0.78659189  0.42903238  0.80632813  1
  Al  Al13  1  0.89146664  0.54308577  0.55626654  1
  Al  Al14  1  0.43111085  0.43783906  0.29265819  1
  Al  Al15  1  0.55501115  0.54643116  0.06096471  1
  Al  Al16  1  0.09749642  0.44398899  0.80475396  1
  Al  Al17  1  0.21921449  0.54159083  0.55586644  1
  Al  Al18  1  0.78001273  0.42694396  0.30778340  1
  Al  Al19  1  0.11291243  0.75613893  0.31166640  1
  Al  Al20  1  0.21913387  0.87400891  0.06112856  1
  Al  Al21  1  0.78482738  0.75961196  0.80342527  1
  Al  Al22  1  0.89686322  0.86232407  0.56214750  1
  Al  Al23  1  0.43488795  0.76249283  0.30375838  1
  Al  Al24  1  0.54754201  0.88578962  0.13025344  1
  Al  Al25  1  0.10609220  0.76510450  0.80930371  1
  Al  Al26  1  0.21393933  0.87364349  0.56114912  1
  Al  Al27  1  0.78108752  0.75906576  0.31499723  1
  Al  Al28  1  0.88867146  0.87622832  0.05767609  1
  Al  Al29  1  0.43933295  0.76984316  0.81318758  1
  Al  Al30  1  0.56048068  0.87470301  0.62485385  1
  Gd  Gd31  1  0.22773966  0.20145932  0.58795509  1
  Gd  Gd32  1  0.77960349  0.09370219  0.33354281  1
  Gd  Gd33  1  0.88899931  0.54298231  0.06728999  1
  Gd  Gd34  1  0.43810713  0.42625971  0.83857126  1
  Gd  Gd35  1  0.55408129  0.53595432  0.56023680  1
  N  N36  1  0.22514317  0.20130062  0.36312926  1
  N  N37  1  0.10887164  0.09743477  0.11592301  1
  N  N38  1  0.88778302  0.21007555  0.87137459  1
  N  N39  1  0.78629184  0.09144433  0.58310752  1
  N  N40  1  0.52046274  0.21827278  0.29664907  1
  N  N41  1  0.44490490  0.09111190  0.05876784  1
  N  N42  1  0.21603794  0.21052989  0.85577269  1
  N  N43  1  0.09699284  0.07405357  0.63385869  1
  N  N44  1  0.90974585  0.22172893  0.37653329  1
  N  N45  1  0.77260609  0.09836445  0.08479292  1
  N  N46  1  0.57519419  0.16522023  0.81378561  1
  N  N47  1  0.48873384  0.07068629  0.55232962  1
  N  N48  1  0.22461674  0.53922119  0.36592239  1
  N  N49  1  0.14324269  0.41049921  0.12857841  1
  N  N50  1  0.88577892  0.54321488  0.85262348  1
  N  N51  1  0.80895682  0.41358641  0.62267190  1
  N  N52  1  0.55084265  0.53800954  0.34218015  1
  N  N53  1  0.43628204  0.43964926  0.09400933  1
  N  N54  1  0.18028139  0.56076816  0.88260130  1
  N  N55  1  0.09586396  0.46143663  0.62045222  1
  N  N56  1  0.88926251  0.53793090  0.36018297  1
  N  N57  1  0.76409193  0.41310224  0.12539426  1
  N  N58  1  0.57312696  0.55542435  0.87022771  1
  N  N59  1  0.42847957  0.40751025  0.61550535  1
  N  N60  1  0.21761409  0.87374164  0.36836161  1
  N  N61  1  0.10601814  0.76755134  0.12346168  1
  N  N62  1  0.89296143  0.86762682  0.86827363  1
  N  N63  1  0.78396991  0.75698474  0.61600320  1
  N  N64  1  0.54993240  0.87349554  0.31918465  1
  N  N65  1  0.43776844  0.76583656  0.11475829  1
  N  N66  1  0.22048615  0.86981671  0.87509503  1
  N  N67  1  0.11726953  0.75614783  0.62141648  1
  N  N68  1  0.90874717  0.83586648  0.37965959  1
  N  N69  1  0.76899761  0.79376837  0.12875871  1
  N  N70  1  0.55888759  0.87235735  0.81773181  1
  N  N71  1  0.42316096  0.78958621  0.62401004  1
