# generated using pymatgen
data_Gd5Al31N36
_symmetry_space_group_name_H-M   'P 1'
_cell_length_a   9.75412635
_cell_length_b   9.73541182
_cell_length_c   10.38299007
_cell_angle_alpha   90.06298945
_cell_angle_beta   90.53891850
_cell_angle_gamma   60.02339574
_symmetry_Int_Tables_number   1
_chemical_formula_structural   Gd5Al31N36
_chemical_formula_sum   'Gd5 Al31 N36'
_cell_volume   854.03397728
_cell_formula_units_Z   1
loop_
 _symmetry_equiv_pos_site_id
 _symmetry_equiv_pos_as_xyz
  1  'x, y, z'
loop_
 _atom_site_type_symbol
 _atom_site_label
 _atom_site_symmetry_multiplicity
 _atom_site_fract_x
 _atom_site_fract_y
 _atom_site_fract_z
 _atom_site_occupancy
  Al  Al0  1  0.12453355  0.09294604  0.31925729  1
  Al  Al1  1  0.22416165  0.20439899  0.07790522  1
  Al  Al2  1  0.78474387  0.08326952  0.90565560  1
  Al  Al3  1  0.88331746  0.20356713  0.66744228  1
  Al  Al4  1  0.45223857  0.08734047  0.39737016  1
  Al  Al5  1  0.55071373  0.19951224  0.14315322  1
  Al  Al6  1  0.10990103  0.08732072  0.84539558  1
  Al  Al7  1  0.88514636  0.20626317  0.13829936  1
  Al  Al8  1  0.45499296  0.08031937  0.90181099  1
  Al  Al9  1  0.56457985  0.18879805  0.66300382  1
  Al  Al10  1  0.12744959  0.41622637  0.33423231  1
  Al  Al11  1  0.21276346  0.54818334  0.08934877  1
  Al  Al12  1  0.76840424  0.43284577  0.89589210  1
  Al  Al13  1  0.87984098  0.54639642  0.65786307  1
  Al  Al14  1  0.42967457  0.43051490  0.32582374  1
  Al  Al15  1  0.55655900  0.53754690  0.15241981  1
  Al  Al16  1  0.10247923  0.44108125  0.84052632  1
  Al  Al17  1  0.21385156  0.54198670  0.58672440  1
  Al  Al18  1  0.80750490  0.41811377  0.40123961  1
  Al  Al19  1  0.11810990  0.75468977  0.33165066  1
  Al  Al20  1  0.22759191  0.86710466  0.08008275  1
  Al  Al21  1  0.77075212  0.77342236  0.89707709  1
  Al  Al22  1  0.88649037  0.87252567  0.65692169  1
  Al  Al23  1  0.43849054  0.76851654  0.33444510  1
  Al  Al24  1  0.55518427  0.88066885  0.15096261  1
  Al  Al25  1  0.11280488  0.76117492  0.83388877  1
  Al  Al26  1  0.20809418  0.88038974  0.58065004  1
  Al  Al27  1  0.78487278  0.75218112  0.40526137  1
  Al  Al28  1  0.88473316  0.87564822  0.15012694  1
  Al  Al29  1  0.43680335  0.77445589  0.81914512  1
  Al  Al30  1  0.56396584  0.87781254  0.64616411  1
  Gd  Gd31  1  0.22196238  0.20489622  0.60973587  1
  Gd  Gd32  1  0.77729880  0.09999516  0.39792447  1
  Gd  Gd33  1  0.88491056  0.54126758  0.12905956  1
  Gd  Gd34  1  0.44647226  0.42802780  0.87659812  1
  Gd  Gd35  1  0.54604033  0.54019948  0.59976422  1
  N  N36  1  0.22571882  0.19895481  0.38546080  1
  N  N37  1  0.11929207  0.08990360  0.12678211  1
  N  N38  1  0.87881186  0.21005263  0.85466878  1
  N  N39  1  0.78028900  0.09476630  0.61396575  1
  N  N40  1  0.52838123  0.21159832  0.32359045  1
  N  N41  1  0.44699961  0.08873380  0.08519757  1
  N  N42  1  0.21718061  0.21054980  0.88369153  1
  N  N43  1  0.09841247  0.07442635  0.66146732  1
  N  N44  1  0.90296477  0.22164356  0.32124894  1
  N  N45  1  0.77769448  0.09303128  0.09666675  1
  N  N46  1  0.57592047  0.16665324  0.84757790  1
  N  N47  1  0.48754003  0.07582847  0.57719163  1
  N  N48  1  0.22317541  0.53950063  0.39550668  1
  N  N49  1  0.14835737  0.40708507  0.14972760  1
  N  N50  1  0.87669113  0.54607579  0.85722769  1
  N  N51  1  0.81674912  0.40429719  0.58597187  1
  N  N52  1  0.56243456  0.53166695  0.35173299  1
  N  N53  1  0.43640643  0.43580682  0.12847412  1
  N  N54  1  0.18398742  0.56167299  0.91031281  1
  N  N55  1  0.09516788  0.46155337  0.65854358  1
  N  N56  1  0.89751803  0.53827961  0.35177915  1
  N  N57  1  0.75336772  0.41583786  0.07763326  1
  N  N58  1  0.56845463  0.55715509  0.82555227  1
  N  N59  1  0.42250739  0.40722527  0.64634480  1
  N  N60  1  0.21686836  0.87616334  0.38994241  1
  N  N61  1  0.11657982  0.76288723  0.14493119  1
  N  N62  1  0.88909272  0.87184152  0.84236909  1
  N  N63  1  0.77976155  0.75836590  0.59326611  1
  N  N64  1  0.56458546  0.87012387  0.33938018  1
  N  N65  1  0.44182050  0.76331447  0.14501223  1
  N  N66  1  0.22701590  0.86553415  0.89572120  1
  N  N67  1  0.11807433  0.75752719  0.64231797  1
  N  N68  1  0.89567956  0.84788043  0.33573035  1
  N  N69  1  0.75938623  0.79684406  0.07919710  1
  N  N70  1  0.55748706  0.87627083  0.83401944  1
  N  N71  1  0.41855414  0.80438815  0.63122983  1
