# generated using pymatgen
data_Gd5Al31N36
_symmetry_space_group_name_H-M   'P 1'
_cell_length_a   9.75418802
_cell_length_b   9.74941876
_cell_length_c   10.37107938
_cell_angle_alpha   90.34107956
_cell_angle_beta   90.70503833
_cell_angle_gamma   59.98946001
_symmetry_Int_Tables_number   1
_chemical_formula_structural   Gd5Al31N36
_chemical_formula_sum   'Gd5 Al31 N36'
_cell_volume   853.97549615
_cell_formula_units_Z   1
loop_
 _symmetry_equiv_pos_site_id
 _symmetry_equiv_pos_as_xyz
  1  'x, y, z'
loop_
 _atom_site_type_symbol
 _atom_site_label
 _atom_site_symmetry_multiplicity
 _atom_site_fract_x
 _atom_site_fract_y
 _atom_site_fract_z
 _atom_site_occupancy
  Al  Al0  1  0.12535993  0.09191981  0.31594120  1
  Al  Al1  1  0.22378154  0.20382545  0.07685482  1
  Al  Al2  1  0.78309703  0.08525440  0.90152735  1
  Al  Al3  1  0.88278217  0.20282617  0.66582913  1
  Al  Al4  1  0.45265255  0.08721774  0.39559894  1
  Al  Al5  1  0.55042785  0.19965586  0.14130280  1
  Al  Al6  1  0.11021683  0.08639956  0.84267835  1
  Al  Al7  1  0.88541002  0.20684983  0.13632840  1
  Al  Al8  1  0.45326905  0.08129187  0.90008820  1
  Al  Al9  1  0.56222074  0.18950971  0.66078208  1
  Al  Al10  1  0.12841899  0.41629740  0.33172921  1
  Al  Al11  1  0.21303111  0.54779217  0.08811860  1
  Al  Al12  1  0.76906660  0.43312830  0.89482169  1
  Al  Al13  1  0.88046881  0.54577330  0.65795085  1
  Al  Al14  1  0.43084302  0.43011905  0.32502668  1
  Al  Al15  1  0.55726781  0.53711143  0.15179038  1
  Al  Al16  1  0.10347086  0.43984678  0.83980607  1
  Al  Al17  1  0.21463770  0.54137871  0.58512017  1
  Al  Al18  1  0.80936177  0.41756383  0.39979346  1
  Al  Al19  1  0.11773330  0.75495528  0.33124888  1
  Al  Al20  1  0.22828642  0.86639838  0.07900856  1
  Al  Al21  1  0.76998430  0.77378375  0.89465310  1
  Al  Al22  1  0.88644226  0.87173501  0.65388712  1
  Al  Al23  1  0.43951174  0.76827633  0.33387848  1
  Al  Al24  1  0.55529013  0.88098866  0.14988384  1
  Al  Al25  1  0.11219197  0.76111172  0.83242113  1
  Al  Al26  1  0.20821505  0.87896321  0.57874343  1
  Al  Al27  1  0.78574671  0.75198961  0.40605733  1
  Al  Al28  1  0.88565093  0.87697493  0.14403563  1
  Al  Al29  1  0.43641042  0.77431668  0.81814354  1
  Al  Al30  1  0.56140428  0.87882441  0.64540599  1
  Gd  Gd31  1  0.21686211  0.20620914  0.60420695  1
  Gd  Gd32  1  0.77789739  0.10107892  0.39633190  1
  Gd  Gd33  1  0.88397617  0.54335533  0.12864142  1
  Gd  Gd34  1  0.44644404  0.42932785  0.87469118  1
  Gd  Gd35  1  0.54834436  0.53942193  0.59850266  1
  N  N36  1  0.22631245  0.19884889  0.38091704  1
  N  N37  1  0.12028110  0.08854699  0.12591217  1
  N  N38  1  0.87852908  0.21074319  0.85270317  1
  N  N39  1  0.77868617  0.09448436  0.61295215  1
  N  N40  1  0.52865819  0.21134166  0.32219090  1
  N  N41  1  0.44673412  0.08860818  0.08393323  1
  N  N42  1  0.21600345  0.21007505  0.88273959  1
  N  N43  1  0.09782166  0.07289066  0.65950137  1
  N  N44  1  0.90393802  0.22161230  0.31927821  1
  N  N45  1  0.77719546  0.09461644  0.09343530  1
  N  N46  1  0.57331048  0.16824055  0.84552179  1
  N  N47  1  0.48346018  0.07679847  0.57641035  1
  N  N48  1  0.22410422  0.53919447  0.39366249  1
  N  N49  1  0.14757664  0.40754791  0.14714425  1
  N  N50  1  0.87731337  0.54588874  0.85617305  1
  N  N51  1  0.81980716  0.40211718  0.58454629  1
  N  N52  1  0.56374605  0.53139884  0.35077125  1
  N  N53  1  0.43674596  0.43569148  0.12746526  1
  N  N54  1  0.18426196  0.56178236  0.90891534  1
  N  N55  1  0.09611082  0.46128510  0.65759295  1
  N  N56  1  0.89873980  0.53822062  0.35140764  1
  N  N57  1  0.75418110  0.41635916  0.07661351  1
  N  N58  1  0.56923655  0.55756975  0.82456670  1
  N  N59  1  0.42380037  0.40809944  0.64366578  1
  N  N60  1  0.21770074  0.87605964  0.38816562  1
  N  N61  1  0.11593795  0.76305680  0.14376738  1
  N  N62  1  0.88857056  0.87246244  0.84125471  1
  N  N63  1  0.77792992  0.75762734  0.59409327  1
  N  N64  1  0.56579653  0.86965343  0.33854891  1
  N  N65  1  0.44260445  0.76264886  0.14410526  1
  N  N66  1  0.22669619  0.86532653  0.89449131  1
  N  N67  1  0.11797185  0.75686692  0.64082429  1
  N  N68  1  0.89693937  0.84836489  0.33955576  1
  N  N69  1  0.75902660  0.79786410  0.07713645  1
  N  N70  1  0.55607371  0.87698522  0.83299251  1
  N  N71  1  0.41819923  0.80303914  0.62996478  1
