# generated using pymatgen
data_Gd5Al31N36
_symmetry_space_group_name_H-M   'P 1'
_cell_length_a   9.72839260
_cell_length_b   9.74503174
_cell_length_c   10.20097164
_cell_angle_alpha   89.87489964
_cell_angle_beta   89.75849647
_cell_angle_gamma   60.02764080
_symmetry_Int_Tables_number   1
_chemical_formula_structural   Gd5Al31N36
_chemical_formula_sum   'Gd5 Al31 N36'
_cell_volume   837.74829763
_cell_formula_units_Z   1
loop_
 _symmetry_equiv_pos_site_id
 _symmetry_equiv_pos_as_xyz
  1  'x, y, z'
loop_
 _atom_site_type_symbol
 _atom_site_label
 _atom_site_symmetry_multiplicity
 _atom_site_fract_x
 _atom_site_fract_y
 _atom_site_fract_z
 _atom_site_occupancy
  Al  Al0  1  0.11324986  0.09687441  0.30400787  1
  Al  Al1  1  0.22494332  0.20410997  0.05585501  1
  Al  Al2  1  0.78340249  0.08853340  0.81358030  1
  Al  Al3  1  0.89753120  0.20058817  0.56591978  1
  Al  Al4  1  0.43754753  0.09499591  0.29760747  1
  Al  Al5  1  0.55933686  0.19654836  0.06261233  1
  Al  Al6  1  0.10922036  0.08808341  0.81527433  1
  Al  Al7  1  0.88727129  0.20312232  0.05342750  1
  Al  Al8  1  0.45624357  0.08142956  0.81813666  1
  Al  Al9  1  0.55970470  0.19603545  0.57577151  1
  Al  Al10  1  0.12020296  0.42240345  0.30884874  1
  Al  Al11  1  0.21278357  0.54777093  0.06476738  1
  Al  Al12  1  0.78777812  0.42709126  0.80707785  1
  Al  Al13  1  0.89066021  0.54228175  0.55620081  1
  Al  Al14  1  0.43587226  0.43228804  0.29389686  1
  Al  Al15  1  0.55675435  0.54384973  0.06404154  1
  Al  Al16  1  0.09980396  0.44086830  0.80436566  1
  Al  Al17  1  0.21795383  0.54193979  0.55359299  1
  Al  Al18  1  0.78053541  0.42498387  0.30804587  1
  Al  Al19  1  0.11298809  0.75708416  0.31231711  1
  Al  Al20  1  0.22023311  0.87294993  0.06152102  1
  Al  Al21  1  0.77520466  0.76160731  0.80339556  1
  Al  Al22  1  0.89699587  0.85969246  0.56713271  1
  Al  Al23  1  0.44092427  0.76639330  0.30435701  1
  Al  Al24  1  0.55297963  0.87796936  0.06012904  1
  Al  Al25  1  0.10584262  0.76486384  0.81064431  1
  Al  Al26  1  0.21688631  0.87309979  0.56210219  1
  Al  Al27  1  0.77554266  0.76382011  0.31631945  1
  Al  Al28  1  0.88642859  0.87834887  0.05362425  1
  Al  Al29  1  0.44406535  0.77171648  0.81485583  1
  Al  Al30  1  0.55946006  0.87261852  0.56016894  1
  Gd  Gd31  1  0.22728260  0.20030146  0.57058642  1
  Gd  Gd32  1  0.78199267  0.09041552  0.31855898  1
  Gd  Gd33  1  0.88735766  0.54501981  0.06790391  1
  Gd  Gd34  1  0.43716318  0.42994470  0.83448698  1
  Gd  Gd35  1  0.55379501  0.53921802  0.56063092  1
  N  N36  1  0.22354555  0.20135550  0.34990872  1
  N  N37  1  0.10862427  0.09574573  0.11222506  1
  N  N38  1  0.88818701  0.20719634  0.86625122  1
  N  N39  1  0.78210343  0.09145113  0.61336549  1
  N  N40  1  0.52447647  0.22018888  0.35003671  1
  N  N41  1  0.44051756  0.09296595  0.10930625  1
  N  N42  1  0.22163371  0.20761305  0.85852000  1
  N  N43  1  0.09895246  0.07462560  0.63233891  1
  N  N44  1  0.90747891  0.21944944  0.37993641  1
  N  N45  1  0.78163398  0.09353066  0.09828017  1
  N  N46  1  0.57307876  0.17446409  0.87607776  1
  N  N47  1  0.47978596  0.07182824  0.63352241  1
  N  N48  1  0.22383987  0.54031182  0.36327064  1
  N  N49  1  0.14066647  0.41235180  0.12482765  1
  N  N50  1  0.88624874  0.54295486  0.85051261  1
  N  N51  1  0.80786361  0.41303726  0.62132269  1
  N  N52  1  0.55148558  0.54073378  0.34096862  1
  N  N53  1  0.43983933  0.43325773  0.09783947  1
  N  N54  1  0.17999093  0.56129615  0.88220288  1
  N  N55  1  0.09690638  0.45810195  0.61787223  1
  N  N56  1  0.88821867  0.53916862  0.35808597  1
  N  N57  1  0.76756244  0.40907827  0.12381479  1
  N  N58  1  0.57405719  0.55572941  0.87027486  1
  N  N59  1  0.42793523  0.40902069  0.61384614  1
  N  N60  1  0.21991719  0.87402170  0.36764451  1
  N  N61  1  0.10542879  0.76714677  0.12233993  1
  N  N62  1  0.88835200  0.87048977  0.86218406  1
  N  N63  1  0.77564114  0.75841489  0.61499588  1
  N  N64  1  0.55154235  0.87488222  0.36911207  1
  N  N65  1  0.44244159  0.76692910  0.11638488  1
  N  N66  1  0.22258819  0.86810567  0.87395621  1
  N  N67  1  0.11907981  0.75519082  0.62104619  1
  N  N68  1  0.90714890  0.83806544  0.38386146  1
  N  N69  1  0.76047118  0.79933670  0.13065517  1
  N  N70  1  0.56073021  0.86787251  0.87360473  1
  N  N71  1  0.42831877  0.79294928  0.62635880  1
