# generated using pymatgen
data_Gd5Al31N36
_symmetry_space_group_name_H-M   'P 1'
_cell_length_a   9.74092936
_cell_length_b   9.74557718
_cell_length_c   10.33849490
_cell_angle_alpha   90.46274501
_cell_angle_beta   90.52762299
_cell_angle_gamma   60.00560162
_symmetry_Int_Tables_number   1
_chemical_formula_structural   Gd5Al31N36
_chemical_formula_sum   'Gd5 Al31 N36'
_cell_volume   849.96005073
_cell_formula_units_Z   1
loop_
 _symmetry_equiv_pos_site_id
 _symmetry_equiv_pos_as_xyz
  1  'x, y, z'
loop_
 _atom_site_type_symbol
 _atom_site_label
 _atom_site_symmetry_multiplicity
 _atom_site_fract_x
 _atom_site_fract_y
 _atom_site_fract_z
 _atom_site_occupancy
  Al  Al0  1  0.10523814  0.09821057  0.38777606  1
  Al  Al1  1  0.23111718  0.19828070  0.16064993  1
  Al  Al2  1  0.78805554  0.08156404  0.90153843  1
  Al  Al3  1  0.89118711  0.19835504  0.65828551  1
  Al  Al4  1  0.45460616  0.08757352  0.39463140  1
  Al  Al5  1  0.55420114  0.19889314  0.14244718  1
  Al  Al6  1  0.10923074  0.10257969  0.90810159  1
  Al  Al7  1  0.88766207  0.20741389  0.14038776  1
  Al  Al8  1  0.44540558  0.08503559  0.90673700  1
  Al  Al9  1  0.56402352  0.18597179  0.66473674  1
  Al  Al10  1  0.11503179  0.42867346  0.36928196  1
  Al  Al11  1  0.21186524  0.54703296  0.08920047  1
  Al  Al12  1  0.77589074  0.42961098  0.89224077  1
  Al  Al13  1  0.88624021  0.54147561  0.64442931  1
  Al  Al14  1  0.43181294  0.43414661  0.32209777  1
  Al  Al15  1  0.55692383  0.54340514  0.14825455  1
  Al  Al16  1  0.10435254  0.43314056  0.85847351  1
  Al  Al17  1  0.22024924  0.54022819  0.58248771  1
  Al  Al18  1  0.79229196  0.42505888  0.40095778  1
  Al  Al19  1  0.11791255  0.75293438  0.32387619  1
  Al  Al20  1  0.22148397  0.87043559  0.08572144  1
  Al  Al21  1  0.77198623  0.77207328  0.89214354  1
  Al  Al22  1  0.88640937  0.87108679  0.65724749  1
  Al  Al23  1  0.44399738  0.77294822  0.38701310  1
  Al  Al24  1  0.55558813  0.87769593  0.14688031  1
  Al  Al25  1  0.11561171  0.76294683  0.83394340  1
  Al  Al26  1  0.20857670  0.87028049  0.56643138  1
  Al  Al27  1  0.77988575  0.75744864  0.40612158  1
  Al  Al28  1  0.88286346  0.87653198  0.14493642  1
  Al  Al29  1  0.45181187  0.76458850  0.89880416  1
  Al  Al30  1  0.55984307  0.87327822  0.64615178  1
  Gd  Gd31  1  0.23018788  0.19281852  0.63000660  1
  Gd  Gd32  1  0.78022539  0.09754470  0.40061794  1
  Gd  Gd33  1  0.88358802  0.54326455  0.14056373  1
  Gd  Gd34  1  0.44882724  0.42294642  0.88162999  1
  Gd  Gd35  1  0.54516870  0.54166260  0.61763501  1
  N  N36  1  0.23069020  0.19410710  0.35602775  1
  N  N37  1  0.11094273  0.10106302  0.09555578  1
  N  N38  1  0.89215289  0.20424931  0.84520740  1
  N  N39  1  0.77909031  0.09226255  0.61826051  1
  N  N40  1  0.53197771  0.21375657  0.32439953  1
  N  N41  1  0.44111972  0.09199028  0.09192511  1
  N  N42  1  0.22147292  0.20909861  0.85627831  1
  N  N43  1  0.08086010  0.08597301  0.57159714  1
  N  N44  1  0.89992967  0.22588949  0.32054184  1
  N  N45  1  0.77997673  0.09380904  0.09375100  1
  N  N46  1  0.57600335  0.16233786  0.85094703  1
  N  N47  1  0.48764069  0.07320458  0.57455652  1
  N  N48  1  0.22789374  0.54399748  0.39309013  1
  N  N49  1  0.14173798  0.41605529  0.15224034  1
  N  N50  1  0.88301864  0.54298811  0.84355978  1
  N  N51  1  0.80692114  0.40676118  0.58637389  1
  N  N52  1  0.55993130  0.54074947  0.34519662  1
  N  N53  1  0.43770896  0.43695782  0.12677982  1
  N  N54  1  0.18565628  0.56004596  0.90638300  1
  N  N55  1  0.09581622  0.45046241  0.60235358  1
  N  N56  1  0.88783217  0.54252478  0.35987020  1
  N  N57  1  0.75775072  0.41431539  0.07413593  1
  N  N58  1  0.56766326  0.55972425  0.83439856  1
  N  N59  1  0.42267270  0.40444433  0.65151830  1
  N  N60  1  0.21649716  0.86954074  0.37234003  1
  N  N61  1  0.11377086  0.76273686  0.13874677  1
  N  N62  1  0.89145547  0.86941751  0.84188826  1
  N  N63  1  0.77797342  0.76031949  0.59484866  1
  N  N64  1  0.56325299  0.86961672  0.33229488  1
  N  N65  1  0.45322293  0.76001274  0.09263680  1
  N  N66  1  0.22132842  0.87216867  0.89450992  1
  N  N67  1  0.12114232  0.75564902  0.64341845  1
  N  N68  1  0.89421207  0.84644820  0.33190154  1
  N  N69  1  0.76004760  0.79521269  0.07402287  1
  N  N70  1  0.55001003  0.87595365  0.83438125  1
  N  N71  1  0.42765385  0.80216643  0.57300625  1
