# generated using pymatgen
data_Gd5Al31N36
_symmetry_space_group_name_H-M   'P 1'
_cell_length_a   9.73810759
_cell_length_b   9.72420974
_cell_length_c   10.41830319
_cell_angle_alpha   89.97629830
_cell_angle_beta   90.40682354
_cell_angle_gamma   59.84494768
_symmetry_Int_Tables_number   1
_chemical_formula_structural   Gd5Al31N36
_chemical_formula_sum   'Gd5 Al31 N36'
_cell_volume   853.02211660
_cell_formula_units_Z   1
loop_
 _symmetry_equiv_pos_site_id
 _symmetry_equiv_pos_as_xyz
  1  'x, y, z'
loop_
 _atom_site_type_symbol
 _atom_site_label
 _atom_site_symmetry_multiplicity
 _atom_site_fract_x
 _atom_site_fract_y
 _atom_site_fract_z
 _atom_site_occupancy
  Al  Al0  1  0.10754200  0.09400871  0.39884980  1
  Al  Al1  1  0.23526404  0.19118175  0.16824737  1
  Al  Al2  1  0.78631252  0.08378012  0.91227466  1
  Al  Al3  1  0.88666636  0.20217593  0.66912598  1
  Al  Al4  1  0.45585860  0.08477872  0.40678508  1
  Al  Al5  1  0.55554536  0.19736781  0.15265347  1
  Al  Al6  1  0.10891649  0.10455210  0.91880286  1
  Al  Al7  1  0.88869043  0.20362095  0.15022807  1
  Al  Al8  1  0.44467488  0.08801098  0.91775890  1
  Al  Al9  1  0.56081373  0.19185540  0.67669301  1
  Al  Al10  1  0.12282784  0.42390034  0.35062090  1
  Al  Al11  1  0.21417605  0.54525507  0.09865466  1
  Al  Al12  1  0.77104984  0.43282892  0.90051423  1
  Al  Al13  1  0.87902522  0.54623120  0.66554150  1
  Al  Al14  1  0.43231718  0.42857846  0.33507159  1
  Al  Al15  1  0.55938594  0.53469091  0.15947274  1
  Al  Al16  1  0.10628430  0.43782112  0.84621865  1
  Al  Al17  1  0.21532169  0.53983089  0.59816181  1
  Al  Al18  1  0.80083776  0.42144407  0.41027691  1
  Al  Al19  1  0.12083714  0.75000568  0.33941004  1
  Al  Al20  1  0.22850555  0.86418468  0.09174188  1
  Al  Al21  1  0.77055684  0.77367880  0.90802029  1
  Al  Al22  1  0.88446321  0.87245006  0.66993747  1
  Al  Al23  1  0.44102629  0.76555962  0.33885687  1
  Al  Al24  1  0.55981295  0.87729881  0.16059590  1
  Al  Al25  1  0.11260042  0.76262971  0.84615983  1
  Al  Al26  1  0.20656602  0.87275849  0.58373235  1
  Al  Al27  1  0.78455134  0.75251394  0.41557948  1
  Al  Al28  1  0.88616968  0.87480795  0.15997822  1
  Al  Al29  1  0.43261229  0.78184898  0.83246622  1
  Al  Al30  1  0.56197532  0.88237951  0.65980782  1
  Gd  Gd31  1  0.22622258  0.19004408  0.64086102  1
  Gd  Gd32  1  0.78056172  0.09831333  0.41440751  1
  Gd  Gd33  1  0.88928381  0.53508400  0.13713929  1
  Gd  Gd34  1  0.44834425  0.43146421  0.88810057  1
  Gd  Gd35  1  0.53904927  0.55105008  0.61137407  1
  N  N36  1  0.23275296  0.18919047  0.36512763  1
  N  N37  1  0.11214690  0.09849485  0.10444942  1
  N  N38  1  0.89160767  0.20555433  0.85472257  1
  N  N39  1  0.77576114  0.09473683  0.63053976  1
  N  N40  1  0.53398002  0.20866814  0.33364154  1
  N  N41  1  0.44397609  0.08945909  0.10204361  1
  N  N42  1  0.22275109  0.20661541  0.86596876  1
  N  N43  1  0.07297195  0.08917641  0.57822277  1
  N  N44  1  0.90322202  0.22218111  0.32868764  1
  N  N45  1  0.78119569  0.09134515  0.10368400  1
  N  N46  1  0.57312377  0.16955499  0.86242260  1
  N  N47  1  0.48325133  0.08062834  0.58530103  1
  N  N48  1  0.22639001  0.53723276  0.40882819  1
  N  N49  1  0.14936104  0.41135038  0.16814685  1
  N  N50  1  0.87953914  0.54573300  0.86443053  1
  N  N51  1  0.80672855  0.41150779  0.59555858  1
  N  N52  1  0.56483823  0.53003528  0.35868632  1
  N  N53  1  0.43807707  0.43432131  0.13849266  1
  N  N54  1  0.18460354  0.55983525  0.91983070  1
  N  N55  1  0.09621040  0.45597820  0.66105408  1
  N  N56  1  0.89541855  0.53845139  0.36275900  1
  N  N57  1  0.75502454  0.41172570  0.08182738  1
  N  N58  1  0.56866703  0.56253526  0.83362863  1
  N  N59  1  0.42391236  0.41110290  0.65975508  1
  N  N60  1  0.22713984  0.85946121  0.39566157  1
  N  N61  1  0.11803547  0.76040114  0.15416130  1
  N  N62  1  0.88887412  0.87109639  0.85379126  1
  N  N63  1  0.77721295  0.76047805  0.60386043  1
  N  N64  1  0.56662955  0.86724856  0.34887041  1
  N  N65  1  0.44453015  0.76202848  0.15187151  1
  N  N66  1  0.22367238  0.86927209  0.90611348  1
  N  N67  1  0.11701915  0.75733038  0.65583243  1
  N  N68  1  0.89703793  0.84744308  0.34595021  1
  N  N69  1  0.76349275  0.79251267  0.09008523  1
  N  N70  1  0.55625692  0.88118283  0.84766252  1
  N  N71  1  0.40580937  0.82132425  0.64836026  1
