# generated using pymatgen
data_Gd5Al31N36
_symmetry_space_group_name_H-M   'P 1'
_cell_length_a   9.75760021
_cell_length_b   9.77927059
_cell_length_c   10.19415506
_cell_angle_alpha   89.61284785
_cell_angle_beta   89.70998498
_cell_angle_gamma   60.05058706
_symmetry_Int_Tables_number   1
_chemical_formula_structural   Gd5Al31N36
_chemical_formula_sum   'Gd5 Al31 N36'
_cell_volume   842.83345594
_cell_formula_units_Z   1
loop_
 _symmetry_equiv_pos_site_id
 _symmetry_equiv_pos_as_xyz
  1  'x, y, z'
loop_
 _atom_site_type_symbol
 _atom_site_label
 _atom_site_symmetry_multiplicity
 _atom_site_fract_x
 _atom_site_fract_y
 _atom_site_fract_z
 _atom_site_occupancy
  Al  Al0  1  0.11340970  0.09567745  0.30432505  1
  Al  Al1  1  0.21979391  0.20713287  0.05675122  1
  Al  Al2  1  0.79461925  0.08314458  0.80980859  1
  Al  Al3  1  0.90074095  0.19950411  0.56569950  1
  Al  Al4  1  0.43728349  0.09065076  0.31864822  1
  Al  Al5  1  0.55008427  0.20563923  0.11029900  1
  Al  Al6  1  0.10895888  0.08717163  0.81590493  1
  Al  Al7  1  0.88410239  0.20292577  0.05560256  1
  Al  Al8  1  0.45014632  0.08454602  0.85211738  1
  Al  Al9  1  0.56371023  0.19072064  0.63287493  1
  Al  Al10  1  0.12127398  0.42169948  0.30996457  1
  Al  Al11  1  0.21014819  0.55090763  0.06448697  1
  Al  Al12  1  0.78949582  0.42648868  0.80738156  1
  Al  Al13  1  0.89157463  0.54279302  0.55662293  1
  Al  Al14  1  0.43112415  0.44007346  0.29287837  1
  Al  Al15  1  0.55749942  0.54595716  0.06223816  1
  Al  Al16  1  0.09803139  0.44477145  0.80366947  1
  Al  Al17  1  0.22079761  0.54179422  0.55555600  1
  Al  Al18  1  0.78129885  0.42450759  0.30738620  1
  Al  Al19  1  0.11226745  0.75765021  0.31197965  1
  Al  Al20  1  0.21985419  0.87333437  0.06153953  1
  Al  Al21  1  0.77490465  0.76292440  0.80252575  1
  Al  Al22  1  0.89890699  0.85703653  0.56614641  1
  Al  Al23  1  0.44119934  0.76362467  0.30330522  1
  Al  Al24  1  0.55464385  0.87471102  0.05996714  1
  Al  Al25  1  0.10706983  0.76421380  0.81069568  1
  Al  Al26  1  0.21819866  0.87176816  0.56231130  1
  Al  Al27  1  0.77785266  0.76105017  0.31408449  1
  Al  Al28  1  0.88334570  0.88237661  0.05561870  1
  Al  Al29  1  0.44487258  0.77127986  0.81253917  1
  Al  Al30  1  0.56020897  0.86956190  0.55680588  1
  Gd  Gd31  1  0.22305621  0.20362632  0.57683754  1
  Gd  Gd32  1  0.77651740  0.09339841  0.33361781  1
  Gd  Gd33  1  0.88841066  0.54495985  0.06744351  1
  Gd  Gd34  1  0.43888796  0.42951082  0.84270144  1
  Gd  Gd35  1  0.55685942  0.53599016  0.56260446  1
  N  N36  1  0.22264566  0.20055591  0.35154811  1
  N  N37  1  0.10750849  0.09614612  0.11260316  1
  N  N38  1  0.88905042  0.20622397  0.86756681  1
  N  N39  1  0.78881522  0.08772698  0.60723623  1
  N  N40  1  0.51908382  0.22268437  0.29983989  1
  N  N41  1  0.43962548  0.09441503  0.07945496  1
  N  N42  1  0.21628812  0.21143860  0.85686188  1
  N  N43  1  0.09967035  0.07103907  0.63359664  1
  N  N44  1  0.90830872  0.21924725  0.37869867  1
  N  N45  1  0.77699080  0.09594452  0.10251989  1
  N  N46  1  0.57772943  0.17151885  0.82683279  1
  N  N47  1  0.47517330  0.07387141  0.59902853  1
  N  N48  1  0.22353533  0.54070794  0.36429850  1
  N  N49  1  0.14128856  0.41294072  0.12595193  1
  N  N50  1  0.88561569  0.54416648  0.85041065  1
  N  N51  1  0.81230163  0.41046928  0.62172986  1
  N  N52  1  0.55224266  0.53875595  0.34150940  1
  N  N53  1  0.43634043  0.44162681  0.09414231  1
  N  N54  1  0.17984459  0.56147557  0.88202760  1
  N  N55  1  0.09612954  0.46282939  0.61819859  1
  N  N56  1  0.88925938  0.53786680  0.35785124  1
  N  N57  1  0.76714142  0.41042977  0.12287840  1
  N  N58  1  0.57560838  0.55561144  0.86839007  1
  N  N59  1  0.42972805  0.40991375  0.61550729  1
  N  N60  1  0.22061134  0.87285919  0.36706060  1
  N  N61  1  0.10410623  0.76860218  0.12224242  1
  N  N62  1  0.89028680  0.86984040  0.86357913  1
  N  N63  1  0.77568041  0.75835844  0.61433230  1
  N  N64  1  0.55502270  0.86761345  0.36414851  1
  N  N65  1  0.44216207  0.76691404  0.11575262  1
  N  N66  1  0.22395657  0.86759740  0.87408643  1
  N  N67  1  0.11954362  0.75507355  0.62087498  1
  N  N68  1  0.90707793  0.83683751  0.38190499  1
  N  N69  1  0.76058023  0.79820053  0.12915709  1
  N  N70  1  0.56243418  0.86494301  0.87148102  1
  N  N71  1  0.42969918  0.79014736  0.62471878  1
