# generated using pymatgen
data_Gd5Al31N36
_symmetry_space_group_name_H-M   'P 1'
_cell_length_a   9.73698575
_cell_length_b   9.75645297
_cell_length_c   10.19790675
_cell_angle_alpha   89.85737650
_cell_angle_beta   89.70665522
_cell_angle_gamma   60.02632830
_symmetry_Int_Tables_number   1
_chemical_formula_structural   Gd5Al31N36
_chemical_formula_sum   'Gd5 Al31 N36'
_cell_volume   839.20414856
_cell_formula_units_Z   1
loop_
 _symmetry_equiv_pos_site_id
 _symmetry_equiv_pos_as_xyz
  1  'x, y, z'
loop_
 _atom_site_type_symbol
 _atom_site_label
 _atom_site_symmetry_multiplicity
 _atom_site_fract_x
 _atom_site_fract_y
 _atom_site_fract_z
 _atom_site_occupancy
  Al  Al0  1  0.11299627  0.09696055  0.30408334  1
  Al  Al1  1  0.22400800  0.20418137  0.05512616  1
  Al  Al2  1  0.78627084  0.08739332  0.81713285  1
  Al  Al3  1  0.89831074  0.20067177  0.56583484  1
  Al  Al4  1  0.43638222  0.09460640  0.29443466  1
  Al  Al5  1  0.55745069  0.19872429  0.07131151  1
  Al  Al6  1  0.10958105  0.08796243  0.81513905  1
  Al  Al7  1  0.88733431  0.20307516  0.05390753  1
  Al  Al8  1  0.45507530  0.08053208  0.82062688  1
  Al  Al9  1  0.56348039  0.19371409  0.60083349  1
  Al  Al10  1  0.12100102  0.42209539  0.30872126  1
  Al  Al11  1  0.21137085  0.54907825  0.06445838  1
  Al  Al12  1  0.78808564  0.42709862  0.80706306  1
  Al  Al13  1  0.89070557  0.54226671  0.55597030  1
  Al  Al14  1  0.43452609  0.43506766  0.29102510  1
  Al  Al15  1  0.55693680  0.54501933  0.06360307  1
  Al  Al16  1  0.09964926  0.44094809  0.80414817  1
  Al  Al17  1  0.21823818  0.54154101  0.55379830  1
  Al  Al18  1  0.78050711  0.42507609  0.30799557  1
  Al  Al19  1  0.11261370  0.75746067  0.31251772  1
  Al  Al20  1  0.22017278  0.87303859  0.06165701  1
  Al  Al21  1  0.77539374  0.76138143  0.80337214  1
  Al  Al22  1  0.89772251  0.85859799  0.56695771  1
  Al  Al23  1  0.44090373  0.76653653  0.30443066  1
  Al  Al24  1  0.55311023  0.87710666  0.05949584  1
  Al  Al25  1  0.10592151  0.76467501  0.81063296  1
  Al  Al26  1  0.21716979  0.87293123  0.56192686  1
  Al  Al27  1  0.77557740  0.76381696  0.31614128  1
  Al  Al28  1  0.88627036  0.87845609  0.05418136  1
  Al  Al29  1  0.44443984  0.77136418  0.81438497  1
  Al  Al30  1  0.55965102  0.87190016  0.55961085  1
  Gd  Gd31  1  0.22765787  0.20046569  0.57039286  1
  Gd  Gd32  1  0.78005920  0.09155828  0.32002114  1
  Gd  Gd33  1  0.88757146  0.54492760  0.06794894  1
  Gd  Gd34  1  0.43656634  0.43172784  0.83834367  1
  Gd  Gd35  1  0.55391396  0.53812339  0.56070426  1
  N  N36  1  0.22366264  0.20115626  0.34994980  1
  N  N37  1  0.10834869  0.09583202  0.11229206  1
  N  N38  1  0.88905322  0.20730906  0.86653118  1
  N  N39  1  0.78490361  0.08973345  0.61466479  1
  N  N40  1  0.52344843  0.22173118  0.32458181  1
  N  N41  1  0.43878027  0.09138044  0.10547266  1
  N  N42  1  0.22093787  0.20787857  0.85813660  1
  N  N43  1  0.09949238  0.07449644  0.63207185  1
  N  N44  1  0.90722953  0.21983386  0.37992891  1
  N  N45  1  0.78219100  0.09324761  0.09739019  1
  N  N46  1  0.57326427  0.17503386  0.87215645  1
  N  N47  1  0.47884737  0.06976956  0.63482288  1
  N  N48  1  0.22404373  0.54061572  0.36367705  1
  N  N49  1  0.14093043  0.41230569  0.12462001  1
  N  N50  1  0.88632329  0.54286664  0.85038561  1
  N  N51  1  0.80791254  0.41292467  0.62122752  1
  N  N52  1  0.55133756  0.54114846  0.34101422  1
  N  N53  1  0.43775983  0.43765268  0.09480482  1
  N  N54  1  0.17880926  0.56169290  0.88192947  1
  N  N55  1  0.09685835  0.45812354  0.61761543  1
  N  N56  1  0.88831832  0.53913323  0.35792907  1
  N  N57  1  0.76734430  0.40934180  0.12366482  1
  N  N58  1  0.57483149  0.55604625  0.86982587  1
  N  N59  1  0.42825049  0.40768025  0.61510635  1
  N  N60  1  0.21982916  0.87412598  0.36756485  1
  N  N61  1  0.10505987  0.76750039  0.12251240  1
  N  N62  1  0.88892604  0.86971750  0.86263201  1
  N  N63  1  0.77566873  0.75839524  0.61486258  1
  N  N64  1  0.55137724  0.87531508  0.36869956  1
  N  N65  1  0.44234554  0.76703638  0.11641257  1
  N  N66  1  0.22283550  0.86788174  0.87381489  1
  N  N67  1  0.11953109  0.75482863  0.62097518  1
  N  N68  1  0.90686752  0.83797200  0.38379458  1
  N  N69  1  0.76027916  0.79916107  0.13045000  1
  N  N70  1  0.56131594  0.86674874  0.87326215  1
  N  N71  1  0.42869038  0.79202573  0.62580271  1
