# generated using pymatgen
data_Gd5Al31N36
_symmetry_space_group_name_H-M   'P 1'
_cell_length_a   9.77540638
_cell_length_b   9.74788760
_cell_length_c   10.35899758
_cell_angle_alpha   89.99999452
_cell_angle_beta   90.45342853
_cell_angle_gamma   59.98994541
_symmetry_Int_Tables_number   1
_chemical_formula_structural   Gd5Al31N36
_chemical_formula_sum   'Gd5 Al31 N36'
_cell_volume   854.73512116
_cell_formula_units_Z   1
loop_
 _symmetry_equiv_pos_site_id
 _symmetry_equiv_pos_as_xyz
  1  'x, y, z'
loop_
 _atom_site_type_symbol
 _atom_site_label
 _atom_site_symmetry_multiplicity
 _atom_site_fract_x
 _atom_site_fract_y
 _atom_site_fract_z
 _atom_site_occupancy
  Al  Al0  1  0.11570559  0.09580621  0.37986076  1
  Al  Al1  1  0.22525932  0.20677803  0.08012954  1
  Al  Al2  1  0.78538175  0.08320380  0.90375450  1
  Al  Al3  1  0.88769532  0.20132034  0.66238855  1
  Al  Al4  1  0.45229065  0.08776923  0.39824839  1
  Al  Al5  1  0.55186120  0.19944507  0.14236477  1
  Al  Al6  1  0.10397301  0.09639317  0.89259171  1
  Al  Al7  1  0.88945723  0.20431477  0.13819227  1
  Al  Al8  1  0.45664388  0.08015156  0.90200139  1
  Al  Al9  1  0.56543433  0.18822638  0.66288783  1
  Al  Al10  1  0.12725329  0.41552562  0.33585275  1
  Al  Al11  1  0.21253977  0.54839721  0.08925326  1
  Al  Al12  1  0.76810796  0.43278333  0.89396946  1
  Al  Al13  1  0.87967300  0.54549482  0.65573583  1
  Al  Al14  1  0.42963959  0.43018588  0.32502432  1
  Al  Al15  1  0.55671665  0.53710093  0.15037754  1
  Al  Al16  1  0.10123869  0.44408972  0.83935540  1
  Al  Al17  1  0.21374231  0.54033627  0.58593828  1
  Al  Al18  1  0.80599087  0.41950118  0.40003797  1
  Al  Al19  1  0.11814625  0.75357806  0.33065059  1
  Al  Al20  1  0.22739560  0.86548922  0.07879432  1
  Al  Al21  1  0.77068285  0.77345873  0.89655470  1
  Al  Al22  1  0.88603918  0.87258581  0.65594582  1
  Al  Al23  1  0.43914005  0.76801638  0.33208397  1
  Al  Al24  1  0.55535636  0.88066374  0.15055575  1
  Al  Al25  1  0.11227292  0.76148472  0.83284907  1
  Al  Al26  1  0.21105915  0.87265310  0.57921454  1
  Al  Al27  1  0.78466112  0.75229127  0.40457035  1
  Al  Al28  1  0.88426915  0.87631601  0.14944174  1
  Al  Al29  1  0.43620931  0.77499452  0.81857647  1
  Al  Al30  1  0.56560151  0.87620326  0.64559189  1
  Gd  Gd31  1  0.22963981  0.19950472  0.62429607  1
  Gd  Gd32  1  0.77708224  0.10035066  0.39840428  1
  Gd  Gd33  1  0.88539258  0.54035108  0.12772616  1
  Gd  Gd34  1  0.44500078  0.42867150  0.87567457  1
  Gd  Gd35  1  0.54482445  0.54031887  0.59906829  1
  N  N36  1  0.22840192  0.20065548  0.38896020  1
  N  N37  1  0.10832528  0.09712703  0.08587634  1
  N  N38  1  0.88288223  0.20825781  0.84819867  1
  N  N39  1  0.77893555  0.09483933  0.61474279  1
  N  N40  1  0.52925840  0.21126166  0.32316913  1
  N  N41  1  0.44676389  0.08904209  0.08552613  1
  N  N42  1  0.22057604  0.21301792  0.87935275  1
  N  N43  1  0.08913966  0.08240614  0.60724041  1
  N  N44  1  0.90845955  0.21924852  0.32021621  1
  N  N45  1  0.77837782  0.09364350  0.09596965  1
  N  N46  1  0.57650933  0.16726168  0.84839030  1
  N  N47  1  0.49098778  0.07359155  0.57702335  1
  N  N48  1  0.22325780  0.53919605  0.39472832  1
  N  N49  1  0.14833006  0.40790753  0.15060410  1
  N  N50  1  0.87648549  0.54602557  0.85697976  1
  N  N51  1  0.81200423  0.40779561  0.58516582  1
  N  N52  1  0.56343174  0.53068770  0.34979400  1
  N  N53  1  0.43599374  0.43606585  0.12758058  1
  N  N54  1  0.18300135  0.56273964  0.91018627  1
  N  N55  1  0.09428322  0.46103036  0.65689987  1
  N  N56  1  0.89718344  0.53845687  0.35092298  1
  N  N57  1  0.75400662  0.41437743  0.07653835  1
  N  N58  1  0.56769293  0.55718034  0.82570216  1
  N  N59  1  0.42204060  0.40626054  0.64600582  1
  N  N60  1  0.22209911  0.86764944  0.38803283  1
  N  N61  1  0.11584568  0.76340469  0.14394849  1
  N  N62  1  0.88892692  0.87167162  0.84199965  1
  N  N63  1  0.78043077  0.75770775  0.59281350  1
  N  N64  1  0.56448043  0.86983588  0.33889369  1
  N  N65  1  0.44121587  0.76401734  0.14286679  1
  N  N66  1  0.22659580  0.86493827  0.89101268  1
  N  N67  1  0.11803093  0.75564849  0.64264488  1
  N  N68  1  0.89561891  0.84850437  0.33586559  1
  N  N69  1  0.75947482  0.79672588  0.07920109  1
  N  N70  1  0.55745770  0.87629409  0.83412191  1
  N  N71  1  0.41845047  0.80497241  0.63182379  1
