# generated using pymatgen
data_Gd5Al31N36
_symmetry_space_group_name_H-M   'P 1'
_cell_length_a   9.73798157
_cell_length_b   9.72403576
_cell_length_c   10.41907803
_cell_angle_alpha   89.97412366
_cell_angle_beta   90.40925343
_cell_angle_gamma   59.84033557
_symmetry_Int_Tables_number   1
_chemical_formula_structural   Gd5Al31N36
_chemical_formula_sum   'Gd5 Al31 N36'
_cell_volume   853.01882693
_cell_formula_units_Z   1
loop_
 _symmetry_equiv_pos_site_id
 _symmetry_equiv_pos_as_xyz
  1  'x, y, z'
loop_
 _atom_site_type_symbol
 _atom_site_label
 _atom_site_symmetry_multiplicity
 _atom_site_fract_x
 _atom_site_fract_y
 _atom_site_fract_z
 _atom_site_occupancy
  Al  Al0  1  0.10756826  0.09396908  0.39028944  1
  Al  Al1  1  0.23531231  0.19112584  0.15975086  1
  Al  Al2  1  0.78632888  0.08375303  0.90376874  1
  Al  Al3  1  0.88660832  0.20218398  0.66062624  1
  Al  Al4  1  0.45591055  0.08474147  0.39831156  1
  Al  Al5  1  0.55560714  0.19731400  0.14418095  1
  Al  Al6  1  0.10892850  0.10451989  0.91032944  1
  Al  Al7  1  0.88869591  0.20358367  0.14169835  1
  Al  Al8  1  0.44471199  0.08801196  0.90927976  1
  Al  Al9  1  0.56078272  0.19190626  0.66820327  1
  Al  Al10  1  0.12289652  0.42382569  0.34213709  1
  Al  Al11  1  0.21421956  0.54518245  0.09014773  1
  Al  Al12  1  0.77109344  0.43283644  0.89198389  1
  Al  Al13  1  0.87907851  0.54618204  0.65704239  1
  Al  Al14  1  0.43239331  0.42851090  0.32659152  1
  Al  Al15  1  0.55941571  0.53464344  0.15098629  1
  Al  Al16  1  0.10636917  0.43774126  0.83770977  1
  Al  Al17  1  0.21537131  0.53976232  0.58967463  1
  Al  Al18  1  0.80085703  0.42141349  0.40179709  1
  Al  Al19  1  0.12090412  0.74991662  0.33090896  1
  Al  Al20  1  0.22853345  0.86413211  0.08324749  1
  Al  Al21  1  0.77062249  0.77361083  0.89954680  1
  Al  Al22  1  0.88445775  0.87242649  0.66147146  1
  Al  Al23  1  0.44106554  0.76552420  0.33032916  1
  Al  Al24  1  0.55987011  0.87725664  0.15210813  1
  Al  Al25  1  0.11263768  0.76257593  0.83766283  1
  Al  Al26  1  0.20650347  0.87275940  0.57521627  1
  Al  Al27  1  0.78459933  0.75247273  0.40709925  1
  Al  Al28  1  0.88622239  0.87474361  0.15149207  1
  Al  Al29  1  0.43260236  0.78191309  0.82398434  1
  Al  Al30  1  0.56198582  0.88241580  0.65135317  1
  Gd  Gd31  1  0.22620971  0.18987302  0.63239470  1
  Gd  Gd32  1  0.78068694  0.09824936  0.40595432  1
  Gd  Gd33  1  0.88929287  0.53499996  0.12871669  1
  Gd  Gd34  1  0.44844454  0.43149524  0.87962167  1
  Gd  Gd35  1  0.53900727  0.55119245  0.60287490  1
  N  N36  1  0.23281234  0.18911122  0.35660581  1
  N  N37  1  0.11217493  0.09845436  0.09595643  1
  N  N38  1  0.89162538  0.20553503  0.84620623  1
  N  N39  1  0.77573617  0.09471441  0.62207023  1
  N  N40  1  0.53408951  0.20858202  0.32516509  1
  N  N41  1  0.44403054  0.08942644  0.09355338  1
  N  N42  1  0.22278273  0.20654195  0.85748569  1
  N  N43  1  0.07283384  0.08917419  0.56961377  1
  N  N44  1  0.90323113  0.22218888  0.32013085  1
  N  N45  1  0.78123909  0.09128251  0.09516204  1
  N  N46  1  0.57311753  0.16958681  0.85392324  1
  N  N47  1  0.48321077  0.08068007  0.57682433  1
  N  N48  1  0.22646195  0.53714414  0.40034794  1
  N  N49  1  0.14938609  0.41130851  0.15966181  1
  N  N50  1  0.87961679  0.54568813  0.85591060  1
  N  N51  1  0.80670228  0.41151866  0.58706234  1
  N  N52  1  0.56488532  0.52999954  0.35017190  1
  N  N53  1  0.43812120  0.43426537  0.13002113  1
  N  N54  1  0.18469021  0.55975482  0.91132638  1
  N  N55  1  0.09629705  0.45585537  0.65254865  1
  N  N56  1  0.89547671  0.53839500  0.35430330  1
  N  N57  1  0.75501138  0.41169400  0.07326605  1
  N  N58  1  0.56871625  0.56259894  0.82506925  1
  N  N59  1  0.42398097  0.41117593  0.65127989  1
  N  N60  1  0.22719339  0.85938632  0.38716442  1
  N  N61  1  0.11809403  0.76032854  0.14567356  1
  N  N62  1  0.88890348  0.87105506  0.84530808  1
  N  N63  1  0.77722027  0.76045840  0.59537162  1
  N  N64  1  0.56667344  0.86720267  0.34037919  1
  N  N65  1  0.44457268  0.76199753  0.14337050  1
  N  N66  1  0.22368284  0.86923124  0.89764040  1
  N  N67  1  0.11702081  0.75728950  0.64734135  1
  N  N68  1  0.89709158  0.84738784  0.33745457  1
  N  N69  1  0.76356519  0.79242299  0.08160465  1
  N  N70  1  0.55630824  0.88118158  0.83919015  1
  N  N71  1  0.40567348  0.82153628  0.63992355  1
