# generated using pymatgen
data_Gd5Al31N36
_symmetry_space_group_name_H-M   'P 1'
_cell_length_a   9.76351716
_cell_length_b   9.76228996
_cell_length_c   10.35527092
_cell_angle_alpha   90.42471389
_cell_angle_beta   90.73889821
_cell_angle_gamma   59.99100782
_symmetry_Int_Tables_number   1
_chemical_formula_structural   Gd5Al31N36
_chemical_formula_sum   'Gd5 Al31 N36'
_cell_volume   854.62255742
_cell_formula_units_Z   1
loop_
 _symmetry_equiv_pos_site_id
 _symmetry_equiv_pos_as_xyz
  1  'x, y, z'
loop_
 _atom_site_type_symbol
 _atom_site_label
 _atom_site_symmetry_multiplicity
 _atom_site_fract_x
 _atom_site_fract_y
 _atom_site_fract_z
 _atom_site_occupancy
  Al  Al0  1  0.12566671  0.09156586  0.31624873  1
  Al  Al1  1  0.22389055  0.20356815  0.07701061  1
  Al  Al2  1  0.78046318  0.09106581  0.89679716  1
  Al  Al3  1  0.88323421  0.20280566  0.66508107  1
  Al  Al4  1  0.45283127  0.08697422  0.39559751  1
  Al  Al5  1  0.54976534  0.19979619  0.14132999  1
  Al  Al6  1  0.11036793  0.08629039  0.84274048  1
  Al  Al7  1  0.88561983  0.20768245  0.13650665  1
  Al  Al8  1  0.45278125  0.08169849  0.90011324  1
  Al  Al9  1  0.56199337  0.18955191  0.66023627  1
  Al  Al10  1  0.12880335  0.41620099  0.33215260  1
  Al  Al11  1  0.21319238  0.54681098  0.08880357  1
  Al  Al12  1  0.76876615  0.43374589  0.89498393  1
  Al  Al13  1  0.88062947  0.54423016  0.65902004  1
  Al  Al14  1  0.43113060  0.42971794  0.32536568  1
  Al  Al15  1  0.55726219  0.53712708  0.15209498  1
  Al  Al16  1  0.10371960  0.43981924  0.84007976  1
  Al  Al17  1  0.21513136  0.54072829  0.58460226  1
  Al  Al18  1  0.80965050  0.41731283  0.39950633  1
  Al  Al19  1  0.11308733  0.75707076  0.33386524  1
  Al  Al20  1  0.22867028  0.86674995  0.07952710  1
  Al  Al21  1  0.76823168  0.77254427  0.89253068  1
  Al  Al22  1  0.89066654  0.86822003  0.63337307  1
  Al  Al23  1  0.43946608  0.76817610  0.33438876  1
  Al  Al24  1  0.55519137  0.88118042  0.15084664  1
  Al  Al25  1  0.11108837  0.76193867  0.83186838  1
  Al  Al26  1  0.20852252  0.87877448  0.57845293  1
  Al  Al27  1  0.78576390  0.75043613  0.40958780  1
  Al  Al28  1  0.89133280  0.87732906  0.10109189  1
  Al  Al29  1  0.43581503  0.77436152  0.81847104  1
  Al  Al30  1  0.56029540  0.87898779  0.64624785  1
  Gd  Gd31  1  0.21690753  0.20608764  0.60426511  1
  Gd  Gd32  1  0.77779845  0.10134192  0.39477776  1
  Gd  Gd33  1  0.88408280  0.54326598  0.12930973  1
  Gd  Gd34  1  0.44545428  0.43042458  0.87433210  1
  Gd  Gd35  1  0.54876341  0.53929785  0.59835712  1
  N  N36  1  0.22649567  0.19868743  0.38091303  1
  N  N37  1  0.12033116  0.08832159  0.12556583  1
  N  N38  1  0.87869589  0.21243927  0.85192250  1
  N  N39  1  0.77848305  0.09473814  0.61461129  1
  N  N40  1  0.52756836  0.21131030  0.32176663  1
  N  N41  1  0.44683601  0.08825959  0.08404916  1
  N  N42  1  0.21593178  0.21014752  0.88269785  1
  N  N43  1  0.09806206  0.07254943  0.65930345  1
  N  N44  1  0.90502739  0.22173342  0.31895738  1
  N  N45  1  0.77530028  0.09832168  0.09170737  1
  N  N46  1  0.57146736  0.16957197  0.84494628  1
  N  N47  1  0.48342874  0.07633168  0.57666931  1
  N  N48  1  0.22510446  0.53857087  0.39303195  1
  N  N49  1  0.14752712  0.40714426  0.14712137  1
  N  N50  1  0.87773429  0.54524767  0.85644519  1
  N  N51  1  0.82009454  0.40152929  0.58439726  1
  N  N52  1  0.56411086  0.53120261  0.35076660  1
  N  N53  1  0.43635988  0.43622505  0.12744863  1
  N  N54  1  0.18394851  0.56215953  0.90937415  1
  N  N55  1  0.09616936  0.46128068  0.65748039  1
  N  N56  1  0.89874771  0.53818925  0.35133150  1
  N  N57  1  0.75410330  0.41676412  0.07685025  1
  N  N58  1  0.56909326  0.55793680  0.82493771  1
  N  N59  1  0.42409501  0.40813567  0.64314713  1
  N  N60  1  0.21840528  0.87564195  0.38768223  1
  N  N61  1  0.11121254  0.76454371  0.14471401  1
  N  N62  1  0.89109350  0.87298508  0.85692545  1
  N  N63  1  0.77542535  0.75494558  0.59837229  1
  N  N64  1  0.56641100  0.86906769  0.33911098  1
  N  N65  1  0.44227525  0.76257044  0.14433542  1
  N  N66  1  0.22654959  0.86530411  0.89496020  1
  N  N67  1  0.11941587  0.75577510  0.64299027  1
  N  N68  1  0.90456473  0.84586666  0.37906223  1
  N  N69  1  0.75754537  0.79663819  0.07689505  1
  N  N70  1  0.55468671  0.87766588  0.83350768  1
  N  N71  1  0.41783921  0.80270773  0.63018744  1
