# generated using pymatgen
data_Gd5Al31N36
_symmetry_space_group_name_H-M   'P 1'
_cell_length_a   9.74445367
_cell_length_b   9.74530005
_cell_length_c   10.41523174
_cell_angle_alpha   90.25092646
_cell_angle_beta   90.47421242
_cell_angle_gamma   60.16824692
_symmetry_Int_Tables_number   1
_chemical_formula_structural   Gd5Al31N36
_chemical_formula_sum   'Gd5 Al31 N36'
_cell_volume   857.96817660
_cell_formula_units_Z   1
loop_
 _symmetry_equiv_pos_site_id
 _symmetry_equiv_pos_as_xyz
  1  'x, y, z'
loop_
 _atom_site_type_symbol
 _atom_site_label
 _atom_site_symmetry_multiplicity
 _atom_site_fract_x
 _atom_site_fract_y
 _atom_site_fract_z
 _atom_site_occupancy
  Al  Al0  1  0.12731052  0.09093413  0.31866127  1
  Al  Al1  1  0.22334239  0.20481270  0.07710396  1
  Al  Al2  1  0.77843613  0.09655003  0.89975917  1
  Al  Al3  1  0.88567711  0.19922147  0.66155490  1
  Al  Al4  1  0.45279123  0.08689440  0.39511063  1
  Al  Al5  1  0.54772678  0.20304284  0.14094457  1
  Al  Al6  1  0.10955441  0.08765517  0.84119241  1
  Al  Al7  1  0.88619687  0.20831828  0.14013915  1
  Al  Al8  1  0.45351884  0.08107911  0.90024802  1
  Al  Al9  1  0.56863598  0.18334220  0.65657242  1
  Al  Al10  1  0.13202337  0.41528648  0.33246157  1
  Al  Al11  1  0.21079973  0.54940716  0.08890436  1
  Al  Al12  1  0.77046164  0.43182382  0.89514542  1
  Al  Al13  1  0.88209276  0.54438533  0.65797064  1
  Al  Al14  1  0.43573909  0.43509662  0.32316132  1
  Al  Al15  1  0.55029005  0.54430381  0.11155481  1
  Al  Al16  1  0.09938540  0.44199797  0.83996804  1
  Al  Al17  1  0.21753749  0.53980078  0.58282115  1
  Al  Al18  1  0.80577048  0.41949182  0.40086084  1
  Al  Al19  1  0.11374090  0.75692792  0.33506549  1
  Al  Al20  1  0.22373543  0.87015652  0.08061318  1
  Al  Al21  1  0.76710097  0.77227652  0.89566486  1
  Al  Al22  1  0.90019254  0.86043437  0.59014234  1
  Al  Al23  1  0.44419773  0.75971411  0.33091919  1
  Al  Al24  1  0.55460187  0.88264120  0.15030687  1
  Al  Al25  1  0.10391134  0.76721781  0.83176432  1
  Al  Al26  1  0.21277531  0.87674995  0.58012831  1
  Al  Al27  1  0.78235278  0.74776401  0.40919536  1
  Al  Al28  1  0.89379244  0.87645171  0.07760740  1
  Al  Al29  1  0.43284569  0.77538874  0.82457045  1
  Al  Al30  1  0.56156551  0.87718356  0.64910729  1
  Gd  Gd31  1  0.21899192  0.20695815  0.60421598  1
  Gd  Gd32  1  0.77526092  0.10230805  0.38549099  1
  Gd  Gd33  1  0.88471845  0.54334886  0.13384266  1
  Gd  Gd34  1  0.43346374  0.42702606  0.86449556  1
  Gd  Gd35  1  0.55143505  0.53801870  0.59987099  1
  N  N36  1  0.22716137  0.19887357  0.38261851  1
  N  N37  1  0.12015780  0.08952751  0.12871651  1
  N  N38  1  0.87782117  0.21316845  0.84778974  1
  N  N39  1  0.78293722  0.09080643  0.60622578  1
  N  N40  1  0.52358298  0.21574589  0.32014810  1
  N  N41  1  0.44649204  0.08979802  0.08291508  1
  N  N42  1  0.21504513  0.21206358  0.88348680  1
  N  N43  1  0.10145080  0.07160360  0.65893311  1
  N  N44  1  0.90594508  0.22248797  0.32156991  1
  N  N45  1  0.77322913  0.10125954  0.09631525  1
  N  N46  1  0.57455320  0.16576076  0.84096699  1
  N  N47  1  0.48547904  0.07281102  0.57523665  1
  N  N48  1  0.22771529  0.53867264  0.39225547  1
  N  N49  1  0.14863971  0.40702673  0.14862013  1
  N  N50  1  0.87419200  0.54737973  0.85267266  1
  N  N51  1  0.82103334  0.40128633  0.58654819  1
  N  N52  1  0.56502799  0.53186371  0.36446699  1
  N  N53  1  0.43527887  0.43870666  0.12349676  1
  N  N54  1  0.17590806  0.56639683  0.91102002  1
  N  N55  1  0.09787032  0.46172059  0.65795049  1
  N  N56  1  0.90046174  0.53721213  0.35280897  1
  N  N57  1  0.76096606  0.41397386  0.07600854  1
  N  N58  1  0.55904033  0.55994545  0.85077840  1
  N  N59  1  0.42715389  0.40439574  0.64035808  1
  N  N60  1  0.22212314  0.87346950  0.38907398  1
  N  N61  1  0.10645047  0.76698528  0.14840195  1
  N  N62  1  0.89467047  0.87540935  0.88795558  1
  N  N63  1  0.77388798  0.75302216  0.59683110  1
  N  N64  1  0.56632810  0.86882461  0.33683288  1
  N  N65  1  0.44026961  0.76369564  0.14182014  1
  N  N66  1  0.22186962  0.86932719  0.89681888  1
  N  N67  1  0.11899495  0.75557228  0.64454346  1
  N  N68  1  0.91114019  0.84094177  0.40285165  1
  N  N69  1  0.75615591  0.79461617  0.07981371  1
  N  N70  1  0.55496245  0.87714640  0.83514536  1
  N  N71  1  0.42017933  0.79791959  0.63818204  1
