# generated using pymatgen
data_Gd5Al31N36
_symmetry_space_group_name_H-M   'P 1'
_cell_length_a   9.75388598
_cell_length_b   9.75154452
_cell_length_c   10.33185317
_cell_angle_alpha   90.16948781
_cell_angle_beta   90.40472232
_cell_angle_gamma   59.93512580
_symmetry_Int_Tables_number   1
_chemical_formula_structural   Gd5Al31N36
_chemical_formula_sum   'Gd5 Al31 N36'
_cell_volume   850.48122480
_cell_formula_units_Z   1
loop_
 _symmetry_equiv_pos_site_id
 _symmetry_equiv_pos_as_xyz
  1  'x, y, z'
loop_
 _atom_site_type_symbol
 _atom_site_label
 _atom_site_symmetry_multiplicity
 _atom_site_fract_x
 _atom_site_fract_y
 _atom_site_fract_z
 _atom_site_occupancy
  Al  Al0  1  0.10601388  0.09586337  0.38784653  1
  Al  Al1  1  0.23378603  0.19293516  0.15706114  1
  Al  Al2  1  0.78700955  0.08268242  0.90191697  1
  Al  Al3  1  0.89157015  0.19897247  0.65838710  1
  Al  Al4  1  0.45553077  0.08599456  0.39530066  1
  Al  Al5  1  0.55383559  0.19837741  0.14176756  1
  Al  Al6  1  0.10936467  0.10456951  0.90687648  1
  Al  Al7  1  0.88745419  0.20595587  0.14013144  1
  Al  Al8  1  0.44268774  0.08752649  0.90537369  1
  Al  Al9  1  0.56255904  0.18771024  0.66559994  1
  Al  Al10  1  0.12131506  0.42623356  0.33957564  1
  Al  Al11  1  0.21323127  0.54630874  0.08802395  1
  Al  Al12  1  0.77248861  0.43039677  0.89184536  1
  Al  Al13  1  0.87934891  0.54731482  0.65342719  1
  Al  Al14  1  0.43124838  0.43136884  0.32458748  1
  Al  Al15  1  0.55617192  0.54188420  0.15161834  1
  Al  Al16  1  0.10493255  0.43931720  0.83548553  1
  Al  Al17  1  0.21583021  0.54113368  0.58704251  1
  Al  Al18  1  0.80009701  0.42296913  0.39933247  1
  Al  Al19  1  0.11793626  0.75184765  0.32585266  1
  Al  Al20  1  0.22512047  0.86742566  0.08572305  1
  Al  Al21  1  0.76910525  0.77516415  0.89422205  1
  Al  Al22  1  0.88603266  0.87230275  0.65716591  1
  Al  Al23  1  0.44369416  0.77098084  0.37771497  1
  Al  Al24  1  0.55573100  0.87655089  0.14958951  1
  Al  Al25  1  0.11401381  0.76264728  0.83464983  1
  Al  Al26  1  0.20985308  0.86993821  0.56771449  1
  Al  Al27  1  0.78427261  0.75346122  0.40372427  1
  Al  Al28  1  0.88346330  0.87599870  0.14676911  1
  Al  Al29  1  0.44644271  0.76859514  0.87538576  1
  Al  Al30  1  0.56009312  0.87502002  0.64251529  1
  Gd  Gd31  1  0.22608884  0.19764073  0.62607388  1
  Gd  Gd32  1  0.77915680  0.09836172  0.40081041  1
  Gd  Gd33  1  0.88739407  0.53900705  0.12466961  1
  Gd  Gd34  1  0.44781648  0.42595255  0.88008460  1
  Gd  Gd35  1  0.54694863  0.53815681  0.60777166  1
  N  N36  1  0.23132651  0.19204782  0.35578448  1
  N  N37  1  0.11067801  0.10019101  0.09417936  1
  N  N38  1  0.89127289  0.20505520  0.84526418  1
  N  N39  1  0.77758280  0.09479695  0.61870186  1
  N  N40  1  0.53160408  0.21180619  0.32388106  1
  N  N41  1  0.44236848  0.09013190  0.09106625  1
  N  N42  1  0.22155061  0.20848141  0.85387154  1
  N  N43  1  0.08096171  0.08582015  0.57192943  1
  N  N44  1  0.90177482  0.22359295  0.32018856  1
  N  N45  1  0.78003770  0.09297964  0.09418149  1
  N  N46  1  0.57472949  0.16481017  0.85214641  1
  N  N47  1  0.48510533  0.07665559  0.57536054  1
  N  N48  1  0.22484790  0.54009581  0.39682300  1
  N  N49  1  0.14765558  0.41246187  0.15578832  1
  N  N50  1  0.87791757  0.54629715  0.85387731  1
  N  N51  1  0.81242982  0.40789821  0.58580215  1
  N  N52  1  0.56232665  0.53481582  0.34951296  1
  N  N53  1  0.43718372  0.43646205  0.12832945  1
  N  N54  1  0.18516023  0.55999985  0.90768057  1
  N  N55  1  0.09453775  0.46030763  0.64947725  1
  N  N56  1  0.89444791  0.53968831  0.35187934  1
  N  N57  1  0.75436023  0.41343124  0.07426822  1
  N  N58  1  0.56729899  0.56034729  0.82774637  1
  N  N59  1  0.42176109  0.40571131  0.65022671  1
  N  N60  1  0.21693233  0.86702974  0.37511828  1
  N  N61  1  0.11454272  0.76140264  0.13998633  1
  N  N62  1  0.88984732  0.87055979  0.84229355  1
  N  N63  1  0.77870063  0.76071907  0.59304017  1
  N  N64  1  0.56603857  0.86890360  0.33558856  1
  N  N65  1  0.44925825  0.76106596  0.11199339  1
  N  N66  1  0.22215497  0.87150014  0.89351912  1
  N  N67  1  0.11967718  0.75774336  0.64369125  1
  N  N68  1  0.89529719  0.84762561  0.33367301  1
  N  N69  1  0.75937245  0.79599062  0.07672931  1
  N  N70  1  0.55028399  0.87898943  0.83191701  1
  N  N71  1  0.42768312  0.80120419  0.57710467  1
