# generated using pymatgen
data_Gd5Al31N36
_symmetry_space_group_name_H-M   'P 1'
_cell_length_a   9.71714236
_cell_length_b   9.73825881
_cell_length_c   10.35682679
_cell_angle_alpha   90.68295461
_cell_angle_beta   90.91101968
_cell_angle_gamma   59.92369769
_symmetry_Int_Tables_number   1
_chemical_formula_structural   Gd5Al31N36
_chemical_formula_sum   'Gd5 Al31 N36'
_cell_volume   847.97561074
_cell_formula_units_Z   1
loop_
 _symmetry_equiv_pos_site_id
 _symmetry_equiv_pos_as_xyz
  1  'x, y, z'
loop_
 _atom_site_type_symbol
 _atom_site_label
 _atom_site_symmetry_multiplicity
 _atom_site_fract_x
 _atom_site_fract_y
 _atom_site_fract_z
 _atom_site_occupancy
  Al  Al0  1  0.11178929  0.09389269  0.39102186  1
  Al  Al1  1  0.22706909  0.20098963  0.15355878  1
  Al  Al2  1  0.78734638  0.08147233  0.90111584  1
  Al  Al3  1  0.89432069  0.19587348  0.65737236  1
  Al  Al4  1  0.45021524  0.09181844  0.39337716  1
  Al  Al5  1  0.55354398  0.19907376  0.14340723  1
  Al  Al6  1  0.11411125  0.09321284  0.90465056  1
  Al  Al7  1  0.88820122  0.20616614  0.13927450  1
  Al  Al8  1  0.44728721  0.08270593  0.90703807  1
  Al  Al9  1  0.56372951  0.18556765  0.66331249  1
  Al  Al10  1  0.10697980  0.43193972  0.40118246  1
  Al  Al11  1  0.21263440  0.55131995  0.08361779  1
  Al  Al12  1  0.77845249  0.42854525  0.89153590  1
  Al  Al13  1  0.89236999  0.53924648  0.65109917  1
  Al  Al14  1  0.43145438  0.43488909  0.32239178  1
  Al  Al15  1  0.55414226  0.54500557  0.14752978  1
  Al  Al16  1  0.10878817  0.42295239  0.90625011  1
  Al  Al17  1  0.22093054  0.54381764  0.58241086  1
  Al  Al18  1  0.79463252  0.42386545  0.40037551  1
  Al  Al19  1  0.11633791  0.75391211  0.32571080  1
  Al  Al20  1  0.22414664  0.87648716  0.14367570  1
  Al  Al21  1  0.77323229  0.76872682  0.89250584  1
  Al  Al22  1  0.88398432  0.87104875  0.65680567  1
  Al  Al23  1  0.43857421  0.77711158  0.39123316  1
  Al  Al24  1  0.55295951  0.87782156  0.14686957  1
  Al  Al25  1  0.11269670  0.75903477  0.83229525  1
  Al  Al26  1  0.21670608  0.87760500  0.64373992  1
  Al  Al27  1  0.77788784  0.75881823  0.40703166  1
  Al  Al28  1  0.88039299  0.87680939  0.14456340  1
  Al  Al29  1  0.44771298  0.76669448  0.89480978  1
  Al  Al30  1  0.55827636  0.87325753  0.64642722  1
  Gd  Gd31  1  0.22831745  0.20064253  0.63899275  1
  Gd  Gd32  1  0.78147459  0.09864537  0.40018237  1
  Gd  Gd33  1  0.88101161  0.54383325  0.14355195  1
  Gd  Gd34  1  0.45204642  0.42261113  0.87971828  1
  Gd  Gd35  1  0.55040729  0.53805544  0.61541582  1
  N  N36  1  0.22469398  0.20509594  0.34843776  1
  N  N37  1  0.11198482  0.09435764  0.08978557  1
  N  N38  1  0.89277720  0.20244935  0.84446856  1
  N  N39  1  0.77900975  0.09207880  0.61699956  1
  N  N40  1  0.53228491  0.21439898  0.32512196  1
  N  N41  1  0.44138720  0.09175524  0.09267087  1
  N  N42  1  0.22416650  0.20386208  0.85810364  1
  N  N43  1  0.08968538  0.07840473  0.57319347  1
  N  N44  1  0.90423430  0.22392568  0.32010039  1
  N  N45  1  0.77799761  0.09439684  0.09355742  1
  N  N46  1  0.57520120  0.16173637  0.84877804  1
  N  N47  1  0.48280878  0.07443673  0.57409477  1
  N  N48  1  0.22638171  0.54477370  0.38954919  1
  N  N49  1  0.13401864  0.40990714  0.09451400  1
  N  N50  1  0.89131560  0.53772018  0.84561380  1
  N  N51  1  0.81385140  0.40357268  0.58595602  1
  N  N52  1  0.55960937  0.54234779  0.34573417  1
  N  N53  1  0.43561545  0.43689033  0.12820645  1
  N  N54  1  0.19187715  0.56015083  0.90148377  1
  N  N55  1  0.09494778  0.45218411  0.58437062  1
  N  N56  1  0.88751326  0.54374028  0.35806054  1
  N  N57  1  0.75577708  0.41503172  0.07373516  1
  N  N58  1  0.57027506  0.55998745  0.83173247  1
  N  N59  1  0.42376436  0.40479953  0.64898248  1
  N  N60  1  0.22399450  0.87748117  0.33031851  1
  N  N61  1  0.10915019  0.76294863  0.13698721  1
  N  N62  1  0.88954755  0.86940112  0.84254936  1
  N  N63  1  0.77692066  0.75839006  0.59578071  1
  N  N64  1  0.56041787  0.87077684  0.33325958  1
  N  N65  1  0.44525420  0.76294819  0.08718132  1
  N  N66  1  0.22603980  0.87759844  0.83869949  1
  N  N67  1  0.11436312  0.75490381  0.64175447  1
  N  N68  1  0.89273818  0.84783225  0.33263282  1
  N  N69  1  0.75777627  0.79386399  0.07446867  1
  N  N70  1  0.55201564  0.87408617  0.83403096  1
  N  N71  1  0.42283970  0.80142207  0.57486515  1
