# generated using pymatgen
data_Gd5Al31N36
_symmetry_space_group_name_H-M   'P 1'
_cell_length_a   9.70791838
_cell_length_b   9.71403566
_cell_length_c   10.23265089
_cell_angle_alpha   90.08383843
_cell_angle_beta   90.10533147
_cell_angle_gamma   60.00875397
_symmetry_Int_Tables_number   1
_chemical_formula_structural   Gd5Al31N36
_chemical_formula_sum   'Gd5 Al31 N36'
_cell_volume   835.76096298
_cell_formula_units_Z   1
loop_
 _symmetry_equiv_pos_site_id
 _symmetry_equiv_pos_as_xyz
  1  'x, y, z'
loop_
 _atom_site_type_symbol
 _atom_site_label
 _atom_site_symmetry_multiplicity
 _atom_site_fract_x
 _atom_site_fract_y
 _atom_site_fract_z
 _atom_site_occupancy
  Al  Al0  1  0.11101212  0.09262973  0.38817576  1
  Al  Al1  1  0.22932461  0.20206693  0.14782720  1
  Al  Al2  1  0.78160971  0.08745286  0.89733571  1
  Al  Al3  1  0.89286055  0.19773766  0.65601201  1
  Al  Al4  1  0.45027396  0.08900587  0.39144129  1
  Al  Al5  1  0.55247665  0.20575597  0.14880360  1
  Al  Al6  1  0.11300808  0.09301311  0.90278017  1
  Al  Al7  1  0.88899476  0.20587721  0.13858614  1
  Al  Al8  1  0.44626930  0.08699581  0.90375431  1
  Al  Al9  1  0.56184429  0.19228905  0.65203853  1
  Al  Al10  1  0.10754886  0.43484086  0.39972085  1
  Al  Al11  1  0.22521816  0.54056094  0.15445503  1
  Al  Al12  1  0.77667309  0.42827566  0.89520369  1
  Al  Al13  1  0.89249435  0.54039524  0.65062563  1
  Al  Al14  1  0.43425773  0.42353255  0.39291071  1
  Al  Al15  1  0.55395532  0.53920668  0.15808393  1
  Al  Al16  1  0.11271617  0.42691558  0.89701438  1
  Al  Al17  1  0.20939629  0.54598317  0.64282537  1
  Al  Al18  1  0.79369782  0.42366525  0.40096829  1
  Al  Al19  1  0.11349923  0.75608028  0.39519098  1
  Al  Al20  1  0.22171903  0.87126368  0.14396538  1
  Al  Al21  1  0.77177389  0.76957149  0.89095256  1
  Al  Al22  1  0.89108961  0.86985203  0.65422224  1
  Al  Al23  1  0.43705392  0.77563448  0.39119171  1
  Al  Al24  1  0.55390419  0.87747046  0.14526118  1
  Al  Al25  1  0.10579616  0.76422654  0.89558238  1
  Al  Al26  1  0.21226266  0.87598096  0.64346761  1
  Al  Al27  1  0.77924277  0.75696560  0.40337344  1
  Al  Al28  1  0.88955436  0.87151473  0.14104604  1
  Al  Al29  1  0.44522081  0.76703634  0.89869720  1
  Al  Al30  1  0.55859914  0.87551611  0.64595120  1
  Gd  Gd31  1  0.22645571  0.19749599  0.63343040  1
  Gd  Gd32  1  0.78498418  0.09252084  0.39511229  1
  Gd  Gd33  1  0.88812995  0.54156200  0.13815812  1
  Gd  Gd34  1  0.44069594  0.43038075  0.89924145  1
  Gd  Gd35  1  0.55315721  0.54539800  0.62293766  1
  N  N36  1  0.22443430  0.20448595  0.34624646  1
  N  N37  1  0.11391426  0.09320260  0.08990829  1
  N  N38  1  0.89172834  0.20382821  0.84482906  1
  N  N39  1  0.77988131  0.09289548  0.61437501  1
  N  N40  1  0.53350553  0.21391849  0.33067983  1
  N  N41  1  0.44496127  0.09335783  0.09154088  1
  N  N42  1  0.22380410  0.20315578  0.85477307  1
  N  N43  1  0.08856137  0.07854772  0.57294683  1
  N  N44  1  0.90397806  0.22352123  0.32091108  1
  N  N45  1  0.77860324  0.09366788  0.09344172  1
  N  N46  1  0.56718984  0.17618474  0.83916948  1
  N  N47  1  0.48197064  0.07532103  0.57372610  1
  N  N48  1  0.21839108  0.54085938  0.34053411  1
  N  N49  1  0.14521926  0.41392891  0.08315145  1
  N  N50  1  0.88938473  0.53875973  0.84749755  1
  N  N51  1  0.81438520  0.40602720  0.58789813  1
  N  N52  1  0.55757145  0.54000104  0.35636403  1
  N  N53  1  0.44424351  0.43189294  0.11764389  1
  N  N54  1  0.19083997  0.55600517  0.82735470  1
  N  N55  1  0.09619372  0.45350494  0.58269208  1
  N  N56  1  0.88782722  0.54222122  0.35556234  1
  N  N57  1  0.75802508  0.41638010  0.07934315  1
  N  N58  1  0.56618498  0.55747569  0.83938082  1
  N  N59  1  0.42684052  0.40757046  0.58801083  1
  N  N60  1  0.21882819  0.87113800  0.33119388  1
  N  N61  1  0.11315976  0.75889065  0.08514501  1
  N  N62  1  0.89077620  0.87118614  0.84061641  1
  N  N63  1  0.77807500  0.75984011  0.59524333  1
  N  N64  1  0.56090419  0.86914454  0.33298311  1
  N  N65  1  0.44516715  0.76171793  0.09187755  1
  N  N66  1  0.22127118  0.87262230  0.83769265  1
  N  N67  1  0.10949488  0.76226405  0.58491563  1
  N  N68  1  0.90305626  0.84005302  0.32760335  1
  N  N69  1  0.75987223  0.79348029  0.07421106  1
  N  N70  1  0.55093436  0.87520685  0.83532389  1
  N  N71  1  0.42047546  0.80620167  0.57646981  1
