# generated using pymatgen
data_Gd5Al31N36
_symmetry_space_group_name_H-M   'P 1'
_cell_length_a   9.75212673
_cell_length_b   9.74923804
_cell_length_c   10.35205769
_cell_angle_alpha   90.10388806
_cell_angle_beta   90.39783896
_cell_angle_gamma   59.91815187
_symmetry_Int_Tables_number   1
_chemical_formula_structural   Gd5Al31N36
_chemical_formula_sum   'Gd5 Al31 N36'
_cell_volume   851.64239378
_cell_formula_units_Z   1
loop_
 _symmetry_equiv_pos_site_id
 _symmetry_equiv_pos_as_xyz
  1  'x, y, z'
loop_
 _atom_site_type_symbol
 _atom_site_label
 _atom_site_symmetry_multiplicity
 _atom_site_fract_x
 _atom_site_fract_y
 _atom_site_fract_z
 _atom_site_occupancy
  Al  Al0  1  0.10675325  0.09525132  0.38876484  1
  Al  Al1  1  0.23383215  0.19269394  0.15712071  1
  Al  Al2  1  0.78689498  0.08301669  0.90177380  1
  Al  Al3  1  0.89063450  0.19976691  0.65854101  1
  Al  Al4  1  0.45531688  0.08599997  0.39546028  1
  Al  Al5  1  0.55409659  0.19821417  0.14143914  1
  Al  Al6  1  0.10969090  0.10432042  0.90718660  1
  Al  Al7  1  0.88826385  0.20498375  0.14000011  1
  Al  Al8  1  0.44376267  0.08685385  0.90581719  1
  Al  Al9  1  0.56237630  0.18874289  0.66593945  1
  Al  Al10  1  0.12143004  0.42590737  0.33960889  1
  Al  Al11  1  0.21330828  0.54641499  0.08793802  1
  Al  Al12  1  0.77146673  0.43136263  0.89104405  1
  Al  Al13  1  0.87918648  0.54704639  0.65413793  1
  Al  Al14  1  0.43117564  0.43014217  0.32465024  1
  Al  Al15  1  0.55810811  0.53730776  0.15022830  1
  Al  Al16  1  0.10519023  0.43905237  0.83556500  1
  Al  Al17  1  0.21537445  0.54110961  0.58732207  1
  Al  Al18  1  0.80126865  0.42193834  0.39952740  1
  Al  Al19  1  0.11878987  0.75174466  0.32718611  1
  Al  Al20  1  0.22819250  0.86534306  0.08280460  1
  Al  Al21  1  0.76882109  0.77501218  0.89515724  1
  Al  Al22  1  0.88615472  0.87230894  0.65780951  1
  Al  Al23  1  0.44101578  0.76702078  0.33575305  1
  Al  Al24  1  0.55753023  0.87792190  0.15026118  1
  Al  Al25  1  0.11353950  0.76265126  0.83519793  1
  Al  Al26  1  0.21027701  0.87045548  0.57074133  1
  Al  Al27  1  0.78441930  0.75322960  0.40429470  1
  Al  Al28  1  0.88432160  0.87592892  0.14740323  1
  Al  Al29  1  0.43566503  0.77696970  0.82388400  1
  Al  Al30  1  0.56238862  0.87894998  0.64460435  1
  Gd  Gd31  1  0.22636994  0.19567074  0.62741286  1
  Gd  Gd32  1  0.77899738  0.09863038  0.40142256  1
  Gd  Gd33  1  0.88826448  0.53808369  0.12442990  1
  Gd  Gd34  1  0.44779529  0.42788000  0.87871025  1
  Gd  Gd35  1  0.54441092  0.54098776  0.60224379  1
  N  N36  1  0.23149686  0.19151146  0.35543701  1
  N  N37  1  0.11150606  0.09913307  0.09399793  1
  N  N38  1  0.89180763  0.20487447  0.84523477  1
  N  N39  1  0.77731284  0.09477499  0.61893738  1
  N  N40  1  0.53185583  0.21102262  0.32325269  1
  N  N41  1  0.44254310  0.08985165  0.09134557  1
  N  N42  1  0.22209229  0.20793773  0.85432107  1
  N  N43  1  0.07913264  0.08679383  0.57086316  1
  N  N44  1  0.90275280  0.22257278  0.31973515  1
  N  N45  1  0.78019734  0.09278122  0.09408189  1
  N  N46  1  0.57443849  0.16625554  0.85234049  1
  N  N47  1  0.48462817  0.07827727  0.57454296  1
  N  N48  1  0.22500909  0.53961981  0.39707321  1
  N  N49  1  0.14822816  0.41225740  0.15617801  1
  N  N50  1  0.87837728  0.54610652  0.85420477  1
  N  N51  1  0.81131072  0.40878953  0.58564200  1
  N  N52  1  0.56404933  0.53104320  0.35033926  1
  N  N53  1  0.43723091  0.43585684  0.12799273  1
  N  N54  1  0.18460588  0.56024584  0.90818615  1
  N  N55  1  0.09485632  0.45933935  0.64972802  1
  N  N56  1  0.89446249  0.53960586  0.35155154  1
  N  N57  1  0.75498909  0.41298612  0.07371771  1
  N  N58  1  0.56817892  0.55929466  0.82632673  1
  N  N59  1  0.42235596  0.40684964  0.64946204  1
  N  N60  1  0.22272457  0.86331383  0.38130126  1
  N  N61  1  0.11575423  0.76173836  0.14110485  1
  N  N62  1  0.88972388  0.87073337  0.84284641  1
  N  N63  1  0.77886492  0.76048496  0.59293989  1
  N  N64  1  0.56648387  0.86880991  0.33881809  1
  N  N65  1  0.44382489  0.76281605  0.14246849  1
  N  N66  1  0.22519855  0.86949357  0.89426761  1
  N  N67  1  0.11859563  0.75779174  0.64414683  1
  N  N68  1  0.89596130  0.84778373  0.33417394  1
  N  N69  1  0.76019947  0.79526435  0.07792055  1
  N  N70  1  0.55410384  0.88029854  0.83392528  1
  N  N71  1  0.41641011  0.80796107  0.62447145  1
