# generated using pymatgen
data_Gd5Al31N36
_symmetry_space_group_name_H-M   'P 1'
_cell_length_a   9.74115211
_cell_length_b   9.71175791
_cell_length_c   10.43683130
_cell_angle_alpha   90.16183106
_cell_angle_beta   90.32614692
_cell_angle_gamma   60.22376980
_symmetry_Int_Tables_number   1
_chemical_formula_structural   Gd5Al31N36
_chemical_formula_sum   'Gd5 Al31 N36'
_cell_volume   856.98908910
_cell_formula_units_Z   1
loop_
 _symmetry_equiv_pos_site_id
 _symmetry_equiv_pos_as_xyz
  1  'x, y, z'
loop_
 _atom_site_type_symbol
 _atom_site_label
 _atom_site_symmetry_multiplicity
 _atom_site_fract_x
 _atom_site_fract_y
 _atom_site_fract_z
 _atom_site_occupancy
  Al  Al0  1  0.12599717  0.09177448  0.29620715  1
  Al  Al1  1  0.22468450  0.20615936  0.05180881  1
  Al  Al2  1  0.77735456  0.09289250  0.87800197  1
  Al  Al3  1  0.88803884  0.19498605  0.64378206  1
  Al  Al4  1  0.44845718  0.09107943  0.37147066  1
  Al  Al5  1  0.55038950  0.20339908  0.11453536  1
  Al  Al6  1  0.11266108  0.08380960  0.82020442  1
  Al  Al7  1  0.89012106  0.20608411  0.11369740  1
  Al  Al8  1  0.45615179  0.07693197  0.87521640  1
  Al  Al9  1  0.56988457  0.18040132  0.63398061  1
  Al  Al10  1  0.12558604  0.41780596  0.30892080  1
  Al  Al11  1  0.21490708  0.54739539  0.06283498  1
  Al  Al12  1  0.77737642  0.43257700  0.83109555  1
  Al  Al13  1  0.89221678  0.53936579  0.55141295  1
  Al  Al14  1  0.43105418  0.43796911  0.28795074  1
  Al  Al15  1  0.55054180  0.55210053  0.05655244  1
  Al  Al16  1  0.09405941  0.44227613  0.80216087  1
  Al  Al17  1  0.22118168  0.53829608  0.55467670  1
  Al  Al18  1  0.77832550  0.43682587  0.29385697  1
  Al  Al19  1  0.11173418  0.75928146  0.31087508  1
  Al  Al20  1  0.22317289  0.87056555  0.05690472  1
  Al  Al21  1  0.78264777  0.76017651  0.80069937  1
  Al  Al22  1  0.89946444  0.85655937  0.56394865  1
  Al  Al23  1  0.43642958  0.76175624  0.30193733  1
  Al  Al24  1  0.54701073  0.88833723  0.13151739  1
  Al  Al25  1  0.10166993  0.76533585  0.80961042  1
  Al  Al26  1  0.21490194  0.87045897  0.55971771  1
  Al  Al27  1  0.78109208  0.76544124  0.31369946  1
  Al  Al28  1  0.89036493  0.87847641  0.05996262  1
  Al  Al29  1  0.43677931  0.76954448  0.80642591  1
  Al  Al30  1  0.55931552  0.87347177  0.62183840  1
  Gd  Gd31  1  0.22047407  0.20053478  0.58162515  1
  Gd  Gd32  1  0.77083148  0.11014918  0.36981336  1
  Gd  Gd33  1  0.89699528  0.55311001  0.06437805  1
  Gd  Gd34  1  0.43099544  0.42819196  0.83376874  1
  Gd  Gd35  1  0.55873939  0.53044144  0.55462294  1
  N  N36  1  0.22341485  0.20163960  0.36120588  1
  N  N37  1  0.12220622  0.09012618  0.10416109  1
  N  N38  1  0.88182402  0.20767057  0.83435686  1
  N  N39  1  0.78494892  0.08762364  0.58865780  1
  N  N40  1  0.52309932  0.21665706  0.29351494  1
  N  N41  1  0.44842029  0.09006745  0.05622005  1
  N  N42  1  0.21630282  0.21103115  0.85589242  1
  N  N43  1  0.10312287  0.06558023  0.63874502  1
  N  N44  1  0.90689873  0.21718556  0.29836638  1
  N  N45  1  0.77284819  0.10499509  0.06734440  1
  N  N46  1  0.57356567  0.16638809  0.81692765  1
  N  N47  1  0.48576498  0.07114768  0.55143508  1
  N  N48  1  0.22589936  0.54030546  0.36556777  1
  N  N49  1  0.14943049  0.40726672  0.12847655  1
  N  N50  1  0.88230985  0.54410786  0.85132981  1
  N  N51  1  0.81259978  0.40700981  0.60464313  1
  N  N52  1  0.55537717  0.53545607  0.33588987  1
  N  N53  1  0.43795369  0.43964422  0.09347893  1
  N  N54  1  0.17484789  0.56070677  0.88394220  1
  N  N55  1  0.09572846  0.46008618  0.61994714  1
  N  N56  1  0.89186356  0.54086208  0.35414035  1
  N  N57  1  0.76388707  0.42933106  0.10309536  1
  N  N58  1  0.56218479  0.55989874  0.86910629  1
  N  N59  1  0.43113519  0.40357016  0.61423075  1
  N  N60  1  0.21984197  0.87365989  0.36741400  1
  N  N61  1  0.10731816  0.76694345  0.12369176  1
  N  N62  1  0.88999211  0.86745862  0.87098022  1
  N  N63  1  0.78378934  0.75385110  0.61396509  1
  N  N64  1  0.54971610  0.87498119  0.31864999  1
  N  N65  1  0.43783565  0.76709910  0.11526361  1
  N  N66  1  0.22210098  0.86474862  0.87376456  1
  N  N67  1  0.11796719  0.75277750  0.62191935  1
  N  N68  1  0.90738900  0.84464093  0.38040282  1
  N  N69  1  0.76732656  0.80202173  0.13162783  1
  N  N70  1  0.55677553  0.87261881  0.81263710  1
  N  N71  1  0.42498529  0.78455039  0.62003873  1
