# generated using pymatgen
data_Gd5Al31N36
_symmetry_space_group_name_H-M   'P 1'
_cell_length_a   9.71971736
_cell_length_b   9.73291731
_cell_length_c   10.20783480
_cell_angle_alpha   89.88366659
_cell_angle_beta   89.82552186
_cell_angle_gamma   60.03284034
_symmetry_Int_Tables_number   1
_chemical_formula_structural   Gd5Al31N36
_chemical_formula_sum   'Gd5 Al31 N36'
_cell_volume   836.57034922
_cell_formula_units_Z   1
loop_
 _symmetry_equiv_pos_site_id
 _symmetry_equiv_pos_as_xyz
  1  'x, y, z'
loop_
 _atom_site_type_symbol
 _atom_site_label
 _atom_site_symmetry_multiplicity
 _atom_site_fract_x
 _atom_site_fract_y
 _atom_site_fract_z
 _atom_site_occupancy
  Al  Al0  1  0.11383591  0.09660351  0.30378032  1
  Al  Al1  1  0.22620542  0.20387859  0.05661883  1
  Al  Al2  1  0.78171366  0.08911393  0.80958238  1
  Al  Al3  1  0.89661868  0.20046468  0.56580734  1
  Al  Al4  1  0.43870231  0.09475771  0.30085235  1
  Al  Al5  1  0.56037318  0.19565280  0.05922190  1
  Al  Al6  1  0.10885095  0.08820853  0.81546809  1
  Al  Al7  1  0.88717600  0.20297435  0.05284301  1
  Al  Al8  1  0.45688841  0.08179055  0.81528402  1
  Al  Al9  1  0.55583704  0.19874374  0.56166710  1
  Al  Al10  1  0.11931699  0.42266975  0.30882578  1
  Al  Al11  1  0.21446532  0.54626615  0.06519160  1
  Al  Al12  1  0.78745705  0.42700855  0.80709995  1
  Al  Al13  1  0.89060927  0.54243889  0.55665081  1
  Al  Al14  1  0.43694407  0.43000367  0.29725702  1
  Al  Al15  1  0.55656332  0.54249371  0.06456417  1
  Al  Al16  1  0.09997717  0.44080893  0.80475586  1
  Al  Al17  1  0.21736273  0.54274091  0.55348177  1
  Al  Al18  1  0.78078473  0.42465957  0.30803563  1
  Al  Al19  1  0.11357408  0.75652765  0.31194586  1
  Al  Al20  1  0.22039910  0.87276567  0.06139546  1
  Al  Al21  1  0.77500487  0.76191509  0.80337760  1
  Al  Al22  1  0.89600215  0.86110310  0.56704330  1
  Al  Al23  1  0.44108734  0.76600052  0.30419518  1
  Al  Al24  1  0.55292892  0.87891697  0.06074044  1
  Al  Al25  1  0.10583992  0.76491508  0.81067371  1
  Al  Al26  1  0.21651478  0.87332146  0.56242904  1
  Al  Al27  1  0.77576841  0.76362738  0.31636396  1
  Al  Al28  1  0.88656324  0.87840761  0.05295227  1
  Al  Al29  1  0.44366202  0.77203571  0.81552375  1
  Al  Al30  1  0.55910014  0.87353833  0.56063417  1
  Gd  Gd31  1  0.22611840  0.20051519  0.57085984  1
  Gd  Gd32  1  0.78304701  0.08972464  0.31786723  1
  Gd  Gd33  1  0.88704647  0.54511975  0.06766514  1
  Gd  Gd34  1  0.43749768  0.42866008  0.83085511  1
  Gd  Gd35  1  0.55389310  0.54071013  0.56068450  1
  N  N36  1  0.22381194  0.20153536  0.35009143  1
  N  N37  1  0.10905397  0.09562530  0.11214113  1
  N  N38  1  0.88739078  0.20702027  0.86581384  1
  N  N39  1  0.77939686  0.09305381  0.61092209  1
  N  N40  1  0.52541483  0.21859735  0.36545511  1
  N  N41  1  0.44224633  0.09404912  0.11274589  1
  N  N42  1  0.22239634  0.20730495  0.85883535  1
  N  N43  1  0.09805462  0.07469853  0.63275478  1
  N  N44  1  0.90808702  0.21870782  0.37975775  1
  N  N45  1  0.78134139  0.09360775  0.09881739  1
  N  N46  1  0.57320544  0.17391179  0.87585804  1
  N  N47  1  0.47965313  0.07405352  0.63139416  1
  N  N48  1  0.22373011  0.53961407  0.36310187  1
  N  N49  1  0.14028275  0.41237521  0.12499958  1
  N  N50  1  0.88611597  0.54307142  0.85054787  1
  N  N51  1  0.80804311  0.41296900  0.62144309  1
  N  N52  1  0.55189521  0.53993248  0.34117884  1
  N  N53  1  0.44167153  0.42961733  0.10098377  1
  N  N54  1  0.18126502  0.56077122  0.88259349  1
  N  N55  1  0.09692558  0.45836331  0.61839980  1
  N  N56  1  0.88818489  0.53908296  0.35841451  1
  N  N57  1  0.76785979  0.40867497  0.12399325  1
  N  N58  1  0.57334002  0.55529365  0.87076803  1
  N  N59  1  0.42770266  0.41094428  0.61181825  1
  N  N60  1  0.22028378  0.87368905  0.36779342  1
  N  N61  1  0.10595338  0.76663200  0.12214972  1
  N  N62  1  0.88796967  0.87113663  0.86153635  1
  N  N63  1  0.77542711  0.75870862  0.61510217  1
  N  N64  1  0.55198837  0.87414562  0.36956212  1
  N  N65  1  0.44273628  0.76665833  0.11641570  1
  N  N66  1  0.22233017  0.86830712  0.87417183  1
  N  N67  1  0.11831315  0.75580277  0.62113112  1
  N  N68  1  0.90764971  0.83811695  0.38368896  1
  N  N69  1  0.76081772  0.79941433  0.13084780  1
  N  N70  1  0.56022239  0.86891878  0.87390709  1
  N  N71  1  0.42773996  0.79423496  0.62718656  1
