# generated using pymatgen
data_Gd5Al31N36
_symmetry_space_group_name_H-M   'P 1'
_cell_length_a   9.70892018
_cell_length_b   9.72060665
_cell_length_c   10.49634396
_cell_angle_alpha   90.13957523
_cell_angle_beta   90.39467649
_cell_angle_gamma   60.23378376
_symmetry_Int_Tables_number   1
_chemical_formula_structural   Gd5Al31N36
_chemical_formula_sum   'Gd5 Al31 N36'
_cell_volume   859.88561489
_cell_formula_units_Z   1
loop_
 _symmetry_equiv_pos_site_id
 _symmetry_equiv_pos_as_xyz
  1  'x, y, z'
loop_
 _atom_site_type_symbol
 _atom_site_label
 _atom_site_symmetry_multiplicity
 _atom_site_fract_x
 _atom_site_fract_y
 _atom_site_fract_z
 _atom_site_occupancy
  Al  Al0  1  0.12924788  0.08897156  0.29594966  1
  Al  Al1  1  0.22198308  0.20608075  0.05460935  1
  Al  Al2  1  0.77668029  0.09815128  0.87784880  1
  Al  Al3  1  0.88597302  0.19798725  0.63846397  1
  Al  Al4  1  0.45369822  0.08634069  0.37111532  1
  Al  Al5  1  0.54714466  0.20585123  0.11674879  1
  Al  Al6  1  0.10887807  0.08851107  0.81765130  1
  Al  Al7  1  0.88626629  0.20860072  0.11946559  1
  Al  Al8  1  0.45212754  0.08198608  0.87802167  1
  Al  Al9  1  0.56919733  0.18114006  0.63308142  1
  Al  Al10  1  0.13511940  0.41470155  0.30888056  1
  Al  Al11  1  0.21166677  0.54918301  0.06538056  1
  Al  Al12  1  0.77498428  0.42948628  0.87585275  1
  Al  Al13  1  0.88227036  0.54447317  0.63413833  1
  Al  Al14  1  0.43924449  0.43752829  0.29428548  1
  Al  Al15  1  0.54588423  0.55145853  0.05256079  1
  Al  Al16  1  0.09684098  0.44237408  0.81663224  1
  Al  Al17  1  0.21786193  0.53982816  0.55777445  1
  Al  Al18  1  0.80756219  0.41784008  0.37862335  1
  Al  Al19  1  0.11497339  0.75658760  0.31181502  1
  Al  Al20  1  0.22270819  0.87133122  0.05850210  1
  Al  Al21  1  0.76631249  0.77215162  0.87337713  1
  Al  Al22  1  0.90068419  0.85967914  0.56657129  1
  Al  Al23  1  0.44784684  0.75497270  0.30304581  1
  Al  Al24  1  0.55375779  0.88388302  0.12634043  1
  Al  Al25  1  0.10191610  0.76846889  0.80913987  1
  Al  Al26  1  0.21506029  0.87432482  0.55850656  1
  Al  Al27  1  0.78248628  0.74762683  0.38728876  1
  Al  Al28  1  0.89340944  0.87667290  0.05368947  1
  Al  Al29  1  0.43123422  0.77606912  0.80637940  1
  Al  Al30  1  0.56092717  0.87599070  0.62807158  1
  Gd  Gd31  1  0.21716069  0.20802675  0.57823174  1
  Gd  Gd32  1  0.77438701  0.10206517  0.36321902  1
  Gd  Gd33  1  0.88208809  0.54532865  0.11737378  1
  Gd  Gd34  1  0.42743365  0.42844542  0.83380477  1
  Gd  Gd35  1  0.55193815  0.53663497  0.56771707  1
  N  N36  1  0.22789037  0.19858110  0.35934425  1
  N  N37  1  0.12059719  0.08936728  0.10788149  1
  N  N38  1  0.87584069  0.21433644  0.82249978  1
  N  N39  1  0.78309957  0.08981124  0.58255931  1
  N  N40  1  0.52327793  0.21693048  0.29504869  1
  N  N41  1  0.44598575  0.09141885  0.05901336  1
  N  N42  1  0.21284970  0.21346364  0.86192540  1
  N  N43  1  0.10307823  0.07001433  0.63673059  1
  N  N44  1  0.90695939  0.22068118  0.29996157  1
  N  N45  1  0.77328456  0.10178277  0.07201310  1
  N  N46  1  0.57275798  0.16714768  0.81686723  1
  N  N47  1  0.48483548  0.07117074  0.55135416  1
  N  N48  1  0.23082200  0.53818312  0.36850434  1
  N  N49  1  0.14758475  0.40809453  0.12636066  1
  N  N50  1  0.87085041  0.54887723  0.82538264  1
  N  N51  1  0.82186190  0.40015251  0.56411836  1
  N  N52  1  0.56676238  0.53158679  0.34886098  1
  N  N53  1  0.43682188  0.44115416  0.09865424  1
  N  N54  1  0.17303633  0.56687534  0.88883919  1
  N  N55  1  0.09914932  0.46148291  0.63566529  1
  N  N56  1  0.90307990  0.53603355  0.33330385  1
  N  N57  1  0.76595567  0.41210466  0.05434052  1
  N  N58  1  0.55206914  0.56607468  0.86235858  1
  N  N59  1  0.42880657  0.40370319  0.61586733  1
  N  N60  1  0.22586526  0.87112501  0.36739455  1
  N  N61  1  0.10572809  0.76733148  0.12588567  1
  N  N62  1  0.89298218  0.87667377  0.86513433  1
  N  N63  1  0.77289500  0.75308850  0.57320384  1
  N  N64  1  0.56778696  0.86805380  0.31198934  1
  N  N65  1  0.44076113  0.76313141  0.11743338  1
  N  N66  1  0.21883428  0.87154732  0.87544886  1
  N  N67  1  0.11926604  0.75460092  0.62253972  1
  N  N68  1  0.91261567  0.84016525  0.38107739  1
  N  N69  1  0.75543432  0.79439007  0.05524751  1
  N  N70  1  0.55397834  0.87815439  0.81243545  1
  N  N71  1  0.42237944  0.79113097  0.62240937  1
