# generated using pymatgen
data_Gd5Al31N36
_symmetry_space_group_name_H-M   'P 1'
_cell_length_a   9.70871511
_cell_length_b   9.71571407
_cell_length_c   10.22196279
_cell_angle_alpha   90.20844299
_cell_angle_beta   90.18467646
_cell_angle_gamma   60.10170733
_symmetry_Int_Tables_number   1
_chemical_formula_structural   Gd5Al31N36
_chemical_formula_sum   'Gd5 Al31 N36'
_cell_volume   835.87655781
_cell_formula_units_Z   1
loop_
 _symmetry_equiv_pos_site_id
 _symmetry_equiv_pos_as_xyz
  1  'x, y, z'
loop_
 _atom_site_type_symbol
 _atom_site_label
 _atom_site_symmetry_multiplicity
 _atom_site_fract_x
 _atom_site_fract_y
 _atom_site_fract_z
 _atom_site_occupancy
  Al  Al0  1  0.11126674  0.09297443  0.38846334  1
  Al  Al1  1  0.22928166  0.20226285  0.14829251  1
  Al  Al2  1  0.78233988  0.08687643  0.89741299  1
  Al  Al3  1  0.89347235  0.19755160  0.65637310  1
  Al  Al4  1  0.45095419  0.08911384  0.39161542  1
  Al  Al5  1  0.55369480  0.20409494  0.14733093  1
  Al  Al6  1  0.11318646  0.09315162  0.90262951  1
  Al  Al7  1  0.88916716  0.20596323  0.13851044  1
  Al  Al8  1  0.44612814  0.08602936  0.90392934  1
  Al  Al9  1  0.56231044  0.19149293  0.65381719  1
  Al  Al10  1  0.10786706  0.43552639  0.39988900  1
  Al  Al11  1  0.22334007  0.54210298  0.15310837  1
  Al  Al12  1  0.77604618  0.42814901  0.89438531  1
  Al  Al13  1  0.89177352  0.54029126  0.65041065  1
  Al  Al14  1  0.43563002  0.42515754  0.38255664  1
  Al  Al15  1  0.55426305  0.54054211  0.15591172  1
  Al  Al16  1  0.11178411  0.42680108  0.89703008  1
  Al  Al17  1  0.20943253  0.54573054  0.64416505  1
  Al  Al18  1  0.79458289  0.42360710  0.40067608  1
  Al  Al19  1  0.11350655  0.75662652  0.39578698  1
  Al  Al20  1  0.22154168  0.87187174  0.14389413  1
  Al  Al21  1  0.77149683  0.76955091  0.89091090  1
  Al  Al22  1  0.89134941  0.86925697  0.65449513  1
  Al  Al23  1  0.43700098  0.77635735  0.39114106  1
  Al  Al24  1  0.55381068  0.87744290  0.14519149  1
  Al  Al25  1  0.10520720  0.76477058  0.89582369  1
  Al  Al26  1  0.21242856  0.87619122  0.64363153  1
  Al  Al27  1  0.77938436  0.75715440  0.40355883  1
  Al  Al28  1  0.88930327  0.87203125  0.14165531  1
  Al  Al29  1  0.44490773  0.76658903  0.89767111  1
  Al  Al30  1  0.55874337  0.87457257  0.64568832  1
  Gd  Gd31  1  0.22764271  0.19849451  0.63285935  1
  Gd  Gd32  1  0.78477850  0.09326205  0.39641291  1
  Gd  Gd33  1  0.88780475  0.54187146  0.13775156  1
  Gd  Gd34  1  0.43990098  0.42977873  0.89901222  1
  Gd  Gd35  1  0.55213494  0.54391224  0.62139703  1
  N  N36  1  0.22492728  0.20490037  0.34682075  1
  N  N37  1  0.11395805  0.09346268  0.09003300  1
  N  N38  1  0.89209810  0.20368061  0.84511541  1
  N  N39  1  0.78036689  0.09227726  0.61583140  1
  N  N40  1  0.53457612  0.21292679  0.32937838  1
  N  N41  1  0.44451590  0.09288310  0.09161420  1
  N  N42  1  0.22395767  0.20315228  0.85448065  1
  N  N43  1  0.08927445  0.07890091  0.57344204  1
  N  N44  1  0.90435326  0.22341808  0.32100585  1
  N  N45  1  0.77927156  0.09335534  0.09334611  1
  N  N46  1  0.56782049  0.17484809  0.84136498  1
  N  N47  1  0.48344485  0.07405632  0.57383815  1
  N  N48  1  0.21761594  0.54206300  0.33948907  1
  N  N49  1  0.14467630  0.41376298  0.08321038  1
  N  N50  1  0.88863801  0.53872543  0.84744187  1
  N  N51  1  0.81385682  0.40550525  0.58762531  1
  N  N52  1  0.55832503  0.54089473  0.35453516  1
  N  N53  1  0.44380320  0.43223159  0.11987253  1
  N  N54  1  0.18947630  0.55650133  0.82902880  1
  N  N55  1  0.09527115  0.45440302  0.58288810  1
  N  N56  1  0.88826292  0.54248177  0.35534457  1
  N  N57  1  0.75806204  0.41617896  0.07872819  1
  N  N58  1  0.56538865  0.55674018  0.83886395  1
  N  N59  1  0.42630604  0.40613241  0.59265682  1
  N  N60  1  0.21899859  0.87156109  0.33128830  1
  N  N61  1  0.11237409  0.75992656  0.08534397  1
  N  N62  1  0.89068079  0.87086520  0.84088536  1
  N  N63  1  0.77805226  0.75938204  0.59535543  1
  N  N64  1  0.56108653  0.86929976  0.33298303  1
  N  N65  1  0.44480868  0.76210614  0.09106238  1
  N  N66  1  0.22095688  0.87280552  0.83783939  1
  N  N67  1  0.10983922  0.76192834  0.58557456  1
  N  N68  1  0.90287817  0.84103114  0.32846988  1
  N  N69  1  0.75968541  0.79373091  0.07450421  1
  N  N70  1  0.55088592  0.87455080  0.83513904  1
  N  N71  1  0.42045734  0.80529909  0.57647619  1
