# generated using pymatgen
data_Gd5Al31N36
_symmetry_space_group_name_H-M   'P 1'
_cell_length_a   9.70891630
_cell_length_b   9.72060500
_cell_length_c   10.49635770
_cell_angle_alpha   90.13960001
_cell_angle_beta   90.39469835
_cell_angle_gamma   60.23376739
_symmetry_Int_Tables_number   1
_chemical_formula_structural   Gd5Al31N36
_chemical_formula_sum   'Gd5 Al31 N36'
_cell_volume   859.88610951
_cell_formula_units_Z   1
loop_
 _symmetry_equiv_pos_site_id
 _symmetry_equiv_pos_as_xyz
  1  'x, y, z'
loop_
 _atom_site_type_symbol
 _atom_site_label
 _atom_site_symmetry_multiplicity
 _atom_site_fract_x
 _atom_site_fract_y
 _atom_site_fract_z
 _atom_site_occupancy
  Al  Al0  1  0.12928044  0.08893738  0.31094952  1
  Al  Al1  1  0.22201519  0.20604714  0.06960937  1
  Al  Al2  1  0.77671170  0.09811785  0.89285088  1
  Al  Al3  1  0.88600433  0.19795353  0.65346686  1
  Al  Al4  1  0.45373060  0.08630635  0.38611662  1
  Al  Al5  1  0.54717649  0.20581767  0.13175162  1
  Al  Al6  1  0.10891041  0.08847710  0.83265228  1
  Al  Al7  1  0.88629852  0.20856675  0.13446608  1
  Al  Al8  1  0.45215943  0.08195287  0.89302196  1
  Al  Al9  1  0.56922891  0.18110627  0.64808265  1
  Al  Al10  1  0.13515207  0.41466748  0.32388162  1
  Al  Al11  1  0.21169926  0.54914884  0.08038245  1
  Al  Al12  1  0.77501634  0.42945277  0.89085508  1
  Al  Al13  1  0.88230236  0.54443924  0.64913932  1
  Al  Al14  1  0.43927676  0.43749438  0.30928834  1
  Al  Al15  1  0.54591626  0.55142427  0.06756288  1
  Al  Al16  1  0.09687293  0.44234027  0.83163347  1
  Al  Al17  1  0.21789384  0.53979456  0.57277690  1
  Al  Al18  1  0.80759497  0.41780565  0.39362445  1
  Al  Al19  1  0.11500567  0.75655368  0.32681633  1
  Al  Al20  1  0.22274017  0.87129737  0.07350335  1
  Al  Al21  1  0.76634450  0.77211751  0.88837960  1
  Al  Al22  1  0.90071608  0.85964542  0.58157369  1
  Al  Al23  1  0.44787906  0.75493900  0.31804615  1
  Al  Al24  1  0.55378969  0.88384971  0.14134099  1
  Al  Al25  1  0.10194809  0.76843502  0.82414222  1
  Al  Al26  1  0.21509232  0.87429061  0.57350927  1
  Al  Al27  1  0.78251863  0.74759296  0.40229086  1
  Al  Al28  1  0.89344158  0.87663918  0.06869037  1
  Al  Al29  1  0.43126665  0.77603507  0.82138239  1
  Al  Al30  1  0.56095860  0.87595687  0.64307315  1
  Gd  Gd31  1  0.21719104  0.20799325  0.59323146  1
  Gd  Gd32  1  0.77442023  0.10203101  0.37822096  1
  Gd  Gd33  1  0.88212009  0.54529502  0.13237615  1
  Gd  Gd34  1  0.42746560  0.42841219  0.84880536  1
  Gd  Gd35  1  0.55197038  0.53660153  0.58271763  1
  N  N36  1  0.22792274  0.19854690  0.37434465  1
  N  N37  1  0.12062949  0.08933345  0.12288196  1
  N  N38  1  0.87587266  0.21430271  0.83750213  1
  N  N39  1  0.78313133  0.08977743  0.59756115  1
  N  N40  1  0.52331064  0.21689630  0.31005126  1
  N  N41  1  0.44601804  0.09138554  0.07401391  1
  N  N42  1  0.21288164  0.21342991  0.87692636  1
  N  N43  1  0.10310972  0.06998055  0.65173236  1
  N  N44  1  0.90699189  0.22064717  0.31496196  1
  N  N45  1  0.77331628  0.10174909  0.08701452  1
  N  N46  1  0.57278980  0.16711448  0.83186808  1
  N  N47  1  0.48486639  0.07113707  0.56635577  1
  N  N48  1  0.23085411  0.53814923  0.38350655  1
  N  N49  1  0.14761683  0.40806058  0.14136202  1
  N  N50  1  0.87088231  0.54884344  0.84038385  1
  N  N51  1  0.82189445  0.40011799  0.57911959  1
  N  N52  1  0.56679490  0.53155316  0.36386219  1
  N  N53  1  0.43685399  0.44112033  0.11365728  1
  N  N54  1  0.17306856  0.56684121  0.90384118  1
  N  N55  1  0.09918152  0.46144879  0.65066694  1
  N  N56  1  0.90311253  0.53599952  0.34830581  1
  N  N57  1  0.76598793  0.41207107  0.06934243  1
  N  N58  1  0.55210115  0.56604086  0.87736154  1
  N  N59  1  0.42883906  0.40366976  0.63086847  1
  N  N60  1  0.22589770  0.87109101  0.38239629  1
  N  N61  1  0.10576008  0.76729772  0.14088716  1
  N  N62  1  0.89301391  0.87664015  0.88013604  1
  N  N63  1  0.77292662  0.75305481  0.58820551  1
  N  N64  1  0.56781945  0.86801984  0.32699014  1
  N  N65  1  0.44079316  0.76309783  0.13243441  1
  N  N66  1  0.21886618  0.87151355  0.89045069  1
  N  N67  1  0.11929786  0.75456703  0.63754241  1
  N  N68  1  0.91264831  0.84013114  0.39607988  1
  N  N69  1  0.75546671  0.79435617  0.07024936  1
  N  N70  1  0.55401061  0.87812056  0.82743715  1
  N  N71  1  0.42241131  0.79109664  0.63741237  1
