# generated using pymatgen
data_Gd5Al31N36
_symmetry_space_group_name_H-M   'P 1'
_cell_length_a   9.72779630
_cell_length_b   9.74435973
_cell_length_c   10.28061542
_cell_angle_alpha   89.63016934
_cell_angle_beta   89.90089242
_cell_angle_gamma   60.14786075
_symmetry_Int_Tables_number   1
_chemical_formula_structural   Gd5Al31N36
_chemical_formula_sum   'Gd5 Al31 N36'
_cell_volume   845.18734636
_cell_formula_units_Z   1
loop_
 _symmetry_equiv_pos_site_id
 _symmetry_equiv_pos_as_xyz
  1  'x, y, z'
loop_
 _atom_site_type_symbol
 _atom_site_label
 _atom_site_symmetry_multiplicity
 _atom_site_fract_x
 _atom_site_fract_y
 _atom_site_fract_z
 _atom_site_occupancy
  Al  Al0  1  0.11565586  0.09692878  0.30702317  1
  Al  Al1  1  0.21873772  0.20799848  0.05858736  1
  Al  Al2  1  0.79377131  0.08130298  0.80481373  1
  Al  Al3  1  0.90006666  0.20153657  0.56308187  1
  Al  Al4  1  0.44520525  0.09338003  0.36612375  1
  Al  Al5  1  0.54626668  0.20503266  0.11605739  1
  Al  Al6  1  0.10599660  0.08821117  0.81529186  1
  Al  Al7  1  0.88207568  0.20404348  0.05489213  1
  Al  Al8  1  0.45126488  0.08556869  0.87424925  1
  Al  Al9  1  0.56612651  0.18931354  0.62522226  1
  Al  Al10  1  0.12259308  0.41869463  0.31219424  1
  Al  Al11  1  0.21065383  0.55028888  0.06420549  1
  Al  Al12  1  0.78688194  0.42726593  0.80606258  1
  Al  Al13  1  0.89086630  0.54283346  0.55555300  1
  Al  Al14  1  0.43100636  0.43945064  0.29278503  1
  Al  Al15  1  0.55589087  0.54598230  0.06042273  1
  Al  Al16  1  0.09582565  0.44643125  0.80372987  1
  Al  Al17  1  0.22002002  0.54238427  0.55491827  1
  Al  Al18  1  0.78013262  0.42498788  0.30683544  1
  Al  Al19  1  0.11258801  0.75688203  0.31167604  1
  Al  Al20  1  0.21853846  0.87450136  0.06133959  1
  Al  Al21  1  0.77400361  0.76342538  0.80310711  1
  Al  Al22  1  0.89990404  0.85744299  0.56478262  1
  Al  Al23  1  0.44146611  0.76276503  0.30171685  1
  Al  Al24  1  0.55445370  0.87443396  0.06242749  1
  Al  Al25  1  0.10763508  0.76380510  0.81066781  1
  Al  Al26  1  0.21709666  0.87453084  0.56166200  1
  Al  Al27  1  0.77843771  0.75896784  0.31296723  1
  Al  Al28  1  0.88250435  0.88313295  0.05455428  1
  Al  Al29  1  0.44343647  0.77286855  0.81312207  1
  Al  Al30  1  0.56570347  0.86542211  0.55285040  1
  Gd  Gd31  1  0.22917827  0.20201260  0.58900141  1
  Gd  Gd32  1  0.77825875  0.09166136  0.33054594  1
  Gd  Gd33  1  0.88863709  0.54473663  0.06668712  1
  Gd  Gd34  1  0.44074898  0.42239897  0.84179434  1
  Gd  Gd35  1  0.55226361  0.54121898  0.56190544  1
  N  N36  1  0.22297018  0.20097838  0.36074870  1
  N  N37  1  0.10719733  0.09739141  0.11428211  1
  N  N38  1  0.88586700  0.20668989  0.86733661  1
  N  N39  1  0.79207057  0.08690805  0.60567380  1
  N  N40  1  0.51858734  0.22131939  0.29802836  1
  N  N41  1  0.44045282  0.09841804  0.06066378  1
  N  N42  1  0.21502887  0.21192117  0.85321018  1
  N  N43  1  0.09850427  0.07380564  0.63329674  1
  N  N44  1  0.90771504  0.21945720  0.37782305  1
  N  N45  1  0.77405310  0.09722562  0.10128422  1
  N  N46  1  0.57562851  0.16289949  0.81043666  1
  N  N47  1  0.48660716  0.07879462  0.54847499  1
  N  N48  1  0.22390890  0.54009308  0.36516233  1
  N  N49  1  0.14158155  0.41219500  0.12824544  1
  N  N50  1  0.88421548  0.54402658  0.85089539  1
  N  N51  1  0.80819141  0.41284686  0.62120086  1
  N  N52  1  0.55182120  0.53760576  0.34208275  1
  N  N53  1  0.43612842  0.44073483  0.09400769  1
  N  N54  1  0.18120189  0.56026919  0.88232017  1
  N  N55  1  0.09521989  0.46298275  0.61885198  1
  N  N56  1  0.89010241  0.53659728  0.35855474  1
  N  N57  1  0.76573195  0.41180260  0.12273318  1
  N  N58  1  0.57239719  0.55494038  0.86713132  1
  N  N59  1  0.42920683  0.41043587  0.61539486  1
  N  N60  1  0.22088821  0.87241821  0.36771990  1
  N  N61  1  0.10354882  0.76864878  0.12247201  1
  N  N62  1  0.89064851  0.86938367  0.86398380  1
  N  N63  1  0.77660175  0.75921768  0.61642384  1
  N  N64  1  0.55883268  0.85867074  0.36263881  1
  N  N65  1  0.44082498  0.76711760  0.11531264  1
  N  N66  1  0.22216634  0.86947698  0.87468733  1
  N  N67  1  0.12072898  0.75527782  0.62161309  1
  N  N68  1  0.90772121  0.83531478  0.38231918  1
  N  N69  1  0.76076912  0.79806227  0.12942457  1
  N  N70  1  0.56285771  0.86359751  0.87242066  1
  N  N71  1  0.42836278  0.79836521  0.62672677  1
