# generated using pymatgen
data_Gd5Al31N36
_symmetry_space_group_name_H-M   'P 1'
_cell_length_a   9.76243349
_cell_length_b   9.74879410
_cell_length_c   10.26537274
_cell_angle_alpha   89.62738540
_cell_angle_beta   89.94773168
_cell_angle_gamma   60.07849676
_symmetry_Int_Tables_number   1
_chemical_formula_structural   Gd5Al31N36
_chemical_formula_sum   'Gd5 Al31 N36'
_cell_volume   846.73314930
_cell_formula_units_Z   1
loop_
 _symmetry_equiv_pos_site_id
 _symmetry_equiv_pos_as_xyz
  1  'x, y, z'
loop_
 _atom_site_type_symbol
 _atom_site_label
 _atom_site_symmetry_multiplicity
 _atom_site_fract_x
 _atom_site_fract_y
 _atom_site_fract_z
 _atom_site_occupancy
  Al  Al0  1  0.11479503  0.09890336  0.30727640  1
  Al  Al1  1  0.21923863  0.20792836  0.05650614  1
  Al  Al2  1  0.79396383  0.08225910  0.80565014  1
  Al  Al3  1  0.90107913  0.20158188  0.56332229  1
  Al  Al4  1  0.44534376  0.09253847  0.36668642  1
  Al  Al5  1  0.54655149  0.20648705  0.11577533  1
  Al  Al6  1  0.10671477  0.08844429  0.81576787  1
  Al  Al7  1  0.88191278  0.20497762  0.05544826  1
  Al  Al8  1  0.45864466  0.07673841  0.87778915  1
  Al  Al9  1  0.56680564  0.18675615  0.62602985  1
  Al  Al10  1  0.12267620  0.41880228  0.31217172  1
  Al  Al11  1  0.20973739  0.55086980  0.06408960  1
  Al  Al12  1  0.78708111  0.42718663  0.80622135  1
  Al  Al13  1  0.89208551  0.54071202  0.55481228  1
  Al  Al14  1  0.42963587  0.44046654  0.29271569  1
  Al  Al15  1  0.55473935  0.54725000  0.05918080  1
  Al  Al16  1  0.09667704  0.44481594  0.80450860  1
  Al  Al17  1  0.21915199  0.54162282  0.55483944  1
  Al  Al18  1  0.77865528  0.42640644  0.30693296  1
  Al  Al19  1  0.11126976  0.75815705  0.31045595  1
  Al  Al20  1  0.21849286  0.87480010  0.06068526  1
  Al  Al21  1  0.78085214  0.76047907  0.80331351  1
  Al  Al22  1  0.90105603  0.85740679  0.56433362  1
  Al  Al23  1  0.43530959  0.76244491  0.30379154  1
  Al  Al24  1  0.54827767  0.88477963  0.12601778  1
  Al  Al25  1  0.10809438  0.76363562  0.81021670  1
  Al  Al26  1  0.21509955  0.87422440  0.55994812  1
  Al  Al27  1  0.78142640  0.75948725  0.31443884  1
  Al  Al28  1  0.88389058  0.88371065  0.05356423  1
  Al  Al29  1  0.44124346  0.77059011  0.81259068  1
  Al  Al30  1  0.56364727  0.87122891  0.60701350  1
  Gd  Gd31  1  0.23215996  0.20051130  0.59071676  1
  Gd  Gd32  1  0.77681284  0.09359014  0.33110959  1
  Gd  Gd33  1  0.88786977  0.54475895  0.06708985  1
  Gd  Gd34  1  0.43953632  0.42165107  0.84192175  1
  Gd  Gd35  1  0.55298662  0.53624235  0.56288476  1
  N  N36  1  0.22232045  0.20231349  0.36313852  1
  N  N37  1  0.10741388  0.09831194  0.11423950  1
  N  N38  1  0.88697714  0.20664356  0.86758598  1
  N  N39  1  0.79218609  0.08745470  0.60600793  1
  N  N40  1  0.51741566  0.22267815  0.29845396  1
  N  N41  1  0.44332848  0.09396966  0.06211930  1
  N  N42  1  0.21686697  0.21085076  0.85532733  1
  N  N43  1  0.09976317  0.07400169  0.63292892  1
  N  N44  1  0.90686027  0.22064377  0.37759204  1
  N  N45  1  0.77399162  0.09814174  0.10126561  1
  N  N46  1  0.57658629  0.16281798  0.81283270  1
  N  N47  1  0.49182262  0.07127114  0.54675257  1
  N  N48  1  0.22270669  0.54134895  0.36467240  1
  N  N49  1  0.14175091  0.41187381  0.12790878  1
  N  N50  1  0.88519208  0.54283207  0.85127920  1
  N  N51  1  0.80861380  0.41272679  0.62139251  1
  N  N52  1  0.55052789  0.53868694  0.34347820  1
  N  N53  1  0.43531304  0.44135485  0.09353591  1
  N  N54  1  0.18053354  0.56029370  0.88194160  1
  N  N55  1  0.09586927  0.46084781  0.61885433  1
  N  N56  1  0.88874287  0.53766427  0.35860626  1
  N  N57  1  0.76357401  0.41315609  0.12295598  1
  N  N58  1  0.57216454  0.55391638  0.86626406  1
  N  N59  1  0.42749699  0.40676045  0.61489037  1
  N  N60  1  0.21734375  0.87434950  0.36721087  1
  N  N61  1  0.10383876  0.76943339  0.12152583  1
  N  N62  1  0.89223651  0.86978980  0.86333777  1
  N  N63  1  0.78407591  0.75482329  0.61415027  1
  N  N64  1  0.55080762  0.87250423  0.32204987  1
  N  N65  1  0.43781806  0.76573540  0.11441618  1
  N  N66  1  0.22204959  0.86928812  0.87387333  1
  N  N67  1  0.12047914  0.75474651  0.62123757  1
  N  N68  1  0.90801951  0.83728525  0.38203462  1
  N  N69  1  0.76864949  0.79561956  0.12791485  1
  N  N70  1  0.56054385  0.86927628  0.82795749  1
  N  N71  1  0.42487674  0.79182179  0.62149422  1
