# generated using pymatgen
data_Gd5Al31N36
_symmetry_space_group_name_H-M   'P 1'
_cell_length_a   9.76384452
_cell_length_b   9.76434352
_cell_length_c   10.35865167
_cell_angle_alpha   90.43912758
_cell_angle_beta   90.73408491
_cell_angle_gamma   59.99063488
_symmetry_Int_Tables_number   1
_chemical_formula_structural   Gd5Al31N36
_chemical_formula_sum   'Gd5 Al31 N36'
_cell_volume   855.10741238
_cell_formula_units_Z   1
loop_
 _symmetry_equiv_pos_site_id
 _symmetry_equiv_pos_as_xyz
  1  'x, y, z'
loop_
 _atom_site_type_symbol
 _atom_site_label
 _atom_site_symmetry_multiplicity
 _atom_site_fract_x
 _atom_site_fract_y
 _atom_site_fract_z
 _atom_site_occupancy
  Al  Al0  1  0.12577304  0.09160126  0.31625477  1
  Al  Al1  1  0.22389303  0.20358283  0.07702065  1
  Al  Al2  1  0.77942779  0.09357859  0.89697895  1
  Al  Al3  1  0.88341807  0.20222485  0.66470728  1
  Al  Al4  1  0.45259541  0.08711576  0.39583527  1
  Al  Al5  1  0.54995526  0.19968132  0.14129952  1
  Al  Al6  1  0.11044868  0.08616442  0.84279040  1
  Al  Al7  1  0.88527038  0.20777722  0.13651549  1
  Al  Al8  1  0.45279990  0.08181331  0.90022991  1
  Al  Al9  1  0.56282153  0.18882862  0.65999632  1
  Al  Al10  1  0.12911702  0.41599275  0.33199307  1
  Al  Al11  1  0.21279429  0.54722511  0.08908662  1
  Al  Al12  1  0.76862480  0.43398137  0.89498354  1
  Al  Al13  1  0.88063731  0.54405008  0.65946542  1
  Al  Al14  1  0.43066490  0.43014851  0.32510985  1
  Al  Al15  1  0.55716267  0.53724069  0.15196908  1
  Al  Al16  1  0.10388969  0.43987711  0.84015644  1
  Al  Al17  1  0.21568190  0.54015411  0.58486365  1
  Al  Al18  1  0.80977583  0.41765420  0.39959085  1
  Al  Al19  1  0.11183363  0.75763930  0.33457958  1
  Al  Al20  1  0.22812270  0.86673798  0.07989655  1
  Al  Al21  1  0.76751571  0.77231351  0.89328922  1
  Al  Al22  1  0.89527508  0.86445530  0.60632605  1
  Al  Al23  1  0.43920692  0.76814935  0.33437521  1
  Al  Al24  1  0.55513058  0.88108594  0.15086508  1
  Al  Al25  1  0.10870636  0.76340562  0.83162051  1
  Al  Al26  1  0.20893767  0.87883524  0.57882650  1
  Al  Al27  1  0.78418399  0.74928951  0.40976087  1
  Al  Al28  1  0.89373418  0.87621109  0.08197082  1
  Al  Al29  1  0.43562164  0.77444540  0.81868327  1
  Al  Al30  1  0.56039354  0.87904678  0.64667801  1
  Gd  Gd31  1  0.21695264  0.20609406  0.60441945  1
  Gd  Gd32  1  0.77669122  0.10327306  0.39222218  1
  Gd  Gd33  1  0.88425582  0.54310079  0.12891219  1
  Gd  Gd34  1  0.44520264  0.43066279  0.87434789  1
  Gd  Gd35  1  0.54902335  0.53926420  0.59850182  1
  N  N36  1  0.22642207  0.19870877  0.38105323  1
  N  N37  1  0.12016264  0.08841849  0.12568204  1
  N  N38  1  0.87858150  0.21296346  0.85150417  1
  N  N39  1  0.77924437  0.09374332  0.61358427  1
  N  N40  1  0.52674922  0.21174833  0.32187786  1
  N  N41  1  0.44674209  0.08831929  0.08407763  1
  N  N42  1  0.21590719  0.21020185  0.88268706  1
  N  N43  1  0.09829051  0.07249987  0.65940019  1
  N  N44  1  0.90524129  0.22222539  0.31907368  1
  N  N45  1  0.77427411  0.09935857  0.09347047  1
  N  N46  1  0.57152737  0.16955240  0.84449716  1
  N  N47  1  0.48346585  0.07615790  0.57668672  1
  N  N48  1  0.22487713  0.53877257  0.39313756  1
  N  N49  1  0.14787249  0.40695988  0.14723668  1
  N  N50  1  0.87781803  0.54533851  0.85646097  1
  N  N51  1  0.82036409  0.40128108  0.58431752  1
  N  N52  1  0.56428279  0.53111022  0.35083185  1
  N  N53  1  0.43605360  0.43657941  0.12759012  1
  N  N54  1  0.18397330  0.56232092  0.90934139  1
  N  N55  1  0.09621204  0.46126755  0.65748228  1
  N  N56  1  0.89887202  0.53857379  0.35090645  1
  N  N57  1  0.75393354  0.41689066  0.07672092  1
  N  N58  1  0.56902998  0.55805817  0.82496302  1
  N  N59  1  0.42453721  0.40783041  0.64304711  1
  N  N60  1  0.21817409  0.87571621  0.38796175  1
  N  N61  1  0.10856336  0.76536166  0.14640242  1
  N  N62  1  0.89436012  0.87300086  0.87692051  1
  N  N63  1  0.77443767  0.75383755  0.59880911  1
  N  N64  1  0.56640137  0.86922793  0.33920850  1
  N  N65  1  0.44172259  0.76271167  0.14467985  1
  N  N66  1  0.22651818  0.86525010  0.89512606  1
  N  N67  1  0.11889911  0.75592000  0.64399278  1
  N  N68  1  0.90791815  0.84452127  0.39832758  1
  N  N69  1  0.75664676  0.79579798  0.07856345  1
  N  N70  1  0.55464889  0.87783872  0.83360032  1
  N  N71  1  0.41791356  0.80262283  0.63040456  1
