# generated using pymatgen
data_Gd5Al31N36
_symmetry_space_group_name_H-M   'P 1'
_cell_length_a   9.72484096
_cell_length_b   9.74010658
_cell_length_c   10.20252079
_cell_angle_alpha   89.87880879
_cell_angle_beta   89.78270198
_cell_angle_gamma   60.02917605
_symmetry_Int_Tables_number   1
_chemical_formula_structural   Gd5Al31N36
_chemical_formula_sum   'Gd5 Al31 N36'
_cell_volume   837.16064891
_cell_formula_units_Z   1
loop_
 _symmetry_equiv_pos_site_id
 _symmetry_equiv_pos_as_xyz
  1  'x, y, z'
loop_
 _atom_site_type_symbol
 _atom_site_label
 _atom_site_symmetry_multiplicity
 _atom_site_fract_x
 _atom_site_fract_y
 _atom_site_fract_z
 _atom_site_occupancy
  Al  Al0  1  0.11345510  0.09679882  0.30393242  1
  Al  Al1  1  0.22540845  0.20405110  0.05615224  1
  Al  Al2  1  0.78257418  0.08883068  0.81188771  1
  Al  Al3  1  0.89716627  0.20050650  0.56593000  1
  Al  Al4  1  0.43805404  0.09496560  0.29902835  1
  Al  Al5  1  0.55980126  0.19609978  0.06083723  1
  Al  Al6  1  0.10908055  0.08813055  0.81534147  1
  Al  Al7  1  0.88721435  0.20310140  0.05319761  1
  Al  Al8  1  0.45660506  0.08162055  0.81690725  1
  Al  Al9  1  0.55792571  0.19718172  0.56809938  1
  Al  Al10  1  0.11981186  0.42254408  0.30886242  1
  Al  Al11  1  0.21341434  0.54719943  0.06492812  1
  Al  Al12  1  0.78765860  0.42706040  0.80708282  1
  Al  Al13  1  0.89063843  0.54231488  0.55636385  1
  Al  Al14  1  0.43637204  0.43126559  0.29533291  1
  Al  Al15  1  0.55667878  0.54333746  0.06423417  1
  Al  Al16  1  0.09987324  0.44084698  0.80448654  1
  Al  Al17  1  0.21779644  0.54218723  0.55357352  1
  Al  Al18  1  0.78060201  0.42489617  0.30805139  1
  Al  Al19  1  0.11321383  0.75687088  0.31218955  1
  Al  Al20  1  0.22027571  0.87289762  0.06146257  1
  Al  Al21  1  0.77512829  0.76172482  0.80338749  1
  Al  Al22  1  0.89659551  0.86028448  0.56715440  1
  Al  Al23  1  0.44095645  0.76627861  0.30430941  1
  Al  Al24  1  0.55294569  0.87835530  0.06037987  1
  Al  Al25  1  0.10583901  0.76489674  0.81064881  1
  Al  Al26  1  0.21675537  0.87317210  0.56222497  1
  Al  Al27  1  0.77559335  0.76376946  0.31635524  1
  Al  Al28  1  0.88645677  0.87837245  0.05335890  1
  Al  Al29  1  0.44390710  0.77184243  0.81508715  1
  Al  Al30  1  0.55933672  0.87297250  0.56039129  1
  Gd  Gd31  1  0.22695464  0.20032958  0.57071000  1
  Gd  Gd32  1  0.78260124  0.09004417  0.31822245  1
  Gd  Gd33  1  0.88724765  0.54506355  0.06783302  1
  Gd  Gd34  1  0.43735249  0.42931273  0.83294544  1
  Gd  Gd35  1  0.55380575  0.53971800  0.56067788  1
  N  N36  1  0.22363044  0.20145523  0.34993054  1
  N  N37  1  0.10876619  0.09571089  0.11219315  1
  N  N38  1  0.88786156  0.20712293  0.86609158  1
  N  N39  1  0.78091530  0.09214665  0.61236848  1
  N  N40  1  0.52496145  0.21945202  0.35832703  1
  N  N41  1  0.44125012  0.09350785  0.11082452  1
  N  N42  1  0.22195027  0.20748670  0.85865839  1
  N  N43  1  0.09866229  0.07465800  0.63248062  1
  N  N44  1  0.90768489  0.21918208  0.37986774  1
  N  N45  1  0.78142202  0.09362376  0.09857750  1
  N  N46  1  0.57312486  0.17421161  0.87621490  1
  N  N47  1  0.47990891  0.07274271  0.63263211  1
  N  N48  1  0.22380622  0.54003577  0.36315318  1
  N  N49  1  0.14052676  0.41236716  0.12490230  1
  N  N50  1  0.88620531  0.54299757  0.85054051  1
  N  N51  1  0.80792222  0.41301662  0.62136136  1
  N  N52  1  0.55161329  0.54044507  0.34102081  1
  N  N53  1  0.44063308  0.43164396  0.09918603  1
  N  N54  1  0.18049944  0.56109514  0.88234935  1
  N  N55  1  0.09691089  0.45817342  0.61803337  1
  N  N56  1  0.88818901  0.53915773  0.35818296  1
  N  N57  1  0.76766329  0.40894542  0.12388259  1
  N  N58  1  0.57376096  0.55556326  0.87047195  1
  N  N59  1  0.42783035  0.40970458  0.61309261  1
  N  N60  1  0.22001658  0.87392981  0.36768814  1
  N  N61  1  0.10560075  0.76698063  0.12226716  1
  N  N62  1  0.88817736  0.87077234  0.86195184  1
  N  N63  1  0.77559445  0.75847633  0.61502997  1
  N  N64  1  0.55168538  0.87463013  0.36927499  1
  N  N65  1  0.44252162  0.76685741  0.11639134  1
  N  N66  1  0.22249034  0.86818775  0.87402906  1
  N  N67  1  0.11880831  0.75540479  0.62106750  1
  N  N68  1  0.90733171  0.83810356  0.38379999  1
  N  N69  1  0.76057935  0.79938958  0.13073399  1
  N  N70  1  0.56050351  0.86831530  0.87372928  1
  N  N71  1  0.42812605  0.79338547  0.62664195  1
