# generated using pymatgen
data_Gd5Al31N36
_symmetry_space_group_name_H-M   'P 1'
_cell_length_a   9.75194060
_cell_length_b   9.74558760
_cell_length_c   10.39685673
_cell_angle_alpha   89.99147006
_cell_angle_beta   90.37116699
_cell_angle_gamma   60.26053455
_symmetry_Int_Tables_number   1
_chemical_formula_structural   Gd5Al31N36
_chemical_formula_sum   'Gd5 Al31 N36'
_cell_volume   857.93341685
_cell_formula_units_Z   1
loop_
 _symmetry_equiv_pos_site_id
 _symmetry_equiv_pos_as_xyz
  1  'x, y, z'
loop_
 _atom_site_type_symbol
 _atom_site_label
 _atom_site_symmetry_multiplicity
 _atom_site_fract_x
 _atom_site_fract_y
 _atom_site_fract_z
 _atom_site_occupancy
  Al  Al0  1  0.12720854  0.09068119  0.29456091  1
  Al  Al1  1  0.22480008  0.20400912  0.05310565  1
  Al  Al2  1  0.77746458  0.09689895  0.87506466  1
  Al  Al3  1  0.88624165  0.19898374  0.63336152  1
  Al  Al4  1  0.45168370  0.08828285  0.36833529  1
  Al  Al5  1  0.54743358  0.20571910  0.11440737  1
  Al  Al6  1  0.10851786  0.08788787  0.81514336  1
  Al  Al7  1  0.88577255  0.20910048  0.11675740  1
  Al  Al8  1  0.45316625  0.08088763  0.87601079  1
  Al  Al9  1  0.56964862  0.18187365  0.62945676  1
  Al  Al10  1  0.13198675  0.41614029  0.30447548  1
  Al  Al11  1  0.21368625  0.54930554  0.06357606  1
  Al  Al12  1  0.77340369  0.42691165  0.87188998  1
  Al  Al13  1  0.88414070  0.54365160  0.63237008  1
  Al  Al14  1  0.43775946  0.43796209  0.29303998  1
  Al  Al15  1  0.54590317  0.55203655  0.05122345  1
  Al  Al16  1  0.10048924  0.43932186  0.81414536  1
  Al  Al17  1  0.21799451  0.54007667  0.55530688  1
  Al  Al18  1  0.80400447  0.42190214  0.37172114  1
  Al  Al19  1  0.11418219  0.75663524  0.30964401  1
  Al  Al20  1  0.22145629  0.87203633  0.05653993  1
  Al  Al21  1  0.76908926  0.77231743  0.85971396  1
  Al  Al22  1  0.89891173  0.85944458  0.56516052  1
  Al  Al23  1  0.44513750  0.75610274  0.30107319  1
  Al  Al24  1  0.55387312  0.88230202  0.12227021  1
  Al  Al25  1  0.10264003  0.76777273  0.80625157  1
  Al  Al26  1  0.21432432  0.87480013  0.55577658  1
  Al  Al27  1  0.78220477  0.74988541  0.36737037  1
  Al  Al28  1  0.89288138  0.87622754  0.05267539  1
  Al  Al29  1  0.42994304  0.77615252  0.80468581  1
  Al  Al30  1  0.56023248  0.87717728  0.62673904  1
  Gd  Gd31  1  0.21901378  0.20680642  0.57761196  1
  Gd  Gd32  1  0.77411409  0.10210037  0.35883194  1
  Gd  Gd33  1  0.89064691  0.54024588  0.09639241  1
  Gd  Gd34  1  0.42859477  0.42599405  0.83366007  1
  Gd  Gd35  1  0.55248399  0.53754463  0.56803975  1
  N  N36  1  0.22642000  0.19985248  0.35664871  1
  N  N37  1  0.11952992  0.09056779  0.10457494  1
  N  N38  1  0.87633980  0.21288723  0.81970816  1
  N  N39  1  0.78298046  0.09106146  0.57912433  1
  N  N40  1  0.52280452  0.21802575  0.29396871  1
  N  N41  1  0.44694098  0.09093138  0.05788122  1
  N  N42  1  0.21509699  0.21112868  0.85809897  1
  N  N43  1  0.10206912  0.07079316  0.63260018  1
  N  N44  1  0.90610002  0.22151558  0.29860812  1
  N  N45  1  0.77375643  0.10142631  0.07065371  1
  N  N46  1  0.57417590  0.16516172  0.81468948  1
  N  N47  1  0.48483324  0.07182919  0.54952613  1
  N  N48  1  0.22871664  0.53858693  0.36513360  1
  N  N49  1  0.15366943  0.40520048  0.12250151  1
  N  N50  1  0.87561958  0.54319681  0.82891233  1
  N  N51  1  0.82137058  0.40314813  0.56049614  1
  N  N52  1  0.56383620  0.53323403  0.34636852  1
  N  N53  1  0.43757591  0.44121246  0.09539329  1
  N  N54  1  0.17398739  0.56615096  0.88547953  1
  N  N55  1  0.09985953  0.46047807  0.63219957  1
  N  N56  1  0.89964230  0.53801753  0.32054131  1
  N  N57  1  0.76343773  0.41218113  0.05246931  1
  N  N58  1  0.55229966  0.56457567  0.85647020  1
  N  N59  1  0.42872829  0.40430601  0.61326437  1
  N  N60  1  0.22365095  0.87209135  0.36410077  1
  N  N61  1  0.10600809  0.76731349  0.12294403  1
  N  N62  1  0.89411762  0.87597712  0.86262354  1
  N  N63  1  0.77603763  0.75677757  0.58848025  1
  N  N64  1  0.56350260  0.87025101  0.31016450  1
  N  N65  1  0.43924360  0.76401400  0.11366842  1
  N  N66  1  0.21806643  0.87110712  0.87237065  1
  N  N67  1  0.11887287  0.75505089  0.61878358  1
  N  N68  1  0.91092244  0.83998891  0.37744869  1
  N  N69  1  0.75743025  0.79415247  0.05809961  1
  N  N70  1  0.55202773  0.87717564  0.81365062  1
  N  N71  1  0.42157829  0.79311956  0.61886114  1
