# generated using pymatgen
data_Gd5Al31N36
_symmetry_space_group_name_H-M   'P 1'
_cell_length_a   9.70892740
_cell_length_b   9.72060357
_cell_length_c   10.49634041
_cell_angle_alpha   90.13964429
_cell_angle_beta   90.39471231
_cell_angle_gamma   60.23384427
_symmetry_Int_Tables_number   1
_chemical_formula_structural   Gd5Al31N36
_chemical_formula_sum   'Gd5 Al31 N36'
_cell_volume   859.88620755
_cell_formula_units_Z   1
loop_
 _symmetry_equiv_pos_site_id
 _symmetry_equiv_pos_as_xyz
  1  'x, y, z'
loop_
 _atom_site_type_symbol
 _atom_site_label
 _atom_site_symmetry_multiplicity
 _atom_site_fract_x
 _atom_site_fract_y
 _atom_site_fract_z
 _atom_site_occupancy
  Al  Al0  1  0.12928841  0.08892671  0.31598806  1
  Al  Al1  1  0.22202668  0.20603474  0.07464827  1
  Al  Al2  1  0.77672196  0.09810626  0.89788447  1
  Al  Al3  1  0.88601587  0.19794286  0.65850450  1
  Al  Al4  1  0.45373911  0.08629584  0.39115170  1
  Al  Al5  1  0.54718754  0.20580577  0.13679049  1
  Al  Al6  1  0.10892011  0.08846557  0.83769284  1
  Al  Al7  1  0.88630785  0.20855421  0.13950451  1
  Al  Al8  1  0.45216937  0.08194030  0.89805986  1
  Al  Al9  1  0.56923819  0.18109443  0.65312483  1
  Al  Al10  1  0.13515957  0.41465661  0.32892370  1
  Al  Al11  1  0.21171064  0.54913622  0.08542646  1
  Al  Al12  1  0.77502467  0.42944215  0.89589787  1
  Al  Al13  1  0.88231343  0.54442511  0.65417504  1
  Al  Al14  1  0.43928543  0.43748211  0.31433091  1
  Al  Al15  1  0.54592599  0.55141336  0.07260767  1
  Al  Al16  1  0.09688194  0.44232894  0.83667518  1
  Al  Al17  1  0.21790351  0.53978347  0.57781814  1
  Al  Al18  1  0.80760171  0.41779557  0.39865627  1
  Al  Al19  1  0.11501389  0.75654341  0.33185421  1
  Al  Al20  1  0.22274995  0.87128613  0.07854574  1
  Al  Al21  1  0.76635259  0.77210643  0.89341543  1
  Al  Al22  1  0.90072575  0.85963255  0.58661747  1
  Al  Al23  1  0.44788720  0.75492886  0.32308612  1
  Al  Al24  1  0.55379969  0.88383754  0.14638007  1
  Al  Al25  1  0.10195949  0.76842237  0.82918584  1
  Al  Al26  1  0.21510116  0.87427838  0.57854953  1
  Al  Al27  1  0.78252893  0.74758234  0.40732566  1
  Al  Al28  1  0.89344945  0.87662926  0.07372638  1
  Al  Al29  1  0.43127692  0.77602325  0.82641973  1
  Al  Al30  1  0.56096842  0.87594406  0.64810547  1
  Gd  Gd31  1  0.21720361  0.20798024  0.59827147  1
  Gd  Gd32  1  0.77442901  0.10201936  0.38326383  1
  Gd  Gd33  1  0.88213524  0.54528317  0.13740906  1
  Gd  Gd34  1  0.42747458  0.42840203  0.85384710  1
  Gd  Gd35  1  0.55198260  0.53658730  0.58775661  1
  N  N36  1  0.22793116  0.19853549  0.37938410  1
  N  N37  1  0.12063882  0.08932281  0.12792071  1
  N  N38  1  0.87588233  0.21429329  0.84254091  1
  N  N39  1  0.78314145  0.08976535  0.60260421  1
  N  N40  1  0.52332119  0.21688436  0.31509009  1
  N  N41  1  0.44602882  0.09137289  0.07905220  1
  N  N42  1  0.21289174  0.21341822  0.88196569  1
  N  N43  1  0.10312080  0.06996871  0.65677226  1
  N  N44  1  0.90700022  0.22063374  0.32000005  1
  N  N45  1  0.77332562  0.10173825  0.09204976  1
  N  N46  1  0.57279813  0.16710427  0.83690853  1
  N  N47  1  0.48487799  0.07112578  0.57139151  1
  N  N48  1  0.23086226  0.53813859  0.38854683  1
  N  N49  1  0.14763046  0.40804625  0.14640396  1
  N  N50  1  0.87089141  0.54883131  0.84542284  1
  N  N51  1  0.82190589  0.40010501  0.58415316  1
  N  N52  1  0.56680300  0.53154239  0.36890063  1
  N  N53  1  0.43686419  0.44110902  0.11869892  1
  N  N54  1  0.17307789  0.56682902  0.90888443  1
  N  N55  1  0.09919193  0.46143620  0.65570751  1
  N  N56  1  0.90312010  0.53598944  0.35333964  1
  N  N57  1  0.76599744  0.41206083  0.07438538  1
  N  N58  1  0.55211046  0.56603045  0.88240370  1
  N  N59  1  0.42884883  0.40365813  0.63590885  1
  N  N60  1  0.22590607  0.87108024  0.38743500  1
  N  N61  1  0.10576770  0.76728724  0.14592580  1
  N  N62  1  0.89302305  0.87662843  0.88517214  1
  N  N63  1  0.77293704  0.75304075  0.59324168  1
  N  N64  1  0.56782888  0.86800889  0.33202834  1
  N  N65  1  0.44080165  0.76308742  0.13747519  1
  N  N66  1  0.21887701  0.87150189  0.89549173  1
  N  N67  1  0.11930785  0.75455487  0.64258479  1
  N  N68  1  0.91265862  0.84012027  0.40112085  1
  N  N69  1  0.75547499  0.79434582  0.07528606  1
  N  N70  1  0.55402013  0.87810985  0.83247084  1
  N  N71  1  0.42242143  0.79108326  0.64244834  1
