# generated using pymatgen
data_Gd5Al31N36
_symmetry_space_group_name_H-M   'P 1'
_cell_length_a   9.73848067
_cell_length_b   9.73698875
_cell_length_c   10.42331789
_cell_angle_alpha   90.04018537
_cell_angle_beta   90.36546509
_cell_angle_gamma   60.25709214
_symmetry_Int_Tables_number   1
_chemical_formula_structural   Gd5Al31N36
_chemical_formula_sum   'Gd5 Al31 N36'
_cell_volume   858.14600381
_cell_formula_units_Z   1
loop_
 _symmetry_equiv_pos_site_id
 _symmetry_equiv_pos_as_xyz
  1  'x, y, z'
loop_
 _atom_site_type_symbol
 _atom_site_label
 _atom_site_symmetry_multiplicity
 _atom_site_fract_x
 _atom_site_fract_y
 _atom_site_fract_z
 _atom_site_occupancy
  Al  Al0  1  0.12780613  0.09020483  0.29421819  1
  Al  Al1  1  0.22413222  0.20437679  0.05255339  1
  Al  Al2  1  0.77743080  0.09716875  0.87464787  1
  Al  Al3  1  0.88617386  0.19870843  0.63396107  1
  Al  Al4  1  0.45240431  0.08737737  0.36817315  1
  Al  Al5  1  0.54710124  0.20582964  0.11419781  1
  Al  Al6  1  0.10866755  0.08801737  0.81495738  1
  Al  Al7  1  0.88607925  0.20880579  0.11655764  1
  Al  Al8  1  0.45319371  0.08086206  0.87526238  1
  Al  Al9  1  0.56939869  0.18179235  0.62969816  1
  Al  Al10  1  0.13284664  0.41573814  0.30547435  1
  Al  Al11  1  0.21303025  0.54913446  0.06319025  1
  Al  Al12  1  0.77417927  0.42826839  0.87203128  1
  Al  Al13  1  0.88299318  0.54435200  0.63167444  1
  Al  Al14  1  0.43813527  0.43794212  0.29275250  1
  Al  Al15  1  0.54604647  0.55184386  0.05065557  1
  Al  Al16  1  0.09868382  0.44103214  0.81407432  1
  Al  Al17  1  0.21792899  0.54001632  0.55510850  1
  Al  Al18  1  0.80500464  0.42054559  0.37321994  1
  Al  Al19  1  0.11419415  0.75681198  0.30934764  1
  Al  Al20  1  0.22214899  0.87170496  0.05620188  1
  Al  Al21  1  0.76700278  0.77265903  0.86898245  1
  Al  Al22  1  0.90009582  0.86003816  0.56399061  1
  Al  Al23  1  0.44627949  0.75599395  0.30092796  1
  Al  Al24  1  0.55451947  0.88247521  0.12340194  1
  Al  Al25  1  0.10251815  0.76790419  0.80614963  1
  Al  Al26  1  0.21456915  0.87476920  0.55537863  1
  Al  Al27  1  0.78191156  0.74809652  0.38121960  1
  Al  Al28  1  0.89342742  0.87642471  0.05203104  1
  Al  Al29  1  0.43072618  0.77621178  0.80391751  1
  Al  Al30  1  0.56104763  0.87612728  0.62514138  1
  Gd  Gd31  1  0.21860657  0.20732864  0.57732746  1
  Gd  Gd32  1  0.77410016  0.10185093  0.35876326  1
  Gd  Gd33  1  0.88725393  0.54225308  0.10517079  1
  Gd  Gd34  1  0.42836316  0.42672144  0.83310533  1
  Gd  Gd35  1  0.55229189  0.53722830  0.56733185  1
  N  N36  1  0.22688441  0.19944737  0.35679341  1
  N  N37  1  0.11990867  0.09007694  0.10461557  1
  N  N38  1  0.87632923  0.21351937  0.81975909  1
  N  N39  1  0.78295113  0.09055947  0.57939662  1
  N  N40  1  0.52255446  0.21791161  0.29337631  1
  N  N41  1  0.44698527  0.09049578  0.05714462  1
  N  N42  1  0.21452669  0.21186088  0.85811396  1
  N  N43  1  0.10233321  0.07057783  0.63277466  1
  N  N44  1  0.90633461  0.22132863  0.29804734  1
  N  N45  1  0.77363890  0.10122089  0.07048086  1
  N  N46  1  0.57381568  0.16590945  0.81458884  1
  N  N47  1  0.48495128  0.07160531  0.54928251  1
  N  N48  1  0.22925490  0.53856882  0.36523437  1
  N  N49  1  0.15144108  0.40605451  0.12272562  1
  N  N50  1  0.87305607  0.54683401  0.82587126  1
  N  N51  1  0.82134899  0.40206585  0.56094259  1
  N  N52  1  0.56461217  0.53284752  0.34640711  1
  N  N53  1  0.43739693  0.44115616  0.09532426  1
  N  N54  1  0.17383294  0.56640589  0.88555050  1
  N  N55  1  0.09904874  0.46139708  0.63225815  1
  N  N56  1  0.90043599  0.53777818  0.32456645  1
  N  N57  1  0.76457458  0.41220060  0.05201011  1
  N  N58  1  0.55238848  0.56512632  0.85718464  1
  N  N59  1  0.42856755  0.40415925  0.61324146  1
  N  N60  1  0.22443547  0.87182584  0.36400238  1
  N  N61  1  0.10596588  0.76715457  0.12274960  1
  N  N62  1  0.89373416  0.87616476  0.86187937  1
  N  N63  1  0.77367272  0.75358998  0.57249208  1
  N  N64  1  0.56576138  0.86913697  0.30998921  1
  N  N65  1  0.44005456  0.76366920  0.11385881  1
  N  N66  1  0.21868609  0.87115969  0.87227802  1
  N  N67  1  0.11898875  0.75491783  0.61897082  1
  N  N68  1  0.91159845  0.84036424  0.37723488  1
  N  N69  1  0.75609022  0.79429726  0.05332144  1
  N  N70  1  0.55414240  0.87697194  0.81089332  1
  N  N71  1  0.42168961  0.79269055  0.61873953  1
