# generated using pymatgen
data_Gd5Al31N36
_symmetry_space_group_name_H-M   'P 1'
_cell_length_a   9.70823718
_cell_length_b   9.71434341
_cell_length_c   10.23503065
_cell_angle_alpha   90.05007050
_cell_angle_beta   90.08566492
_cell_angle_gamma   59.97743763
_symmetry_Int_Tables_number   1
_chemical_formula_structural   Gd5Al31N36
_chemical_formula_sum   'Gd5 Al31 N36'
_cell_volume   835.74605627
_cell_formula_units_Z   1
loop_
 _symmetry_equiv_pos_site_id
 _symmetry_equiv_pos_as_xyz
  1  'x, y, z'
loop_
 _atom_site_type_symbol
 _atom_site_label
 _atom_site_symmetry_multiplicity
 _atom_site_fract_x
 _atom_site_fract_y
 _atom_site_fract_z
 _atom_site_occupancy
  Al  Al0  1  0.11094671  0.09251333  0.39944557  1
  Al  Al1  1  0.22934812  0.20197015  0.15906978  1
  Al  Al2  1  0.78152921  0.08752082  0.90865915  1
  Al  Al3  1  0.89269309  0.19773748  0.66726537  1
  Al  Al4  1  0.45012247  0.08899285  0.40279942  1
  Al  Al5  1  0.55238087  0.20584191  0.16030614  1
  Al  Al6  1  0.11297036  0.09297689  0.91413955  1
  Al  Al7  1  0.88896343  0.20581208  0.14992792  1
  Al  Al8  1  0.44630951  0.08714592  0.91508563  1
  Al  Al9  1  0.56167343  0.19245856  0.66323024  1
  Al  Al10  1  0.10760309  0.43462383  0.41106837  1
  Al  Al11  1  0.22541662  0.54036169  0.16591108  1
  Al  Al12  1  0.77684511  0.42830693  0.90660532  1
  Al  Al13  1  0.89264207  0.54038668  0.66195860  1
  Al  Al14  1  0.43424904  0.42341180  0.40488095  1
  Al  Al15  1  0.55400580  0.53906973  0.16960497  1
  Al  Al16  1  0.11289595  0.42692572  0.90836106  1
  Al  Al17  1  0.20946834  0.54590426  0.65407596  1
  Al  Al18  1  0.79363854  0.42360156  0.41237056  1
  Al  Al19  1  0.11352310  0.75589935  0.40644810  1
  Al  Al20  1  0.22177401  0.87112994  0.15529880  1
  Al  Al21  1  0.77187674  0.76954860  0.90227741  1
  Al  Al22  1  0.89105146  0.86992855  0.66551570  1
  Al  Al23  1  0.43705513  0.77556179  0.40252587  1
  Al  Al24  1  0.55397656  0.87743729  0.15661615  1
  Al  Al25  1  0.10590784  0.76416071  0.90686703  1
  Al  Al26  1  0.21221076  0.87588877  0.65472777  1
  Al  Al27  1  0.77925976  0.75687576  0.41467366  1
  Al  Al28  1  0.88963706  0.87136803  0.15227267  1
  Al  Al29  1  0.44531569  0.76714912  0.91013547  1
  Al  Al30  1  0.55857876  0.87566750  0.65730606  1
  Gd  Gd31  1  0.22618657  0.19722337  0.64493344  1
  Gd  Gd32  1  0.78503985  0.09230329  0.40630114  1
  Gd  Gd33  1  0.88823312  0.54141293  0.14960335  1
  Gd  Gd34  1  0.44089296  0.43051357  0.91060608  1
  Gd  Gd35  1  0.55328215  0.54559056  0.63446392  1
  N  N36  1  0.22433074  0.20434621  0.35744546  1
  N  N37  1  0.11391112  0.09313491  0.10121331  1
  N  N38  1  0.89166656  0.20383820  0.85608080  1
  N  N39  1  0.77972549  0.09300025  0.62550645  1
  N  N40  1  0.53338753  0.21393901  0.34216211  1
  N  N41  1  0.44506040  0.09338913  0.10286305  1
  N  N42  1  0.22377436  0.20313811  0.86620915  1
  N  N43  1  0.08835278  0.07843263  0.58413096  1
  N  N44  1  0.90385106  0.22349282  0.33220861  1
  N  N45  1  0.77855449  0.09365986  0.10476755  1
  N  N46  1  0.56710893  0.17637352  0.85031483  1
  N  N47  1  0.48165322  0.07560117  0.58507983  1
  N  N48  1  0.21850075  0.54061764  0.35195595  1
  N  N49  1  0.14534724  0.41392432  0.09446907  1
  N  N50  1  0.88955616  0.53875190  0.85879082  1
  N  N51  1  0.81451201  0.40609038  0.59926756  1
  N  N52  1  0.55753281  0.53989299  0.36785307  1
  N  N53  1  0.44437219  0.43185101  0.12887301  1
  N  N54  1  0.19104462  0.55593962  0.83855395  1
  N  N55  1  0.09643948  0.45327229  0.59401713  1
  N  N56  1  0.88782652  0.54209772  0.36696062  1
  N  N57  1  0.75809689  0.41637603  0.09069894  1
  N  N58  1  0.56636310  0.55764320  0.85077389  1
  N  N59  1  0.42698282  0.40781860  0.59928135  1
  N  N60  1  0.21880759  0.87098511  0.34248606  1
  N  N61  1  0.11332076  0.75874306  0.09641291  1
  N  N62  1  0.89081055  0.87122999  0.85189162  1
  N  N63  1  0.77810499  0.75992306  0.60652776  1
  N  N64  1  0.56088601  0.86910551  0.34431893  1
  N  N65  1  0.44526750  0.76169190  0.10329382  1
  N  N66  1  0.22133597  0.87259337  0.84896452  1
  N  N67  1  0.10946030  0.76223158  0.59614245  1
  N  N68  1  0.90311371  0.83981122  0.33876623  1
  N  N69  1  0.75998408  0.79336300  0.08548844  1
  N  N70  1  0.55097671  0.87533779  0.84666049  1
  N  N71  1  0.42045044  0.80640620  0.58776495  1
