# generated using pymatgen
data_Gd5Al31N36
_symmetry_space_group_name_H-M   'P 1'
_cell_length_a   9.74898146
_cell_length_b   9.72607772
_cell_length_c   10.44274056
_cell_angle_alpha   89.79892433
_cell_angle_beta   90.34608169
_cell_angle_gamma   60.23062819
_symmetry_Int_Tables_number   1
_chemical_formula_structural   Gd5Al31N36
_chemical_formula_sum   'Gd5 Al31 N36'
_cell_volume   859.46178194
_cell_formula_units_Z   1
loop_
 _symmetry_equiv_pos_site_id
 _symmetry_equiv_pos_as_xyz
  1  'x, y, z'
loop_
 _atom_site_type_symbol
 _atom_site_label
 _atom_site_symmetry_multiplicity
 _atom_site_fract_x
 _atom_site_fract_y
 _atom_site_fract_z
 _atom_site_occupancy
  Al  Al0  1  0.12702207  0.09107429  0.29490148  1
  Al  Al1  1  0.22471144  0.20471574  0.05136896  1
  Al  Al2  1  0.77760692  0.09451398  0.87664855  1
  Al  Al3  1  0.88651755  0.19896758  0.63404629  1
  Al  Al4  1  0.44937125  0.08883644  0.37018428  1
  Al  Al5  1  0.54905390  0.20446307  0.11457646  1
  Al  Al6  1  0.10871526  0.08763527  0.81547243  1
  Al  Al7  1  0.88657113  0.20990127  0.11640290  1
  Al  Al8  1  0.45563773  0.07746407  0.87527843  1
  Al  Al9  1  0.57056163  0.18118708  0.63069457  1
  Al  Al10  1  0.12844957  0.41730802  0.30574642  1
  Al  Al11  1  0.21409037  0.54837486  0.06343068  1
  Al  Al12  1  0.77423257  0.42710546  0.87317639  1
  Al  Al13  1  0.89231912  0.54419523  0.58161875  1
  Al  Al14  1  0.43608486  0.43712351  0.29216733  1
  Al  Al15  1  0.54666202  0.55155054  0.05229910  1
  Al  Al16  1  0.09435040  0.44173149  0.81005683  1
  Al  Al17  1  0.21935587  0.54049905  0.55496342  1
  Al  Al18  1  0.79932940  0.42294524  0.36530307  1
  Al  Al19  1  0.11363902  0.75709936  0.31040030  1
  Al  Al20  1  0.22213471  0.87158454  0.05694586  1
  Al  Al21  1  0.78019087  0.76282331  0.80773745  1
  Al  Al22  1  0.89873731  0.85904916  0.56226066  1
  Al  Al23  1  0.44217441  0.75626484  0.30309149  1
  Al  Al24  1  0.54739023  0.88749364  0.12988207  1
  Al  Al25  1  0.10102122  0.76698279  0.80930240  1
  Al  Al26  1  0.21318766  0.87444103  0.55678154  1
  Al  Al27  1  0.78353488  0.76240823  0.31041299  1
  Al  Al28  1  0.89108635  0.87703761  0.05848864  1
  Al  Al29  1  0.43096880  0.77432894  0.80564577  1
  Al  Al30  1  0.55732595  0.87748811  0.62467935  1
  Gd  Gd31  1  0.22116516  0.20429396  0.57929576  1
  Gd  Gd32  1  0.77263224  0.10457499  0.36108304  1
  Gd  Gd33  1  0.89326427  0.54634685  0.07871773  1
  Gd  Gd34  1  0.42891387  0.42442772  0.83447155  1
  Gd  Gd35  1  0.55318252  0.53578028  0.56745085  1
  N  N36  1  0.22423024  0.20097565  0.35960031  1
  N  N37  1  0.12114927  0.09016918  0.10498891  1
  N  N38  1  0.87594933  0.21229877  0.81985826  1
  N  N39  1  0.78353368  0.09090397  0.57986508  1
  N  N40  1  0.52248856  0.21621547  0.29319501  1
  N  N41  1  0.44830022  0.09045103  0.05589058  1
  N  N42  1  0.21544873  0.21088768  0.85661291  1
  N  N43  1  0.10221077  0.07026268  0.63381322  1
  N  N44  1  0.90576005  0.22092367  0.29669886  1
  N  N45  1  0.77382615  0.10365672  0.06818119  1
  N  N46  1  0.57538072  0.16321119  0.81385805  1
  N  N47  1  0.48597837  0.07189009  0.55006250  1
  N  N48  1  0.22837152  0.53847428  0.36585391  1
  N  N49  1  0.15165821  0.40527087  0.12489372  1
  N  N50  1  0.87887202  0.54234336  0.84793384  1
  N  N51  1  0.82060528  0.40072698  0.55465619  1
  N  N52  1  0.56172751  0.53190291  0.34586792  1
  N  N53  1  0.43758469  0.44035693  0.09542683  1
  N  N54  1  0.17429257  0.56334146  0.88508027  1
  N  N55  1  0.09872367  0.46078615  0.62831086  1
  N  N56  1  0.89984474  0.54058123  0.33527296  1
  N  N57  1  0.76457324  0.41505941  0.05584037  1
  N  N58  1  0.55274050  0.56274589  0.85820297  1
  N  N59  1  0.42854529  0.40404678  0.61453228  1
  N  N60  1  0.22148948  0.87218585  0.36568702  1
  N  N61  1  0.10759685  0.76671502  0.12373622  1
  N  N62  1  0.89015554  0.86966902  0.87072778  1
  N  N63  1  0.78180092  0.75961001  0.61962729  1
  N  N64  1  0.55185013  0.87352150  0.31691904  1
  N  N65  1  0.43992633  0.76368209  0.11472313  1
  N  N66  1  0.21757909  0.87017937  0.87315644  1
  N  N67  1  0.11740359  0.75537810  0.62089141  1
  N  N68  1  0.90922551  0.84064775  0.37957416  1
  N  N69  1  0.76665498  0.80123238  0.12702862  1
  N  N70  1  0.55410215  0.87368458  0.81475966  1
  N  N71  1  0.42149449  0.79169372  0.61942116  1
