# generated using pymatgen
data_Gd5Al31N36
_symmetry_space_group_name_H-M   'P 1'
_cell_length_a   9.70824230
_cell_length_b   9.71432572
_cell_length_c   10.23503201
_cell_angle_alpha   90.04898574
_cell_angle_beta   90.08514203
_cell_angle_gamma   59.97870714
_symmetry_Int_Tables_number   1
_chemical_formula_structural   Gd5Al31N36
_chemical_formula_sum   'Gd5 Al31 N36'
_cell_volume   835.75580065
_cell_formula_units_Z   1
loop_
 _symmetry_equiv_pos_site_id
 _symmetry_equiv_pos_as_xyz
  1  'x, y, z'
loop_
 _atom_site_type_symbol
 _atom_site_label
 _atom_site_symmetry_multiplicity
 _atom_site_fract_x
 _atom_site_fract_y
 _atom_site_fract_z
 _atom_site_occupancy
  Al  Al0  1  0.11095896  0.09251358  0.40322124  1
  Al  Al1  1  0.22935688  0.20196199  0.16283050  1
  Al  Al2  1  0.78155015  0.08752050  0.91241695  1
  Al  Al3  1  0.89273372  0.19773161  0.67102452  1
  Al  Al4  1  0.45014079  0.08897055  0.40654930  1
  Al  Al5  1  0.55238773  0.20583176  0.16405290  1
  Al  Al6  1  0.11298037  0.09298598  0.91790233  1
  Al  Al7  1  0.88896905  0.20580574  0.15369293  1
  Al  Al8  1  0.44632756  0.08713497  0.91884722  1
  Al  Al9  1  0.56171973  0.19241269  0.66699070  1
  Al  Al10  1  0.10758798  0.43462300  0.41482311  1
  Al  Al11  1  0.22540938  0.54035485  0.16966468  1
  Al  Al12  1  0.77682944  0.42831217  0.91036416  1
  Al  Al13  1  0.89263649  0.54038022  0.66572510  1
  Al  Al14  1  0.43423297  0.42339065  0.40863440  1
  Al  Al15  1  0.55399440  0.53905616  0.17336594  1
  Al  Al16  1  0.11288766  0.42693100  0.91212170  1
  Al  Al17  1  0.20946019  0.54589927  0.65783387  1
  Al  Al18  1  0.79363255  0.42359780  0.41613730  1
  Al  Al19  1  0.11352338  0.75589897  0.41021258  1
  Al  Al20  1  0.22177509  0.87112608  0.15907501  1
  Al  Al21  1  0.77187988  0.76955421  0.90603789  1
  Al  Al22  1  0.89107662  0.86991976  0.66927507  1
  Al  Al23  1  0.43706603  0.77553759  0.40629477  1
  Al  Al24  1  0.55398330  0.87742345  0.16037965  1
  Al  Al25  1  0.10591318  0.76416465  0.91063102  1
  Al  Al26  1  0.21224198  0.87588237  0.65850064  1
  Al  Al27  1  0.77926478  0.75687262  0.41843835  1
  Al  Al28  1  0.88963940  0.87136361  0.15603695  1
  Al  Al29  1  0.44531547  0.76714551  0.91390213  1
  Al  Al30  1  0.55860906  0.87562503  0.66106753  1
  Gd  Gd31  1  0.22624954  0.19722675  0.64869530  1
  Gd  Gd32  1  0.78502907  0.09231233  0.41005781  1
  Gd  Gd33  1  0.88822121  0.54140347  0.15336060  1
  Gd  Gd34  1  0.44089059  0.43049719  0.91435786  1
  Gd  Gd35  1  0.55328062  0.54554148  0.63822098  1
  N  N36  1  0.22434360  0.20434091  0.36120653  1
  N  N37  1  0.11391710  0.09312903  0.10497765  1
  N  N38  1  0.89168200  0.20384479  0.85984333  1
  N  N39  1  0.77976562  0.09299043  0.62926495  1
  N  N40  1  0.53338622  0.21392987  0.34590608  1
  N  N41  1  0.44506583  0.09337527  0.10662172  1
  N  N42  1  0.22379030  0.20314461  0.86997174  1
  N  N43  1  0.08841321  0.07843673  0.58791693  1
  N  N44  1  0.90386621  0.22348521  0.33597593  1
  N  N45  1  0.77856543  0.09365104  0.10852614  1
  N  N46  1  0.56713529  0.17635525  0.85407308  1
  N  N47  1  0.48171345  0.07554765  0.58882376  1
  N  N48  1  0.21848700  0.54061833  0.35571044  1
  N  N49  1  0.14533373  0.41391919  0.09822907  1
  N  N50  1  0.88954973  0.53875597  0.86255684  1
  N  N51  1  0.81450251  0.40609135  0.60303146  1
  N  N52  1  0.55752408  0.53987155  0.37161561  1
  N  N53  1  0.44435745  0.43184442  0.13261942  1
  N  N54  1  0.19103595  0.55594640  0.84231315  1
  N  N55  1  0.09642689  0.45327370  0.59777360  1
  N  N56  1  0.88781662  0.54209998  0.37071525  1
  N  N57  1  0.75808381  0.41636637  0.09445754  1
  N  N58  1  0.56634802  0.55764342  0.85453282  1
  N  N59  1  0.42696617  0.40776932  0.60303802  1
  N  N60  1  0.21881288  0.87098355  0.34625980  1
  N  N61  1  0.11332163  0.75874015  0.10017756  1
  N  N62  1  0.89082554  0.87122782  0.85565416  1
  N  N63  1  0.77813161  0.75990924  0.61029483  1
  N  N64  1  0.56089289  0.86908518  0.34807925  1
  N  N65  1  0.44526540  0.76168354  0.10706293  1
  N  N66  1  0.22134043  0.87260063  0.85273564  1
  N  N67  1  0.10948493  0.76222498  0.59990738  1
  N  N68  1  0.90311441  0.83981762  0.34253348  1
  N  N69  1  0.75998965  0.79335452  0.08925042  1
  N  N70  1  0.55098222  0.87533111  0.85042437  1
  N  N71  1  0.42048783  0.80635218  0.59153614  1
