# generated using pymatgen
data_Gd5Al31N36
_symmetry_space_group_name_H-M   'P 1'
_cell_length_a   9.75670565
_cell_length_b   9.74721532
_cell_length_c   10.39740045
_cell_angle_alpha   89.95097247
_cell_angle_beta   90.37272780
_cell_angle_gamma   60.26921222
_symmetry_Int_Tables_number   1
_chemical_formula_structural   Gd5Al31N36
_chemical_formula_sum   'Gd5 Al31 N36'
_cell_volume   858.61196079
_cell_formula_units_Z   1
loop_
 _symmetry_equiv_pos_site_id
 _symmetry_equiv_pos_as_xyz
  1  'x, y, z'
loop_
 _atom_site_type_symbol
 _atom_site_label
 _atom_site_symmetry_multiplicity
 _atom_site_fract_x
 _atom_site_fract_y
 _atom_site_fract_z
 _atom_site_occupancy
  Al  Al0  1  0.12695496  0.09089706  0.29461545  1
  Al  Al1  1  0.22488297  0.20413169  0.05318485  1
  Al  Al2  1  0.77734341  0.09670257  0.87590948  1
  Al  Al3  1  0.88627720  0.19887272  0.63328186  1
  Al  Al4  1  0.45113375  0.08866709  0.36865121  1
  Al  Al5  1  0.54793396  0.20537757  0.11450232  1
  Al  Al6  1  0.10849420  0.08794632  0.81518990  1
  Al  Al7  1  0.88553825  0.20947369  0.11682953  1
  Al  Al8  1  0.45333393  0.08070619  0.87649716  1
  Al  Al9  1  0.56988435  0.18186350  0.62947214  1
  Al  Al10  1  0.13143416  0.41621002  0.30392213  1
  Al  Al11  1  0.21392205  0.54940317  0.06384431  1
  Al  Al12  1  0.77300853  0.42613099  0.87206273  1
  Al  Al13  1  0.88533656  0.54206578  0.63174601  1
  Al  Al14  1  0.43760197  0.43789189  0.29293916  1
  Al  Al15  1  0.54592705  0.55207153  0.05152056  1
  Al  Al16  1  0.10140713  0.43828581  0.81408904  1
  Al  Al17  1  0.21796713  0.54021783  0.55529034  1
  Al  Al18  1  0.80362154  0.42251226  0.37092649  1
  Al  Al19  1  0.11419973  0.75639566  0.30985472  1
  Al  Al20  1  0.22112558  0.87211845  0.05676292  1
  Al  Al21  1  0.77352424  0.77098513  0.83000667  1
  Al  Al22  1  0.89801098  0.85843793  0.56514691  1
  Al  Al23  1  0.44432021  0.75603310  0.30141572  1
  Al  Al24  1  0.55143244  0.88372067  0.12276702  1
  Al  Al25  1  0.10239441  0.76784724  0.80679677  1
  Al  Al26  1  0.21400639  0.87489495  0.55595909  1
  Al  Al27  1  0.78359936  0.75324612  0.33635362  1
  Al  Al28  1  0.89196028  0.87585001  0.05368412  1
  Al  Al29  1  0.42962064  0.77602671  0.80538411  1
  Al  Al30  1  0.55823084  0.87850813  0.62720299  1
  Gd  Gd31  1  0.21921250  0.20664623  0.57756684  1
  Gd  Gd32  1  0.77402956  0.10219385  0.35895690  1
  Gd  Gd33  1  0.89256758  0.53987690  0.08950360  1
  Gd  Gd34  1  0.42873040  0.42560812  0.83394075  1
  Gd  Gd35  1  0.55230941  0.53748873  0.56805486  1
  N  N36  1  0.22615533  0.20000760  0.35682823  1
  N  N37  1  0.11951467  0.09076189  0.10465493  1
  N  N38  1  0.87631943  0.21238376  0.81953702  1
  N  N39  1  0.78310577  0.09110830  0.57878594  1
  N  N40  1  0.52304004  0.21779152  0.29415646  1
  N  N41  1  0.44676925  0.09146611  0.05785281  1
  N  N42  1  0.21529254  0.21089477  0.85802105  1
  N  N43  1  0.10205677  0.07096026  0.63259477  1
  N  N44  1  0.90592424  0.22138546  0.29884682  1
  N  N45  1  0.77383088  0.10209402  0.07013558  1
  N  N46  1  0.57448183  0.16465325  0.81443914  1
  N  N47  1  0.48503718  0.07185081  0.54956621  1
  N  N48  1  0.22857071  0.53854848  0.36522602  1
  N  N49  1  0.15462787  0.40483849  0.12266289  1
  N  N50  1  0.87748482  0.54011545  0.83087670  1
  N  N51  1  0.82112415  0.40371551  0.56014011  1
  N  N52  1  0.56351655  0.53316489  0.34642296  1
  N  N53  1  0.43761844  0.44118354  0.09544844  1
  N  N54  1  0.17400276  0.56592517  0.88547558  1
  N  N55  1  0.10019110  0.46014456  0.63202413  1
  N  N56  1  0.90025809  0.53677621  0.31949264  1
  N  N57  1  0.76278176  0.41242589  0.05273306  1
  N  N58  1  0.55221669  0.56423056  0.85620698  1
  N  N59  1  0.42862819  0.40429820  0.61337129  1
  N  N60  1  0.22290574  0.87217442  0.36438522  1
  N  N61  1  0.10629096  0.76747661  0.12323240  1
  N  N62  1  0.89323352  0.87487796  0.86511714  1
  N  N63  1  0.77889880  0.76074162  0.61579738  1
  N  N64  1  0.55950313  0.87163092  0.31195706  1
  N  N65  1  0.43882052  0.76411065  0.11375052  1
  N  N66  1  0.21753388  0.87113942  0.87245242  1
  N  N67  1  0.11851746  0.75531456  0.61895733  1
  N  N68  1  0.90970142  0.83870345  0.37883120  1
  N  N69  1  0.76118213  0.79502667  0.08374177  1
  N  N70  1  0.55029720  0.87731690  0.81630579  1
  N  N71  1  0.42157304  0.79312282  0.61903674  1
