# generated using pymatgen
data_Gd5Al31N36
_symmetry_space_group_name_H-M   'P 1'
_cell_length_a   9.70657915
_cell_length_b   9.71793456
_cell_length_c   10.23432836
_cell_angle_alpha   89.87800866
_cell_angle_beta   90.04259214
_cell_angle_gamma   60.03906129
_symmetry_Int_Tables_number   1
_chemical_formula_structural   Gd5Al31N36
_chemical_formula_sum   'Gd5 Al31 N36'
_cell_volume   836.37111818
_cell_formula_units_Z   1
loop_
 _symmetry_equiv_pos_site_id
 _symmetry_equiv_pos_as_xyz
  1  'x, y, z'
loop_
 _atom_site_type_symbol
 _atom_site_label
 _atom_site_symmetry_multiplicity
 _atom_site_fract_x
 _atom_site_fract_y
 _atom_site_fract_z
 _atom_site_occupancy
  Al  Al0  1  0.11488889  0.09524953  0.29512242  1
  Al  Al1  1  0.22761407  0.20300407  0.04916687  1
  Al  Al2  1  0.78049807  0.08953335  0.79846283  1
  Al  Al3  1  0.89476450  0.20082391  0.55707493  1
  Al  Al4  1  0.43957593  0.09395375  0.29450806  1
  Al  Al5  1  0.56108275  0.19523969  0.04899067  1
  Al  Al6  1  0.10804263  0.08833597  0.80755010  1
  Al  Al7  1  0.88767152  0.20199530  0.04384053  1
  Al  Al8  1  0.45586598  0.08270783  0.80491752  1
  Al  Al9  1  0.55309384  0.20190867  0.54942764  1
  Al  Al10  1  0.11892358  0.42232733  0.30007070  1
  Al  Al11  1  0.21681558  0.54392905  0.05711708  1
  Al  Al12  1  0.78689757  0.42702453  0.79869725  1
  Al  Al13  1  0.89059965  0.54339219  0.54935295  1
  Al  Al14  1  0.43763198  0.42830644  0.29140271  1
  Al  Al15  1  0.55680301  0.54026951  0.05717591  1
  Al  Al16  1  0.10024651  0.44059271  0.79734441  1
  Al  Al17  1  0.21623331  0.54446608  0.54452369  1
  Al  Al18  1  0.78193566  0.42342328  0.29979015  1
  Al  Al19  1  0.11426894  0.75571935  0.30302302  1
  Al  Al20  1  0.22116880  0.87178062  0.05300928  1
  Al  Al21  1  0.77452004  0.76265096  0.79498726  1
  Al  Al22  1  0.89473447  0.86273574  0.55819428  1
  Al  Al23  1  0.44195673  0.76497669  0.29519985  1
  Al  Al24  1  0.55342975  0.87943984  0.05293015  1
  Al  Al25  1  0.10568909  0.76488182  0.80250233  1
  Al  Al26  1  0.21548883  0.87402604  0.55490057  1
  Al  Al27  1  0.77665564  0.76272113  0.30809929  1
  Al  Al28  1  0.88745884  0.87767686  0.04391665  1
  Al  Al29  1  0.44311545  0.77275504  0.80855037  1
  Al  Al30  1  0.55758002  0.87610217  0.55267234  1
  Gd  Gd31  1  0.22209008  0.20167458  0.56218239  1
  Gd  Gd32  1  0.78301316  0.08943109  0.30819617  1
  Gd  Gd33  1  0.88638027  0.54483713  0.05846148  1
  Gd  Gd34  1  0.43747915  0.42892468  0.81825876  1
  Gd  Gd35  1  0.55412601  0.54504988  0.55127779  1
  N  N36  1  0.22432710  0.20096285  0.34199566  1
  N  N37  1  0.11010895  0.09456734  0.10392871  1
  N  N38  1  0.88642323  0.20704235  0.85720308  1
  N  N39  1  0.77674308  0.09450846  0.60104402  1
  N  N40  1  0.52601171  0.21742309  0.36071604  1
  N  N41  1  0.44394214  0.09409215  0.10666347  1
  N  N42  1  0.22246136  0.20702757  0.85118156  1
  N  N43  1  0.09564247  0.07479980  0.62554818  1
  N  N44  1  0.90939743  0.21703122  0.37161920  1
  N  N45  1  0.78196029  0.09266402  0.08992716  1
  N  N46  1  0.57256854  0.17448821  0.86619305  1
  N  N47  1  0.47652308  0.07805443  0.62140354  1
  N  N48  1  0.22344523  0.53882294  0.35480784  1
  N  N49  1  0.13978603  0.41201706  0.11671645  1
  N  N50  1  0.88588058  0.54338810  0.84192288  1
  N  N51  1  0.80823977  0.41317254  0.61334952  1
  N  N52  1  0.55311938  0.53860465  0.33267071  1
  N  N53  1  0.44336285  0.42658990  0.09525524  1
  N  N54  1  0.18294428  0.55994401  0.87479628  1
  N  N55  1  0.09736239  0.45916466  0.61148535  1
  N  N56  1  0.88878952  0.53833864  0.35122834  1
  N  N57  1  0.76898321  0.40707558  0.11627002  1
  N  N58  1  0.57295879  0.55498390  0.86359099  1
  N  N59  1  0.42843483  0.41496739  0.59999451  1
  N  N60  1  0.22160233  0.87232933  0.36002749  1
  N  N61  1  0.10733302  0.76514068  0.11367227  1
  N  N62  1  0.88770440  0.87155197  0.85265860  1
  N  N63  1  0.77429052  0.76022231  0.60706537  1
  N  N64  1  0.55293915  0.87280223  0.36192868  1
  N  N65  1  0.44389017  0.76564627  0.10809010  1
  N  N66  1  0.22196981  0.86837748  0.86647337  1
  N  N67  1  0.11703693  0.75679375  0.61323803  1
  N  N68  1  0.90836414  0.83806143  0.37531966  1
  N  N69  1  0.76198318  0.79866522  0.12294832  1
  N  N70  1  0.55990666  0.87022004  0.86607221  1
  N  N71  1  0.42611563  0.79766328  0.62083171  1
