# generated using pymatgen
data_Gd5Al31N36
_symmetry_space_group_name_H-M   'P 1'
_cell_length_a   9.74773580
_cell_length_b   9.72473449
_cell_length_c   10.44991507
_cell_angle_alpha   89.79437595
_cell_angle_beta   90.34774025
_cell_angle_gamma   60.24842406
_symmetry_Int_Tables_number   1
_chemical_formula_structural   Gd5Al31N36
_chemical_formula_sum   'Gd5 Al31 N36'
_cell_volume   859.97548911
_cell_formula_units_Z   1
loop_
 _symmetry_equiv_pos_site_id
 _symmetry_equiv_pos_as_xyz
  1  'x, y, z'
loop_
 _atom_site_type_symbol
 _atom_site_label
 _atom_site_symmetry_multiplicity
 _atom_site_fract_x
 _atom_site_fract_y
 _atom_site_fract_z
 _atom_site_occupancy
  Al  Al0  1  0.12685245  0.09097824  0.29483580  1
  Al  Al1  1  0.22506899  0.20426289  0.05173297  1
  Al  Al2  1  0.77748443  0.09487209  0.87692159  1
  Al  Al3  1  0.88649578  0.19858486  0.63381153  1
  Al  Al4  1  0.44945067  0.08872685  0.36992389  1
  Al  Al5  1  0.54900667  0.20459584  0.11468491  1
  Al  Al6  1  0.10880029  0.08750322  0.81525509  1
  Al  Al7  1  0.88656788  0.21042064  0.11682690  1
  Al  Al8  1  0.45528081  0.07787729  0.87555194  1
  Al  Al9  1  0.57041036  0.18124860  0.63047978  1
  Al  Al10  1  0.12745088  0.41763576  0.30428598  1
  Al  Al11  1  0.21477920  0.54833109  0.06363153  1
  Al  Al12  1  0.77384519  0.42645238  0.87275402  1
  Al  Al13  1  0.88899678  0.54212555  0.60701185  1
  Al  Al14  1  0.43621877  0.43706662  0.29225585  1
  Al  Al15  1  0.54709367  0.55154184  0.05234399  1
  Al  Al16  1  0.09805214  0.43938327  0.81128506  1
  Al  Al17  1  0.21889960  0.54038665  0.55466848  1
  Al  Al18  1  0.80140494  0.42411247  0.36563056  1
  Al  Al19  1  0.11359206  0.75687273  0.31043036  1
  Al  Al20  1  0.22214057  0.87157519  0.05696835  1
  Al  Al21  1  0.77833324  0.76656644  0.80852636  1
  Al  Al22  1  0.89869355  0.85824756  0.56160279  1
  Al  Al23  1  0.44241306  0.75615181  0.30290672  1
  Al  Al24  1  0.54740895  0.88758990  0.12974830  1
  Al  Al25  1  0.10093013  0.76707745  0.80910707  1
  Al  Al26  1  0.21316021  0.87435550  0.55672065  1
  Al  Al27  1  0.78417405  0.76098179  0.30948398  1
  Al  Al28  1  0.89115385  0.87754574  0.05874338  1
  Al  Al29  1  0.43072833  0.77426523  0.80562624  1
  Al  Al30  1  0.55665480  0.87802918  0.62475198  1
  Gd  Gd31  1  0.22010575  0.20510762  0.57777940  1
  Gd  Gd32  1  0.77266138  0.10431651  0.36091146  1
  Gd  Gd33  1  0.89396667  0.54658952  0.07950376  1
  Gd  Gd34  1  0.42899060  0.42464927  0.83407818  1
  Gd  Gd35  1  0.55283892  0.53589359  0.56629783  1
  N  N36  1  0.22422961  0.20106415  0.35876682  1
  N  N37  1  0.12106210  0.09009216  0.10510417  1
  N  N38  1  0.87598863  0.21200820  0.81945677  1
  N  N39  1  0.78344481  0.09075126  0.57953714  1
  N  N40  1  0.52252686  0.21622613  0.29314378  1
  N  N41  1  0.44843289  0.09049028  0.05590946  1
  N  N42  1  0.21560798  0.21042924  0.85721287  1
  N  N43  1  0.10230793  0.07025546  0.63376279  1
  N  N44  1  0.90560128  0.22096023  0.29724707  1
  N  N45  1  0.77383242  0.10418629  0.06817308  1
  N  N46  1  0.57537871  0.16325147  0.81375455  1
  N  N47  1  0.48529080  0.07224310  0.54998982  1
  N  N48  1  0.22821054  0.53821154  0.36566582  1
  N  N49  1  0.15289734  0.40478090  0.12352502  1
  N  N50  1  0.87824185  0.54125806  0.83825033  1
  N  N51  1  0.82114151  0.40176119  0.55559945  1
  N  N52  1  0.56202428  0.53183565  0.34580804  1
  N  N53  1  0.43814572  0.44035368  0.09547665  1
  N  N54  1  0.17416173  0.56365483  0.88563986  1
  N  N55  1  0.10026331  0.46001107  0.62992994  1
  N  N56  1  0.89952540  0.53928451  0.32304234  1
  N  N57  1  0.76547207  0.41520515  0.05452110  1
  N  N58  1  0.55268638  0.56284220  0.85833690  1
  N  N59  1  0.42854484  0.40417305  0.61438500  1
  N  N60  1  0.22157599  0.87204131  0.36575965  1
  N  N61  1  0.10766327  0.76671025  0.12381079  1
  N  N62  1  0.89035467  0.86997360  0.87116632  1
  N  N63  1  0.78086785  0.76140003  0.62079984  1
  N  N64  1  0.55213065  0.87341961  0.31663962  1
  N  N65  1  0.43993245  0.76369121  0.11461786  1
  N  N66  1  0.21744043  0.87016594  0.87313949  1
  N  N67  1  0.11720974  0.75529617  0.62080644  1
  N  N68  1  0.90907861  0.84006415  0.37926079  1
  N  N69  1  0.76614875  0.80202811  0.12558498  1
  N  N70  1  0.55323713  0.87420163  0.81518345  1
  N  N71  1  0.42150275  0.79145627  0.61964624  1
