# generated using pymatgen
data_Gd5Al31N36
_symmetry_space_group_name_H-M   'P 1'
_cell_length_a   9.74652201
_cell_length_b   9.74799449
_cell_length_c   10.40948064
_cell_angle_alpha   90.28007191
_cell_angle_beta   90.50507567
_cell_angle_gamma   60.15655336
_symmetry_Int_Tables_number   1
_chemical_formula_structural   Gd5Al31N36
_chemical_formula_sum   'Gd5 Al31 N36'
_cell_volume   857.80909210
_cell_formula_units_Z   1
loop_
 _symmetry_equiv_pos_site_id
 _symmetry_equiv_pos_as_xyz
  1  'x, y, z'
loop_
 _atom_site_type_symbol
 _atom_site_label
 _atom_site_symmetry_multiplicity
 _atom_site_fract_x
 _atom_site_fract_y
 _atom_site_fract_z
 _atom_site_occupancy
  Al  Al0  1  0.12706563  0.09115507  0.31834306  1
  Al  Al1  1  0.22345916  0.20465332  0.07695346  1
  Al  Al2  1  0.77852236  0.09643724  0.89961061  1
  Al  Al3  1  0.88531767  0.19957894  0.66170420  1
  Al  Al4  1  0.45272045  0.08685913  0.39543163  1
  Al  Al5  1  0.54777912  0.20261572  0.14102264  1
  Al  Al6  1  0.10958094  0.08756583  0.84134224  1
  Al  Al7  1  0.88612806  0.20835385  0.13945533  1
  Al  Al8  1  0.45346083  0.08125988  0.90009209  1
  Al  Al9  1  0.56826192  0.18394232  0.65680656  1
  Al  Al10  1  0.13151588  0.41533227  0.33237764  1
  Al  Al11  1  0.21098569  0.54930023  0.08886781  1
  Al  Al12  1  0.76886126  0.43283595  0.89488676  1
  Al  Al13  1  0.88170963  0.54434375  0.65829072  1
  Al  Al14  1  0.43405743  0.43384285  0.32377479  1
  Al  Al15  1  0.55296055  0.54154359  0.12793551  1
  Al  Al16  1  0.09995720  0.44184740  0.84002611  1
  Al  Al17  1  0.21736145  0.53973646  0.58340929  1
  Al  Al18  1  0.80693530  0.41897080  0.40054491  1
  Al  Al19  1  0.11350440  0.75696667  0.33500330  1
  Al  Al20  1  0.22445770  0.86954397  0.08038027  1
  Al  Al21  1  0.76709451  0.77234738  0.89558105  1
  Al  Al22  1  0.90004322  0.86052041  0.59030439  1
  Al  Al23  1  0.44258076  0.76240916  0.33157873  1
  Al  Al24  1  0.55457716  0.88245160  0.15025719  1
  Al  Al25  1  0.10423378  0.76694775  0.83171475  1
  Al  Al26  1  0.21214390  0.87727822  0.58008090  1
  Al  Al27  1  0.78242486  0.74773607  0.40912425  1
  Al  Al28  1  0.89386436  0.87644963  0.07765744  1
  Al  Al29  1  0.43345733  0.77484422  0.82335679  1
  Al  Al30  1  0.56156194  0.87738244  0.64880756  1
  Gd  Gd31  1  0.21903239  0.20682935  0.60451486  1
  Gd  Gd32  1  0.77550812  0.10220128  0.38553798  1
  Gd  Gd33  1  0.88499213  0.54317196  0.13258294  1
  Gd  Gd34  1  0.43579772  0.42778637  0.86650358  1
  Gd  Gd35  1  0.55106558  0.53842072  0.60068313  1
  N  N36  1  0.22701558  0.19888747  0.38259005  1
  N  N37  1  0.12017307  0.08940814  0.12832843  1
  N  N38  1  0.87780581  0.21332782  0.84821891  1
  N  N39  1  0.78277122  0.09093753  0.60635326  1
  N  N40  1  0.52381293  0.21502722  0.32045656  1
  N  N41  1  0.44653378  0.08959915  0.08293871  1
  N  N42  1  0.21515488  0.21188434  0.88338069  1
  N  N43  1  0.10098166  0.07196235  0.65900714  1
  N  N44  1  0.90588803  0.22249354  0.32105965  1
  N  N45  1  0.77318043  0.10118989  0.09637324  1
  N  N46  1  0.57435354  0.16622743  0.84118391  1
  N  N47  1  0.48545946  0.07311303  0.57543584  1
  N  N48  1  0.22705860  0.53877303  0.39262939  1
  N  N49  1  0.14875998  0.40691728  0.14849624  1
  N  N50  1  0.87461938  0.54716888  0.85347228  1
  N  N51  1  0.82085731  0.40130810  0.58564211  1
  N  N52  1  0.56516019  0.53168551  0.35791201  1
  N  N53  1  0.43507239  0.43825205  0.12427867  1
  N  N54  1  0.17702978  0.56601623  0.91072897  1
  N  N55  1  0.09745711  0.46171813  0.65796600  1
  N  N56  1  0.90022745  0.53744503  0.35210635  1
  N  N57  1  0.75904644  0.41490040  0.07601986  1
  N  N58  1  0.56143842  0.55863315  0.84078484  1
  N  N59  1  0.42684810  0.40461204  0.64047200  1
  N  N60  1  0.22131565  0.87396943  0.38905356  1
  N  N61  1  0.10658737  0.76684615  0.14834207  1
  N  N62  1  0.89485257  0.87526370  0.88792047  1
  N  N63  1  0.77396270  0.75292171  0.59685563  1
  N  N64  1  0.56630824  0.86906808  0.33713378  1
  N  N65  1  0.44018274  0.76391322  0.14237634  1
  N  N66  1  0.22260918  0.86870882  0.89648761  1
  N  N67  1  0.11885661  0.75571002  0.64447243  1
  N  N68  1  0.91101170  0.84099646  0.40281140  1
  N  N69  1  0.75621353  0.79473545  0.07995795  1
  N  N70  1  0.55494857  0.87714556  0.83502083  1
  N  N71  1  0.41961277  0.79919887  0.63650213  1
