# generated using pymatgen
data_Gd5Al31N36
_symmetry_space_group_name_H-M   'P 1'
_cell_length_a   9.70891845
_cell_length_b   9.72060275
_cell_length_c   10.49635034
_cell_angle_alpha   90.13958953
_cell_angle_beta   90.39470755
_cell_angle_gamma   60.23379477
_symmetry_Int_Tables_number   1
_chemical_formula_structural   Gd5Al31N36
_chemical_formula_sum   'Gd5 Al31 N36'
_cell_volume   859.88573119
_cell_formula_units_Z   1
loop_
 _symmetry_equiv_pos_site_id
 _symmetry_equiv_pos_as_xyz
  1  'x, y, z'
loop_
 _atom_site_type_symbol
 _atom_site_label
 _atom_site_symmetry_multiplicity
 _atom_site_fract_x
 _atom_site_fract_y
 _atom_site_fract_z
 _atom_site_occupancy
  Al  Al0  1  0.12925071  0.08896784  0.29762049  1
  Al  Al1  1  0.22198740  0.20607640  0.05628118  1
  Al  Al2  1  0.77668434  0.09814795  0.87951386  1
  Al  Al3  1  0.88597870  0.19798353  0.64012970  1
  Al  Al4  1  0.45370129  0.08633815  0.37278258  1
  Al  Al5  1  0.54714935  0.20584734  0.11841503  1
  Al  Al6  1  0.10888103  0.08850802  0.81932202  1
  Al  Al7  1  0.88626974  0.20859654  0.12113623  1
  Al  Al8  1  0.45213048  0.08198190  0.87969250  1
  Al  Al9  1  0.56920099  0.18113593  0.63475240  1
  Al  Al10  1  0.13512168  0.41469862  0.31055104  1
  Al  Al11  1  0.21167118  0.54917917  0.06705112  1
  Al  Al12  1  0.77498708  0.42948283  0.87752278  1
  Al  Al13  1  0.88227508  0.54446835  0.63580692  1
  Al  Al14  1  0.43924786  0.43752397  0.29595331  1
  Al  Al15  1  0.54588809  0.55145558  0.05423191  1
  Al  Al16  1  0.09684452  0.44237010  0.81830339  1
  Al  Al17  1  0.21786603  0.53982420  0.55944246  1
  Al  Al18  1  0.80756490  0.41783727  0.38028849  1
  Al  Al19  1  0.11497640  0.75658444  0.31348372  1
  Al  Al20  1  0.22271227  0.87132746  0.06017327  1
  Al  Al21  1  0.76631475  0.77214913  0.87504292  1
  Al  Al22  1  0.90068809  0.85967441  0.56824117  1
  Al  Al23  1  0.44785012  0.75496921  0.30471686  1
  Al  Al24  1  0.55376184  0.88387854  0.12801136  1
  Al  Al25  1  0.10192012  0.76846520  0.81081018  1
  Al  Al26  1  0.21506388  0.87432066  0.56017468  1
  Al  Al27  1  0.78249036  0.74762322  0.38895457  1
  Al  Al28  1  0.89341183  0.87667036  0.05535751  1
  Al  Al29  1  0.43123757  0.77606558  0.80804486  1
  Al  Al30  1  0.56093139  0.87598659  0.62973739  1
  Gd  Gd31  1  0.21716609  0.20802253  0.57990160  1
  Gd  Gd32  1  0.77438867  0.10206181  0.36488964  1
  Gd  Gd33  1  0.88209459  0.54532507  0.11903840  1
  Gd  Gd34  1  0.42743609  0.42844370  0.83547342  1
  Gd  Gd35  1  0.55194396  0.53662889  0.56938476  1
  N  N36  1  0.22789318  0.19857790  0.36101396  1
  N  N37  1  0.12060071  0.08936359  0.10955230  1
  N  N38  1  0.87584350  0.21433441  0.82416606  1
  N  N39  1  0.78310354  0.08980700  0.58422956  1
  N  N40  1  0.52328148  0.21692647  0.29671501  1
  N  N41  1  0.44598974  0.09141386  0.06068345  1
  N  N42  1  0.21285264  0.21346022  0.86359663  1
  N  N43  1  0.10308393  0.07000976  0.63840028  1
  N  N44  1  0.90696225  0.22067603  0.30163148  1
  N  N45  1  0.77328847  0.10177978  0.07367936  1
  N  N46  1  0.57275974  0.16714526  0.81853782  1
  N  N47  1  0.48484053  0.07116727  0.55302128  1
  N  N48  1  0.23082546  0.53817967  0.37017295  1
  N  N49  1  0.14759069  0.40808989  0.12803152  1
  N  N50  1  0.87085353  0.54887354  0.82705141  1
  N  N51  1  0.82186767  0.40014820  0.56578360  1
  N  N52  1  0.56676580  0.53158249  0.35052902  1
  N  N53  1  0.43682597  0.44115071  0.10032281  1
  N  N54  1  0.17303924  0.56687201  0.89051002  1
  N  N55  1  0.09915407  0.46147881  0.63733559  1
  N  N56  1  0.90308240  0.53603072  0.33496872  1
  N  N57  1  0.76595987  0.41210090  0.05601070  1
  N  N58  1  0.55207236  0.56607230  0.86402846  1
  N  N59  1  0.42881080  0.40369892  0.61753579  1
  N  N60  1  0.22586839  0.87112136  0.36906357  1
  N  N61  1  0.10573072  0.76732826  0.12755491  1
  N  N62  1  0.89298532  0.87667036  0.86680162  1
  N  N63  1  0.77289954  0.75308313  0.57487050  1
  N  N64  1  0.56779045  0.86805041  0.31365892  1
  N  N65  1  0.44076452  0.76312778  0.11910467  1
  N  N66  1  0.21883849  0.87154367  0.87711881  1
  N  N67  1  0.11927029  0.75459663  0.62420916  1
  N  N68  1  0.91261932  0.84016198  0.38274635  1
  N  N69  1  0.75543642  0.79438758  0.05691424  1
  N  N70  1  0.55398075  0.87815219  0.81410106  1
  N  N71  1  0.42238431  0.79112565  0.62407491  1
