# generated using pymatgen
data_Gd5Al31N36
_symmetry_space_group_name_H-M   'P 1'
_cell_length_a   9.76410492
_cell_length_b   9.76376248
_cell_length_c   10.35501491
_cell_angle_alpha   90.43155786
_cell_angle_beta   90.73869341
_cell_angle_gamma   59.99054945
_symmetry_Int_Tables_number   1
_chemical_formula_structural   Gd5Al31N36
_chemical_formula_sum   'Gd5 Al31 N36'
_cell_volume   854.77773626
_cell_formula_units_Z   1
loop_
 _symmetry_equiv_pos_site_id
 _symmetry_equiv_pos_as_xyz
  1  'x, y, z'
loop_
 _atom_site_type_symbol
 _atom_site_label
 _atom_site_symmetry_multiplicity
 _atom_site_fract_x
 _atom_site_fract_y
 _atom_site_fract_z
 _atom_site_occupancy
  Al  Al0  1  0.12571259  0.09157152  0.31625326  1
  Al  Al1  1  0.22389830  0.20357047  0.07702773  1
  Al  Al2  1  0.77991563  0.09234021  0.89676595  1
  Al  Al3  1  0.88332541  0.20262646  0.66498263  1
  Al  Al4  1  0.45274209  0.08702860  0.39567096  1
  Al  Al5  1  0.54990220  0.19970088  0.14132736  1
  Al  Al6  1  0.11041020  0.08621988  0.84278710  1
  Al  Al7  1  0.88546212  0.20770995  0.13652190  1
  Al  Al8  1  0.45277849  0.08174610  0.90017242  1
  Al  Al9  1  0.56222896  0.18930783  0.66019687  1
  Al  Al10  1  0.12893684  0.41611747  0.33209979  1
  Al  Al11  1  0.21304416  0.54694367  0.08893963  1
  Al  Al12  1  0.76870737  0.43385025  0.89499694  1
  Al  Al13  1  0.88064136  0.54408844  0.65925303  1
  Al  Al14  1  0.43096255  0.42985946  0.32526554  1
  Al  Al15  1  0.55722515  0.53716899  0.15205049  1
  Al  Al16  1  0.10380320  0.43983440  0.84012680  1
  Al  Al17  1  0.21536688  0.54044676  0.58465684  1
  Al  Al18  1  0.80969067  0.41744170  0.39951275  1
  Al  Al19  1  0.11238091  0.75740937  0.33418517  1
  Al  Al20  1  0.22847153  0.86674952  0.07969221  1
  Al  Al21  1  0.76786848  0.77239449  0.89281571  1
  Al  Al22  1  0.89271687  0.86657565  0.62038629  1
  Al  Al23  1  0.43936348  0.76816163  0.33438921  1
  Al  Al24  1  0.55518006  0.88113337  0.15088364  1
  Al  Al25  1  0.11001291  0.76259454  0.83179969  1
  Al  Al26  1  0.20870830  0.87883180  0.57855589  1
  Al  Al27  1  0.78513097  0.74994579  0.40967779  1
  Al  Al28  1  0.89265244  0.87677085  0.09051563  1
  Al  Al29  1  0.43573338  0.77438730  0.81857895  1
  Al  Al30  1  0.56025949  0.87904500  0.64646064  1
  Gd  Gd31  1  0.21693076  0.20608468  0.60433477  1
  Gd  Gd32  1  0.77734933  0.10215555  0.39374189  1
  Gd  Gd33  1  0.88414217  0.54319118  0.12915489  1
  Gd  Gd34  1  0.44535240  0.43054782  0.87438597  1
  Gd  Gd35  1  0.54885934  0.53928774  0.59840449  1
  N  N36  1  0.22647246  0.19868976  0.38096869  1
  N  N37  1  0.12026699  0.08835242  0.12559257  1
  N  N38  1  0.87866654  0.21270738  0.85176058  1
  N  N39  1  0.77873467  0.09439621  0.61445609  1
  N  N40  1  0.52723177  0.21147013  0.32182505  1
  N  N41  1  0.44679516  0.08827779  0.08407932  1
  N  N42  1  0.21591872  0.21016149  0.88267122  1
  N  N43  1  0.09813552  0.07252494  0.65931302  1
  N  N44  1  0.90515509  0.22192097  0.31901956  1
  N  N45  1  0.77478893  0.09887670  0.09247772  1
  N  N46  1  0.57140126  0.16962777  0.84476897  1
  N  N47  1  0.48346359  0.07625163  0.57668517  1
  N  N48  1  0.22504481  0.53863873  0.39304947  1
  N  N49  1  0.14766114  0.40706533  0.14716351  1
  N  N50  1  0.87778336  0.54525292  0.85644521  1
  N  N51  1  0.82018205  0.40142913  0.58436860  1
  N  N52  1  0.56419125  0.53115902  0.35080010  1
  N  N53  1  0.43623596  0.43637180  0.12750635  1
  N  N54  1  0.18401212  0.56217140  0.90934631  1
  N  N55  1  0.09617061  0.46128929  0.65744907  1
  N  N56  1  0.89878802  0.53835611  0.35117610  1
  N  N57  1  0.75402879  0.41681720  0.07681321  1
  N  N58  1  0.56907785  0.55799249  0.82494121  1
  N  N59  1  0.42425437  0.40803735  0.64308899  1
  N  N60  1  0.21833780  0.87565428  0.38777513  1
  N  N61  1  0.10993034  0.76493661  0.14545590  1
  N  N62  1  0.89263844  0.87297445  0.86691866  1
  N  N63  1  0.77491517  0.75440994  0.59872640  1
  N  N64  1  0.56641393  0.86911384  0.33919602  1
  N  N65  1  0.44204990  0.76261732  0.14447018  1
  N  N66  1  0.22656540  0.86526420  0.89501979  1
  N  N67  1  0.11924348  0.75580579  0.64352896  1
  N  N68  1  0.90620804  0.84530538  0.38881236  1
  N  N69  1  0.75706166  0.79621082  0.07770042  1
  N  N70  1  0.55463426  0.87775164  0.83354864  1
  N  N71  1  0.41785097  0.80266808  0.63026013  1
