# generated using pymatgen
data_Gd5Al31N36
_symmetry_space_group_name_H-M   'P 1'
_cell_length_a   9.71167590
_cell_length_b   9.72776416
_cell_length_c   10.23106534
_cell_angle_alpha   90.45057935
_cell_angle_beta   90.44758430
_cell_angle_gamma   60.12149592
_symmetry_Int_Tables_number   1
_chemical_formula_structural   Gd5Al31N36
_chemical_formula_sum   'Gd5 Al31 N36'
_cell_volume   838.05262050
_cell_formula_units_Z   1
loop_
 _symmetry_equiv_pos_site_id
 _symmetry_equiv_pos_as_xyz
  1  'x, y, z'
loop_
 _atom_site_type_symbol
 _atom_site_label
 _atom_site_symmetry_multiplicity
 _atom_site_fract_x
 _atom_site_fract_y
 _atom_site_fract_z
 _atom_site_occupancy
  Al  Al0  1  0.11127490  0.09337676  0.38948258  1
  Al  Al1  1  0.22818757  0.20227670  0.14986521  1
  Al  Al2  1  0.78532208  0.08464216  0.89895492  1
  Al  Al3  1  0.89415433  0.19721777  0.65674368  1
  Al  Al4  1  0.45111817  0.09040926  0.39184024  1
  Al  Al5  1  0.55696307  0.19724190  0.14185663  1
  Al  Al6  1  0.11347910  0.09346068  0.90252043  1
  Al  Al7  1  0.88933838  0.20626724  0.13861693  1
  Al  Al8  1  0.44611959  0.08351817  0.90498842  1
  Al  Al9  1  0.56458728  0.18667435  0.66222487  1
  Al  Al10  1  0.10968746  0.43649171  0.40014646  1
  Al  Al11  1  0.21520337  0.54731545  0.14675894  1
  Al  Al12  1  0.77575662  0.42862872  0.89161301  1
  Al  Al13  1  0.89099901  0.54020245  0.64967577  1
  Al  Al14  1  0.43905368  0.43034325  0.33000590  1
  Al  Al15  1  0.55603541  0.54525652  0.14810348  1
  Al  Al16  1  0.10980504  0.42664832  0.89858968  1
  Al  Al17  1  0.20808546  0.54541264  0.65269813  1
  Al  Al18  1  0.79597380  0.42375525  0.40022020  1
  Al  Al19  1  0.11467485  0.75609502  0.39690681  1
  Al  Al20  1  0.22099275  0.87336692  0.14420011  1
  Al  Al21  1  0.77178090  0.76987315  0.89039676  1
  Al  Al22  1  0.89256264  0.86849173  0.65469883  1
  Al  Al23  1  0.43712150  0.77740075  0.39091746  1
  Al  Al24  1  0.55363956  0.87744811  0.14533066  1
  Al  Al25  1  0.10407074  0.76693292  0.89722283  1
  Al  Al26  1  0.21341492  0.87600510  0.64384081  1
  Al  Al27  1  0.77975750  0.75776822  0.40437745  1
  Al  Al28  1  0.88875042  0.87305888  0.14362606  1
  Al  Al29  1  0.44520692  0.76614390  0.89462977  1
  Al  Al30  1  0.55918543  0.87293885  0.64490214  1
  Gd  Gd31  1  0.22952276  0.20016903  0.63333584  1
  Gd  Gd32  1  0.78248827  0.09598181  0.39820479  1
  Gd  Gd33  1  0.88570655  0.54296045  0.13823921  1
  Gd  Gd34  1  0.44074531  0.42739803  0.89016839  1
  Gd  Gd35  1  0.54815334  0.53843332  0.61585385  1
  N  N36  1  0.22497078  0.20542432  0.34769254  1
  N  N37  1  0.11354684  0.09391610  0.09020386  1
  N  N38  1  0.89259041  0.20341757  0.84525025  1
  N  N39  1  0.78080583  0.09154133  0.61738796  1
  N  N40  1  0.53467562  0.21207448  0.32514065  1
  N  N41  1  0.44251906  0.09166346  0.09198525  1
  N  N42  1  0.22408220  0.20328745  0.85488055  1
  N  N43  1  0.09027206  0.07907148  0.57411370  1
  N  N44  1  0.90422459  0.22361994  0.32097052  1
  N  N45  1  0.78106495  0.09259416  0.09402179  1
  N  N46  1  0.57254961  0.16703949  0.84982327  1
  N  N47  1  0.48538481  0.07323707  0.57362894  1
  N  N48  1  0.21695769  0.54348718  0.33546747  1
  N  N49  1  0.14175397  0.41322552  0.08445568  1
  N  N50  1  0.88802404  0.53872746  0.84672217  1
  N  N51  1  0.81269131  0.40505137  0.58695357  1
  N  N52  1  0.55970259  0.54246142  0.34872757  1
  N  N53  1  0.44240164  0.43405704  0.12680820  1
  N  N54  1  0.18385921  0.55955166  0.83763393  1
  N  N55  1  0.09539970  0.45569325  0.58298640  1
  N  N56  1  0.88905898  0.54298893  0.35566460  1
  N  N57  1  0.75828551  0.41564601  0.07615675  1
  N  N58  1  0.56575160  0.55727994  0.83604810  1
  N  N59  1  0.42526908  0.40240346  0.63840655  1
  N  N60  1  0.21930871  0.87201379  0.33135947  1
  N  N61  1  0.10999485  0.76369574  0.08602914  1
  N  N62  1  0.89126290  0.87055334  0.84076000  1
  N  N63  1  0.77862798  0.75915163  0.59545303  1
  N  N64  1  0.56115877  0.86985684  0.33291157  1
  N  N65  1  0.44408099  0.76361876  0.08873836  1
  N  N66  1  0.22070516  0.87334034  0.83799007  1
  N  N67  1  0.11229881  0.75954227  0.58699424  1
  N  N68  1  0.90246552  0.84289642  0.33040926  1
  N  N69  1  0.75946642  0.79461878  0.07470720  1
  N  N70  1  0.55095677  0.87381156  0.83419647  1
  N  N71  1  0.42130789  0.80296489  0.57611851  1
