# generated using pymatgen
data_Gd5Al31N36
_symmetry_space_group_name_H-M   'P 1'
_cell_length_a   9.75523614
_cell_length_b   9.77635650
_cell_length_c   10.19241614
_cell_angle_alpha   89.61385125
_cell_angle_beta   89.67909487
_cell_angle_gamma   60.03727315
_symmetry_Int_Tables_number   1
_chemical_formula_structural   Gd5Al31N36
_chemical_formula_sum   'Gd5 Al31 N36'
_cell_volume   842.12057954
_cell_formula_units_Z   1
loop_
 _symmetry_equiv_pos_site_id
 _symmetry_equiv_pos_as_xyz
  1  'x, y, z'
loop_
 _atom_site_type_symbol
 _atom_site_label
 _atom_site_symmetry_multiplicity
 _atom_site_fract_x
 _atom_site_fract_y
 _atom_site_fract_z
 _atom_site_occupancy
  Al  Al0  1  0.11334255  0.09593808  0.30400342  1
  Al  Al1  1  0.22203033  0.20572117  0.05536378  1
  Al  Al2  1  0.79451527  0.08340097  0.81111299  1
  Al  Al3  1  0.90054829  0.19972034  0.56556378  1
  Al  Al4  1  0.43502483  0.09093073  0.29946416  1
  Al  Al5  1  0.55077365  0.20588260  0.10924301  1
  Al  Al6  1  0.10950934  0.08731520  0.81604099  1
  Al  Al7  1  0.88453185  0.20282270  0.05562487  1
  Al  Al8  1  0.45183947  0.08053564  0.82543838  1
  Al  Al9  1  0.56445238  0.19166491  0.63311797  1
  Al  Al10  1  0.12142198  0.42165010  0.30954568  1
  Al  Al11  1  0.21000449  0.55091016  0.06454834  1
  Al  Al12  1  0.78952739  0.42647874  0.80744118  1
  Al  Al13  1  0.89131457  0.54295078  0.55645378  1
  Al  Al14  1  0.43141026  0.44001400  0.29321684  1
  Al  Al15  1  0.55749349  0.54615422  0.06257744  1
  Al  Al16  1  0.09862191  0.44396957  0.80381883  1
  Al  Al17  1  0.22054092  0.54176223  0.55537670  1
  Al  Al18  1  0.78121888  0.42463373  0.30742775  1
  Al  Al19  1  0.11221502  0.75773984  0.31195236  1
  Al  Al20  1  0.21997202  0.87332731  0.06165894  1
  Al  Al21  1  0.77509183  0.76276118  0.80283309  1
  Al  Al22  1  0.89915295  0.85671218  0.56604822  1
  Al  Al23  1  0.44127024  0.76439012  0.30375777  1
  Al  Al24  1  0.55369739  0.87649571  0.05900810  1
  Al  Al25  1  0.10707458  0.76415069  0.81085828  1
  Al  Al26  1  0.21814986  0.87185215  0.56224534  1
  Al  Al27  1  0.77706782  0.76185700  0.31437618  1
  Al  Al28  1  0.88341496  0.88207761  0.05573171  1
  Al  Al29  1  0.44489574  0.77093677  0.81303277  1
  Al  Al30  1  0.55893080  0.87132176  0.55738333  1
  Gd  Gd31  1  0.22320689  0.20354672  0.57329598  1
  Gd  Gd32  1  0.77656994  0.09343133  0.33297912  1
  Gd  Gd33  1  0.88847538  0.54484272  0.06758228  1
  Gd  Gd34  1  0.43870324  0.42979227  0.84326202  1
  Gd  Gd35  1  0.55672101  0.53605231  0.56258937  1
  N  N36  1  0.22354345  0.20026027  0.35118182  1
  N  N37  1  0.10754568  0.09613071  0.11232411  1
  N  N38  1  0.88952249  0.20621371  0.86746393  1
  N  N39  1  0.78823432  0.08754500  0.60710027  1
  N  N40  1  0.51969432  0.22336302  0.30213702  1
  N  N41  1  0.43844827  0.09200531  0.09711350  1
  N  N42  1  0.21868160  0.20998408  0.85758308  1
  N  N43  1  0.09988938  0.07190388  0.63336905  1
  N  N44  1  0.90836428  0.21943668  0.37887348  1
  N  N45  1  0.77741718  0.09571390  0.10229444  1
  N  N46  1  0.57810687  0.17268362  0.83078165  1
  N  N47  1  0.47339393  0.07075639  0.62215812  1
  N  N48  1  0.22340677  0.54089428  0.36435460  1
  N  N49  1  0.14154705  0.41257792  0.12549368  1
  N  N50  1  0.88582866  0.54399254  0.85029352  1
  N  N51  1  0.81203792  0.41062354  0.62173065  1
  N  N52  1  0.55220156  0.53940580  0.34169037  1
  N  N53  1  0.43626314  0.44165039  0.09420373  1
  N  N54  1  0.17954288  0.56152897  0.88201471  1
  N  N55  1  0.09632240  0.46185154  0.61809748  1
  N  N56  1  0.88903092  0.53814023  0.35783645  1
  N  N57  1  0.76712051  0.41029068  0.12297046  1
  N  N58  1  0.57579754  0.55567459  0.86853870  1
  N  N59  1  0.42951453  0.40924508  0.61521238  1
  N  N60  1  0.22042841  0.87307178  0.36716635  1
  N  N61  1  0.10412845  0.76858847  0.12224177  1
  N  N62  1  0.89032735  0.86974206  0.86354860  1
  N  N63  1  0.77518676  0.75886938  0.61422356  1
  N  N64  1  0.55340208  0.87132179  0.36577787  1
  N  N65  1  0.44234807  0.76690832  0.11591984  1
  N  N66  1  0.22392255  0.86748715  0.87400381  1
  N  N67  1  0.11954055  0.75506039  0.62096119  1
  N  N68  1  0.90710942  0.83673644  0.38205560  1
  N  N69  1  0.76041766  0.79814499  0.12914473  1
  N  N70  1  0.56165876  0.86616026  0.87229356  1
  N  N71  1  0.42957946  0.79000935  0.62483272  1
