# generated using pymatgen
data_Gd5Al31N36
_symmetry_space_group_name_H-M   'P 1'
_cell_length_a   9.75433583
_cell_length_b   9.72642562
_cell_length_c   10.43027951
_cell_angle_alpha   89.88653173
_cell_angle_beta   90.39286093
_cell_angle_gamma   59.82851546
_symmetry_Int_Tables_number   1
_chemical_formula_structural   Gd5Al31N36
_chemical_formula_sum   'Gd5 Al31 N36'
_cell_volume   855.47186965
_cell_formula_units_Z   1
loop_
 _symmetry_equiv_pos_site_id
 _symmetry_equiv_pos_as_xyz
  1  'x, y, z'
loop_
 _atom_site_type_symbol
 _atom_site_label
 _atom_site_symmetry_multiplicity
 _atom_site_fract_x
 _atom_site_fract_y
 _atom_site_fract_z
 _atom_site_occupancy
  Al  Al0  1  0.10910787  0.09812958  0.40556179  1
  Al  Al1  1  0.22706248  0.20578649  0.09776967  1
  Al  Al2  1  0.78690265  0.08322784  0.91473074  1
  Al  Al3  1  0.88598542  0.20193843  0.67019504  1
  Al  Al4  1  0.45136872  0.08895364  0.41214060  1
  Al  Al5  1  0.55471214  0.19860925  0.15615542  1
  Al  Al6  1  0.10301002  0.09850933  0.91562093  1
  Al  Al7  1  0.88920845  0.20403110  0.15293655  1
  Al  Al8  1  0.45727961  0.08164863  0.91649850  1
  Al  Al9  1  0.56333616  0.19115753  0.67689980  1
  Al  Al10  1  0.12779030  0.41369972  0.35094758  1
  Al  Al11  1  0.21333574  0.54646039  0.10153383  1
  Al  Al12  1  0.77028415  0.43330253  0.90372618  1
  Al  Al13  1  0.88110378  0.54417961  0.66769530  1
  Al  Al14  1  0.43119287  0.42929759  0.33790019  1
  Al  Al15  1  0.55812628  0.53558633  0.16204594  1
  Al  Al16  1  0.10386647  0.44138413  0.85114106  1
  Al  Al17  1  0.21520623  0.53741156  0.59889458  1
  Al  Al18  1  0.80245268  0.42143758  0.41237338  1
  Al  Al19  1  0.12004516  0.75077653  0.34193225  1
  Al  Al20  1  0.22790765  0.86426111  0.09322668  1
  Al  Al21  1  0.77233399  0.77184957  0.91061314  1
  Al  Al22  1  0.88480967  0.87201884  0.67062385  1
  Al  Al23  1  0.43918692  0.76782888  0.34107197  1
  Al  Al24  1  0.55731059  0.88041022  0.16386134  1
  Al  Al25  1  0.11267541  0.76102486  0.84648198  1
  Al  Al26  1  0.20718859  0.87099101  0.58631551  1
  Al  Al27  1  0.78436918  0.75294674  0.41731822  1
  Al  Al28  1  0.88524129  0.87563960  0.16227846  1
  Al  Al29  1  0.43383793  0.77970016  0.83325001  1
  Al  Al30  1  0.56490603  0.87903466  0.66086868  1
  Gd  Gd31  1  0.22858548  0.18876718  0.63987375  1
  Gd  Gd32  1  0.78042564  0.09901763  0.41464925  1
  Gd  Gd33  1  0.88523122  0.53788810  0.14361329  1
  Gd  Gd34  1  0.44769484  0.43110102  0.88902322  1
  Gd  Gd35  1  0.54003141  0.54983566  0.61214295  1
  N  N36  1  0.22809753  0.19961618  0.40407350  1
  N  N37  1  0.10830731  0.09755337  0.10016205  1
  N  N38  1  0.88862655  0.20648056  0.85515293  1
  N  N39  1  0.77705384  0.09392171  0.63003064  1
  N  N40  1  0.53268118  0.20924361  0.33624511  1
  N  N41  1  0.44878928  0.08916916  0.09893045  1
  N  N42  1  0.22132244  0.21089648  0.89328128  1
  N  N43  1  0.07444483  0.08619361  0.58639508  1
  N  N44  1  0.90592523  0.22193481  0.33123203  1
  N  N45  1  0.78045383  0.09263044  0.10612411  1
  N  N46  1  0.57621437  0.16960943  0.86142863  1
  N  N47  1  0.48804342  0.07715468  0.59085619  1
  N  N48  1  0.22452304  0.53695226  0.40870679  1
  N  N49  1  0.14856842  0.40766390  0.16574613  1
  N  N50  1  0.87862095  0.54573343  0.86743001  1
  N  N51  1  0.80764652  0.41107452  0.59716468  1
  N  N52  1  0.56439915  0.53075715  0.36065677  1
  N  N53  1  0.43698213  0.43512923  0.14080707  1
  N  N54  1  0.18470578  0.56067354  0.92305519  1
  N  N55  1  0.09841851  0.45358041  0.66895586  1
  N  N56  1  0.89661452  0.53869278  0.36465816  1
  N  N57  1  0.75422274  0.41259946  0.08466876  1
  N  N58  1  0.56877448  0.56089241  0.83549735  1
  N  N59  1  0.42435660  0.41040792  0.66017658  1
  N  N60  1  0.22582344  0.86153049  0.39838220  1
  N  N61  1  0.11706948  0.76138224  0.15642073  1
  N  N62  1  0.88913715  0.87082595  0.85509586  1
  N  N63  1  0.77970874  0.75784437  0.60536830  1
  N  N64  1  0.56419828  0.87016600  0.35139164  1
  N  N65  1  0.44336059  0.76343971  0.15381992  1
  N  N66  1  0.22452082  0.86675529  0.90590122  1
  N  N67  1  0.11745028  0.75478074  0.65701494  1
  N  N68  1  0.89625506  0.84822691  0.34762038  1
  N  N69  1  0.76188415  0.79420488  0.09226841  1
  N  N70  1  0.55866942  0.87768382  0.84811801  1
  N  N71  1  0.40735031  0.81943690  0.64991411  1
