# generated using pymatgen
data_Gd5Al31N36
_symmetry_space_group_name_H-M   'P 1'
_cell_length_a   9.74699107
_cell_length_b   9.71785316
_cell_length_c   10.43638994
_cell_angle_alpha   90.02102037
_cell_angle_beta   90.35656502
_cell_angle_gamma   60.20283507
_symmetry_Int_Tables_number   1
_chemical_formula_structural   Gd5Al31N36
_chemical_formula_sum   'Gd5 Al31 N36'
_cell_volume   857.81830330
_cell_formula_units_Z   1
loop_
 _symmetry_equiv_pos_site_id
 _symmetry_equiv_pos_as_xyz
  1  'x, y, z'
loop_
 _atom_site_type_symbol
 _atom_site_label
 _atom_site_symmetry_multiplicity
 _atom_site_fract_x
 _atom_site_fract_y
 _atom_site_fract_z
 _atom_site_occupancy
  Al  Al0  1  0.12650494  0.09190430  0.29469481  1
  Al  Al1  1  0.22455713  0.20579282  0.05111548  1
  Al  Al2  1  0.77772637  0.09318445  0.87575629  1
  Al  Al3  1  0.88621233  0.20015053  0.63773069  1
  Al  Al4  1  0.44868338  0.09061593  0.37133612  1
  Al  Al5  1  0.55085468  0.20306394  0.11435333  1
  Al  Al6  1  0.11000826  0.08585646  0.81804965  1
  Al  Al7  1  0.88760782  0.20924033  0.11456919  1
  Al  Al8  1  0.45632192  0.07651209  0.87508281  1
  Al  Al9  1  0.57014214  0.18020264  0.63345702  1
  Al  Al10  1  0.12903210  0.41741315  0.30833733  1
  Al  Al11  1  0.21430926  0.54781021  0.06308792  1
  Al  Al12  1  0.77522168  0.42769087  0.87668058  1
  Al  Al13  1  0.89585994  0.54275167  0.55011475  1
  Al  Al14  1  0.43372859  0.43756845  0.28969299  1
  Al  Al15  1  0.54729728  0.55249320  0.05592578  1
  Al  Al16  1  0.09156530  0.44278125  0.80459629  1
  Al  Al17  1  0.22045163  0.53869869  0.55525592  1
  Al  Al18  1  0.79277690  0.42452603  0.35513367  1
  Al  Al19  1  0.11226704  0.75918867  0.31071932  1
  Al  Al20  1  0.22252908  0.87119720  0.05679663  1
  Al  Al21  1  0.78254343  0.75786272  0.80239850  1
  Al  Al22  1  0.89898115  0.85796281  0.56440233  1
  Al  Al23  1  0.43889920  0.75964027  0.30303949  1
  Al  Al24  1  0.54675209  0.88846350  0.13133323  1
  Al  Al25  1  0.10132219  0.76567049  0.80978863  1
  Al  Al26  1  0.21339827  0.87266047  0.55872704  1
  Al  Al27  1  0.78105624  0.76733758  0.31290326  1
  Al  Al28  1  0.89024332  0.87833884  0.05882677  1
  Al  Al29  1  0.43396225  0.77211391  0.80589560  1
  Al  Al30  1  0.55914244  0.87450070  0.62228756  1
  Gd  Gd31  1  0.22130089  0.20105803  0.58162823  1
  Gd  Gd32  1  0.77128187  0.10942732  0.36818384  1
  Gd  Gd33  1  0.89589001  0.55118401  0.07290417  1
  Gd  Gd34  1  0.42935762  0.42658164  0.83450911  1
  Gd  Gd35  1  0.55481348  0.53350502  0.56306681  1
  N  N36  1  0.22341609  0.20165483  0.36105558  1
  N  N37  1  0.12195556  0.09019525  0.10402061  1
  N  N38  1  0.87740693  0.21219249  0.82485880  1
  N  N39  1  0.78448469  0.08869036  0.58680127  1
  N  N40  1  0.52351484  0.21606090  0.29347898  1
  N  N41  1  0.44827147  0.09027840  0.05604554  1
  N  N42  1  0.21577175  0.21090812  0.85572239  1
  N  N43  1  0.10172294  0.06804653  0.63688305  1
  N  N44  1  0.90563281  0.22016897  0.29426265  1
  N  N45  1  0.77373494  0.10435926  0.06649305  1
  N  N46  1  0.57386903  0.16522122  0.81616248  1
  N  N47  1  0.48638828  0.07118044  0.55086500  1
  N  N48  1  0.22753495  0.54012463  0.36597770  1
  N  N49  1  0.15078778  0.40622644  0.12803917  1
  N  N50  1  0.88004894  0.54209539  0.85265335  1
  N  N51  1  0.81933445  0.39737145  0.55178379  1
  N  N52  1  0.55930907  0.53366459  0.34045604  1
  N  N53  1  0.43756158  0.43993177  0.09506436  1
  N  N54  1  0.17384815  0.56130604  0.88435375  1
  N  N55  1  0.09555874  0.46019729  0.62227956  1
  N  N56  1  0.89795712  0.54440172  0.35164254  1
  N  N57  1  0.76649339  0.41939391  0.06318312  1
  N  N58  1  0.55487703  0.56273221  0.86363255  1
  N  N59  1  0.42980578  0.40306548  0.61451141  1
  N  N60  1  0.22001259  0.87381300  0.36666960  1
  N  N61  1  0.10717829  0.76687050  0.12365481  1
  N  N62  1  0.88967267  0.86766411  0.87011527  1
  N  N63  1  0.78366428  0.75382542  0.61460782  1
  N  N64  1  0.55015120  0.87486898  0.31850844  1
  N  N65  1  0.43855426  0.76591010  0.11575501  1
  N  N66  1  0.21964223  0.86738629  0.87351180  1
  N  N67  1  0.11807051  0.75332124  0.62174592  1
  N  N68  1  0.90786215  0.84508636  0.38060575  1
  N  N69  1  0.76652019  0.80307256  0.13103028  1
  N  N70  1  0.55631622  0.87262492  0.81266832  1
  N  N71  1  0.42274707  0.78880961  0.61926202  1
