# generated using pymatgen
data_Gd5Al31N36
_symmetry_space_group_name_H-M   'P 1'
_cell_length_a   9.74803867
_cell_length_b   9.70763842
_cell_length_c   10.42439510
_cell_angle_alpha   90.05032306
_cell_angle_beta   90.08610999
_cell_angle_gamma   60.23532794
_symmetry_Int_Tables_number   1
_chemical_formula_structural   Gd5Al31N36
_chemical_formula_sum   'Gd5 Al31 N36'
_cell_volume   856.32142364
_cell_formula_units_Z   1
loop_
 _symmetry_equiv_pos_site_id
 _symmetry_equiv_pos_as_xyz
  1  'x, y, z'
loop_
 _atom_site_type_symbol
 _atom_site_label
 _atom_site_symmetry_multiplicity
 _atom_site_fract_x
 _atom_site_fract_y
 _atom_site_fract_z
 _atom_site_occupancy
  Al  Al0  1  0.12445470  0.09184017  0.29865965  1
  Al  Al1  1  0.22439700  0.20631847  0.05258655  1
  Al  Al2  1  0.77878697  0.09451364  0.88082583  1
  Al  Al3  1  0.88902684  0.19229480  0.64235355  1
  Al  Al4  1  0.44744672  0.09069312  0.37070742  1
  Al  Al5  1  0.54781961  0.20496988  0.11402997  1
  Al  Al6  1  0.11205182  0.08548110  0.82074364  1
  Al  Al7  1  0.88919138  0.20674863  0.11389452  1
  Al  Al8  1  0.45695281  0.07827330  0.87491220  1
  Al  Al9  1  0.57140444  0.18152128  0.63236865  1
  Al  Al10  1  0.12270432  0.41736057  0.31054400  1
  Al  Al11  1  0.21339057  0.54782009  0.06249654  1
  Al  Al12  1  0.78064244  0.43636075  0.80798159  1
  Al  Al13  1  0.89118943  0.54046250  0.55525886  1
  Al  Al14  1  0.42949568  0.43852102  0.28801586  1
  Al  Al15  1  0.55287044  0.55122427  0.05386508  1
  Al  Al16  1  0.09653173  0.44408079  0.80181008  1
  Al  Al17  1  0.22028189  0.53916561  0.55427631  1
  Al  Al18  1  0.77522038  0.43554276  0.29528728  1
  Al  Al19  1  0.11220758  0.75738378  0.31035750  1
  Al  Al20  1  0.22315387  0.87094612  0.05719992  1
  Al  Al21  1  0.78349494  0.76342350  0.80105488  1
  Al  Al22  1  0.89980523  0.85694844  0.56175501  1
  Al  Al23  1  0.43567577  0.76125165  0.30139752  1
  Al  Al24  1  0.54811853  0.88663783  0.13084282  1
  Al  Al25  1  0.10282926  0.76656143  0.80944629  1
  Al  Al26  1  0.21495645  0.87141779  0.55909882  1
  Al  Al27  1  0.78129995  0.75992593  0.31432075  1
  Al  Al28  1  0.89115357  0.87553280  0.06051298  1
  Al  Al29  1  0.43831585  0.77000173  0.80710584  1
  Al  Al30  1  0.56047277  0.87397516  0.62184078  1
  Gd  Gd31  1  0.22513724  0.19960965  0.58442839  1
  Gd  Gd32  1  0.77026245  0.10350950  0.36161877  1
  Gd  Gd33  1  0.89400230  0.54793359  0.06030887  1
  Gd  Gd34  1  0.43474662  0.42837945  0.83537468  1
  Gd  Gd35  1  0.55651531  0.53196596  0.55532577  1
  N  N36  1  0.22275503  0.20088777  0.36301679  1
  N  N37  1  0.12091227  0.09113349  0.10561371  1
  N  N38  1  0.88320841  0.20844484  0.83644026  1
  N  N39  1  0.78486047  0.08964007  0.58209874  1
  N  N40  1  0.51953817  0.21810297  0.29257204  1
  N  N41  1  0.44836069  0.08959266  0.05625512  1
  N  N42  1  0.21741899  0.21208772  0.85567076  1
  N  N43  1  0.10355496  0.06731837  0.63779843  1
  N  N44  1  0.90601654  0.21588344  0.30324991  1
  N  N45  1  0.77253350  0.10326069  0.07120963  1
  N  N46  1  0.57656431  0.16615077  0.81627063  1
  N  N47  1  0.48857423  0.07087592  0.55035270  1
  N  N48  1  0.22452110  0.53928650  0.36526993  1
  N  N49  1  0.14580759  0.40874431  0.12883974  1
  N  N50  1  0.88428054  0.54670158  0.84855498  1
  N  N51  1  0.80765515  0.41298354  0.62213738  1
  N  N52  1  0.55196858  0.53617374  0.33852852  1
  N  N53  1  0.43726367  0.44029697  0.09162094  1
  N  N54  1  0.17765065  0.56148620  0.88287524  1
  N  N55  1  0.09584948  0.45958501  0.61911465  1
  N  N56  1  0.88832485  0.53739407  0.36087704  1
  N  N57  1  0.76011248  0.42926770  0.11182933  1
  N  N58  1  0.56817190  0.55912248  0.86635283  1
  N  N59  1  0.42958587  0.40509504  0.61500207  1
  N  N60  1  0.21935264  0.87271784  0.36718111  1
  N  N61  1  0.10769650  0.76690519  0.12345733  1
  N  N62  1  0.89123670  0.86912002  0.87168971  1
  N  N63  1  0.78419865  0.75569942  0.61450582  1
  N  N64  1  0.54954028  0.87411672  0.31816784  1
  N  N65  1  0.43824801  0.76630384  0.11423657  1
  N  N66  1  0.22310079  0.86582828  0.87366067  1
  N  N67  1  0.11734661  0.75424033  0.62126390  1
  N  N68  1  0.90843036  0.83879187  0.37897869  1
  N  N69  1  0.76939138  0.79591144  0.13105760  1
  N  N70  1  0.55729054  0.87405234  0.81247939  1
  N  N71  1  0.42495141  0.78587075  0.61991222  1
