# generated using pymatgen
data_Gd5Al31N36
_symmetry_space_group_name_H-M   'P 1'
_cell_length_a   9.74948602
_cell_length_b   9.72898904
_cell_length_c   10.41246912
_cell_angle_alpha   89.93176224
_cell_angle_beta   90.40350594
_cell_angle_gamma   59.84834219
_symmetry_Int_Tables_number   1
_chemical_formula_structural   Gd5Al31N36
_chemical_formula_sum   'Gd5 Al31 N36'
_cell_volume   853.98611319
_cell_formula_units_Z   1
loop_
 _symmetry_equiv_pos_site_id
 _symmetry_equiv_pos_as_xyz
  1  'x, y, z'
loop_
 _atom_site_type_symbol
 _atom_site_label
 _atom_site_symmetry_multiplicity
 _atom_site_fract_x
 _atom_site_fract_y
 _atom_site_fract_z
 _atom_site_occupancy
  Al  Al0  1  0.10840911  0.09647064  0.40592103  1
  Al  Al1  1  0.23134560  0.19734039  0.13969747  1
  Al  Al2  1  0.78665088  0.08345532  0.91699596  1
  Al  Al3  1  0.88645505  0.20203042  0.67359695  1
  Al  Al4  1  0.45323670  0.08734517  0.41302023  1
  Al  Al5  1  0.55579970  0.19823550  0.15817249  1
  Al  Al6  1  0.10673681  0.10178269  0.92023508  1
  Al  Al7  1  0.88821687  0.20425568  0.15539743  1
  Al  Al8  1  0.44974016  0.08539121  0.92005213  1
  Al  Al9  1  0.56218073  0.19143474  0.68049616  1
  Al  Al10  1  0.12527223  0.41833646  0.35492069  1
  Al  Al11  1  0.21378273  0.54623186  0.10355799  1
  Al  Al12  1  0.77066726  0.43301042  0.90589606  1
  Al  Al13  1  0.88028757  0.54516766  0.67056890  1
  Al  Al14  1  0.43172714  0.42893912  0.34061269  1
  Al  Al15  1  0.55845108  0.53533800  0.16471776  1
  Al  Al16  1  0.10557668  0.43846270  0.85281358  1
  Al  Al17  1  0.21524015  0.53863288  0.60223368  1
  Al  Al18  1  0.80175605  0.42150372  0.41515694  1
  Al  Al19  1  0.12036765  0.75040008  0.34463856  1
  Al  Al20  1  0.22836690  0.86344402  0.09592000  1
  Al  Al21  1  0.77139968  0.77280296  0.91293650  1
  Al  Al22  1  0.88468337  0.87214585  0.67397364  1
  Al  Al23  1  0.43980415  0.76710498  0.34401093  1
  Al  Al24  1  0.55891832  0.87849061  0.16626710  1
  Al  Al25  1  0.11263428  0.76162437  0.84994301  1
  Al  Al26  1  0.20687697  0.87194854  0.58881399  1
  Al  Al27  1  0.78441524  0.75279797  0.42030852  1
  Al  Al28  1  0.88570532  0.87528773  0.16493436  1
  Al  Al29  1  0.43334412  0.78065306  0.83662378  1
  Al  Al30  1  0.56344079  0.88067443  0.66404526  1
  Gd  Gd31  1  0.22737533  0.18974903  0.64394909  1
  Gd  Gd32  1  0.78078098  0.09855274  0.41836414  1
  Gd  Gd33  1  0.88635666  0.53725319  0.14418444  1
  Gd  Gd34  1  0.44791093  0.43116627  0.89202383  1
  Gd  Gd35  1  0.53977911  0.55036072  0.61544338  1
  N  N36  1  0.23025901  0.19494401  0.38811436  1
  N  N37  1  0.10987818  0.09753966  0.10593180  1
  N  N38  1  0.89018711  0.20594776  0.85903129  1
  N  N39  1  0.77652917  0.09428131  0.63423932  1
  N  N40  1  0.53371843  0.20903471  0.33873683  1
  N  N41  1  0.44737637  0.08892810  0.10403871  1
  N  N42  1  0.22259023  0.20780898  0.88082390  1
  N  N43  1  0.07379398  0.08767001  0.58632116  1
  N  N44  1  0.90448864  0.22224251  0.33372897  1
  N  N45  1  0.78095845  0.09195481  0.10869727  1
  N  N46  1  0.57464569  0.16950942  0.86584158  1
  N  N47  1  0.48573366  0.07884801  0.59194963  1
  N  N48  1  0.22526055  0.53708022  0.41230039  1
  N  N49  1  0.14805861  0.41079283  0.17050831  1
  N  N50  1  0.87924236  0.54557150  0.87004466  1
  N  N51  1  0.80735845  0.41123833  0.60029588  1
  N  N52  1  0.56440746  0.53070223  0.36352915  1
  N  N53  1  0.43735989  0.43480977  0.14340999  1
  N  N54  1  0.18471527  0.56008579  0.92497193  1
  N  N55  1  0.09732414  0.45489655  0.66869484  1
  N  N56  1  0.89593530  0.53874858  0.36748954  1
  N  N57  1  0.75433547  0.41239855  0.08727626  1
  N  N58  1  0.56868993  0.56164951  0.83851238  1
  N  N59  1  0.42430885  0.41066430  0.66330390  1
  N  N60  1  0.22616946  0.86081927  0.40061487  1
  N  N61  1  0.11740953  0.76089074  0.15898841  1
  N  N62  1  0.88910393  0.87085739  0.85830362  1
  N  N63  1  0.77849158  0.75909365  0.60852547  1
  N  N64  1  0.56535076  0.86886650  0.35401330  1
  N  N65  1  0.44383182  0.76292976  0.15655804  1
  N  N66  1  0.22406378  0.86788041  0.90962877  1
  N  N67  1  0.11719558  0.75602743  0.65995964  1
  N  N68  1  0.89666459  0.84781773  0.35064679  1
  N  N69  1  0.76251827  0.79368810  0.09503880  1
  N  N70  1  0.55754540  0.87928920  0.85174778  1
  N  N71  1  0.40678264  0.82009506  0.65265242  1
