# generated using pymatgen
data_Gd5Al31N36
_symmetry_space_group_name_H-M   'P 1'
_cell_length_a   9.75410030
_cell_length_b   9.74083650
_cell_length_c   10.41278056
_cell_angle_alpha   89.89505912
_cell_angle_beta   90.36238115
_cell_angle_gamma   60.27570826
_symmetry_Int_Tables_number   1
_chemical_formula_structural   Gd5Al31N36
_chemical_formula_sum   'Gd5 Al31 N36'
_cell_volume   859.14190018
_cell_formula_units_Z   1
loop_
 _symmetry_equiv_pos_site_id
 _symmetry_equiv_pos_as_xyz
  1  'x, y, z'
loop_
 _atom_site_type_symbol
 _atom_site_label
 _atom_site_symmetry_multiplicity
 _atom_site_fract_x
 _atom_site_fract_y
 _atom_site_fract_z
 _atom_site_occupancy
  Al  Al0  1  0.12683189  0.09095545  0.29484433  1
  Al  Al1  1  0.22541415  0.20363643  0.05301858  1
  Al  Al2  1  0.77723658  0.09607417  0.87674953  1
  Al  Al3  1  0.88625087  0.19867494  0.63318710  1
  Al  Al4  1  0.45073771  0.08824942  0.36895014  1
  Al  Al5  1  0.54823629  0.20534207  0.11488241  1
  Al  Al6  1  0.10854797  0.08791194  0.81503559  1
  Al  Al7  1  0.88564299  0.20969012  0.11724466  1
  Al  Al8  1  0.45378623  0.08015717  0.87616214  1
  Al  Al9  1  0.57007457  0.18184000  0.62954417  1
  Al  Al10  1  0.12962258  0.41688943  0.30361246  1
  Al  Al11  1  0.21450160  0.54920033  0.06400848  1
  Al  Al12  1  0.77281939  0.42571957  0.87187135  1
  Al  Al13  1  0.88592600  0.54126647  0.62979089  1
  Al  Al14  1  0.43743744  0.43765506  0.29312745  1
  Al  Al15  1  0.54623261  0.55180978  0.05179699  1
  Al  Al16  1  0.10171729  0.43782731  0.81373248  1
  Al  Al17  1  0.21789512  0.54036684  0.55506723  1
  Al  Al18  1  0.80373832  0.42374961  0.36957685  1
  Al  Al19  1  0.11381662  0.75651683  0.31036676  1
  Al  Al20  1  0.22114025  0.87201489  0.05685392  1
  Al  Al21  1  0.77558468  0.77096396  0.81458606  1
  Al  Al22  1  0.89783019  0.85728927  0.56273916  1
  Al  Al23  1  0.44378561  0.75631269  0.30210841  1
  Al  Al24  1  0.54866568  0.88563766  0.12543281  1
  Al  Al25  1  0.10156391  0.76779576  0.80760754  1
  Al  Al26  1  0.21357347  0.87496601  0.55610173  1
  Al  Al27  1  0.78470566  0.75775340  0.31117106  1
  Al  Al28  1  0.89164357  0.87595086  0.05641480  1
  Al  Al29  1  0.42976922  0.77565466  0.80578994  1
  Al  Al30  1  0.55709076  0.87885898  0.62628081  1
  Gd  Gd31  1  0.21904331  0.20680605  0.57699094  1
  Gd  Gd32  1  0.77388659  0.10218057  0.35946911  1
  Gd  Gd33  1  0.89451829  0.54031307  0.08443054  1
  Gd  Gd34  1  0.42876646  0.42536447  0.83382960  1
  Gd  Gd35  1  0.55222313  0.53733705  0.56730354  1
  N  N36  1  0.22561446  0.20045067  0.35708496  1
  N  N37  1  0.11983978  0.09062155  0.10482207  1
  N  N38  1  0.87626748  0.21178194  0.81938372  1
  N  N39  1  0.78331998  0.09065977  0.57880132  1
  N  N40  1  0.52298809  0.21734698  0.29405916  1
  N  N41  1  0.44790511  0.09095478  0.05706503  1
  N  N42  1  0.21552871  0.21058342  0.85809090  1
  N  N43  1  0.10212633  0.07106621  0.63277545  1
  N  N44  1  0.90573341  0.22123083  0.29882934  1
  N  N45  1  0.77374470  0.10255784  0.06954324  1
  N  N46  1  0.57484554  0.16425517  0.81410995  1
  N  N47  1  0.48489465  0.07214884  0.54990975  1
  N  N48  1  0.22851771  0.53831931  0.36532632  1
  N  N49  1  0.15489845  0.40427084  0.12239444  1
  N  N50  1  0.87771119  0.53993510  0.83172418  1
  N  N51  1  0.82096080  0.40393072  0.55963915  1
  N  N52  1  0.56310363  0.53293570  0.34633206  1
  N  N53  1  0.43790335  0.44087363  0.09547785  1
  N  N54  1  0.17398666  0.56549325  0.88576635  1
  N  N55  1  0.10017800  0.46022396  0.63209361  1
  N  N56  1  0.90034330  0.53684782  0.31725021  1
  N  N57  1  0.76356003  0.41290182  0.05281360  1
  N  N58  1  0.55225729  0.56377091  0.85655587  1
  N  N59  1  0.42847521  0.40438850  0.61357818  1
  N  N60  1  0.22231436  0.87212541  0.36483906  1
  N  N61  1  0.10692602  0.76724368  0.12351651  1
  N  N62  1  0.89149328  0.87253915  0.86888249  1
  N  N63  1  0.78012326  0.76207566  0.62386941  1
  N  N64  1  0.55518376  0.87295189  0.31365491  1
  N  N65  1  0.43906970  0.76385980  0.11351814  1
  N  N66  1  0.21702672  0.87106418  0.87258501  1
  N  N67  1  0.11770185  0.75558985  0.61953798  1
  N  N68  1  0.90890409  0.83810036  0.37867361  1
  N  N69  1  0.76587388  0.79674466  0.11353209  1
  N  N70  1  0.55125703  0.87611592  0.81759264  1
  N  N71  1  0.42144968  0.79297387  0.61958882  1
