# generated using pymatgen
data_Gd5Al31N36
_symmetry_space_group_name_H-M   'P 1'
_cell_length_a   9.70657839
_cell_length_b   9.71793356
_cell_length_c   10.23433143
_cell_angle_alpha   89.87801944
_cell_angle_beta   90.04258613
_cell_angle_gamma   60.03909788
_symmetry_Int_Tables_number   1
_chemical_formula_structural   Gd5Al31N36
_chemical_formula_sum   'Gd5 Al31 N36'
_cell_volume   836.37152643
_cell_formula_units_Z   1
loop_
 _symmetry_equiv_pos_site_id
 _symmetry_equiv_pos_as_xyz
  1  'x, y, z'
loop_
 _atom_site_type_symbol
 _atom_site_label
 _atom_site_symmetry_multiplicity
 _atom_site_fract_x
 _atom_site_fract_y
 _atom_site_fract_z
 _atom_site_occupancy
  Al  Al0  1  0.11489585  0.09524268  0.29798681  1
  Al  Al1  1  0.22762125  0.20299697  0.05202671  1
  Al  Al2  1  0.78050486  0.08952740  0.80132341  1
  Al  Al3  1  0.89477014  0.20081721  0.55993090  1
  Al  Al4  1  0.43958208  0.09394726  0.29737237  1
  Al  Al5  1  0.56108894  0.19523289  0.05184902  1
  Al  Al6  1  0.10804788  0.08832976  0.81041067  1
  Al  Al7  1  0.88767815  0.20198941  0.04670325  1
  Al  Al8  1  0.45587330  0.08270038  0.80777663  1
  Al  Al9  1  0.55310062  0.20190241  0.55228468  1
  Al  Al10  1  0.11893098  0.42232028  0.30293139  1
  Al  Al11  1  0.21682178  0.54392289  0.05997608  1
  Al  Al12  1  0.78690437  0.42701744  0.80155393  1
  Al  Al13  1  0.89060547  0.54338650  0.55221106  1
  Al  Al14  1  0.43763844  0.42830040  0.29426032  1
  Al  Al15  1  0.55680901  0.54026435  0.06003261  1
  Al  Al16  1  0.10025149  0.44058694  0.80020359  1
  Al  Al17  1  0.21623993  0.54445934  0.54738705  1
  Al  Al18  1  0.78194047  0.42341734  0.30264827  1
  Al  Al19  1  0.11427593  0.75571145  0.30588854  1
  Al  Al20  1  0.22117510  0.87177476  0.05587549  1
  Al  Al21  1  0.77452595  0.76264424  0.79785264  1
  Al  Al22  1  0.89474044  0.86272869  0.56105745  1
  Al  Al23  1  0.44196346  0.76496941  0.29806530  1
  Al  Al24  1  0.55343491  0.87943401  0.05579568  1
  Al  Al25  1  0.10569518  0.76487626  0.80536732  1
  Al  Al26  1  0.21549456  0.87401942  0.55776547  1
  Al  Al27  1  0.77666240  0.76271378  0.31095920  1
  Al  Al28  1  0.88746551  0.87767091  0.04677864  1
  Al  Al29  1  0.44312093  0.77274963  0.81141176  1
  Al  Al30  1  0.55758768  0.87609489  0.55553649  1
  Gd  Gd31  1  0.22209644  0.20166796  0.56504546  1
  Gd  Gd32  1  0.78302022  0.08942146  0.31105574  1
  Gd  Gd33  1  0.88638788  0.54483022  0.06132232  1
  Gd  Gd34  1  0.43748484  0.42891771  0.82111871  1
  Gd  Gd35  1  0.55413122  0.54504401  0.55413902  1
  N  N36  1  0.22433341  0.20095665  0.34485934  1
  N  N37  1  0.11011547  0.09456161  0.10679239  1
  N  N38  1  0.88642937  0.20703661  0.86006466  1
  N  N39  1  0.77674943  0.09450200  0.60390369  1
  N  N40  1  0.52601894  0.21741719  0.36357450  1
  N  N41  1  0.44394825  0.09408643  0.10952656  1
  N  N42  1  0.22246805  0.20702088  0.85404078  1
  N  N43  1  0.09564654  0.07479436  0.62840869  1
  N  N44  1  0.90940215  0.21702462  0.37447646  1
  N  N45  1  0.78196597  0.09265839  0.09278737  1
  N  N46  1  0.57257505  0.17448129  0.86905217  1
  N  N47  1  0.47653030  0.07804838  0.62426301  1
  N  N48  1  0.22345288  0.53881513  0.35767028  1
  N  N49  1  0.13979384  0.41200972  0.11957706  1
  N  N50  1  0.88588660  0.54338050  0.84478397  1
  N  N51  1  0.80824628  0.41316563  0.61620654  1
  N  N52  1  0.55312587  0.53859728  0.33553237  1
  N  N53  1  0.44336919  0.42658423  0.09811310  1
  N  N54  1  0.18294957  0.55993749  0.87765639  1
  N  N55  1  0.09736754  0.45915848  0.61434535  1
  N  N56  1  0.88879592  0.53833159  0.35408718  1
  N  N57  1  0.76898813  0.40707102  0.11912879  1
  N  N58  1  0.57296465  0.55497761  0.86644851  1
  N  N59  1  0.42844171  0.41495979  0.60285513  1
  N  N60  1  0.22160871  0.87232240  0.36289177  1
  N  N61  1  0.10733921  0.76513383  0.11653597  1
  N  N62  1  0.88771035  0.87154611  0.85552099  1
  N  N63  1  0.77429709  0.76021492  0.60992975  1
  N  N64  1  0.55294665  0.87279493  0.36479193  1
  N  N65  1  0.44389672  0.76563934  0.11095464  1
  N  N66  1  0.22197572  0.86837202  0.86933793  1
  N  N67  1  0.11704333  0.75678689  0.61610219  1
  N  N68  1  0.90837075  0.83805279  0.37818291  1
  N  N69  1  0.76198986  0.79865903  0.12580947  1
  N  N70  1  0.55991201  0.87021420  0.86893631  1
  N  N71  1  0.42612117  0.79765809  0.62369406  1
