# generated using pymatgen
data_Gd5Al31N36
_symmetry_space_group_name_H-M   'P 1'
_cell_length_a   9.72326667
_cell_length_b   9.77173104
_cell_length_c   10.22933506
_cell_angle_alpha   90.56515855
_cell_angle_beta   90.75053805
_cell_angle_gamma   59.99192031
_symmetry_Int_Tables_number   1
_chemical_formula_structural   Gd5Al31N36
_chemical_formula_sum   'Gd5 Al31 N36'
_cell_volume   841.56164282
_cell_formula_units_Z   1
loop_
 _symmetry_equiv_pos_site_id
 _symmetry_equiv_pos_as_xyz
  1  'x, y, z'
loop_
 _atom_site_type_symbol
 _atom_site_label
 _atom_site_symmetry_multiplicity
 _atom_site_fract_x
 _atom_site_fract_y
 _atom_site_fract_z
 _atom_site_occupancy
  Al  Al0  1  0.11063317  0.09316059  0.39063260  1
  Al  Al1  1  0.22708940  0.20029139  0.15328883  1
  Al  Al2  1  0.78664526  0.08244418  0.89971091  1
  Al  Al3  1  0.89381152  0.19698033  0.65686592  1
  Al  Al4  1  0.45087045  0.09105648  0.39165972  1
  Al  Al5  1  0.55512474  0.19743204  0.14068729  1
  Al  Al6  1  0.11352450  0.09327983  0.90358649  1
  Al  Al7  1  0.88851132  0.20694536  0.13825653  1
  Al  Al8  1  0.44646108  0.08240630  0.90577953  1
  Al  Al9  1  0.56606167  0.18345282  0.66277821  1
  Al  Al10  1  0.10900558  0.43427869  0.39856775  1
  Al  Al11  1  0.21457483  0.54764974  0.09763938  1
  Al  Al12  1  0.77717305  0.42954898  0.89070242  1
  Al  Al13  1  0.89058654  0.54028389  0.65100920  1
  Al  Al14  1  0.43119076  0.43393801  0.32088445  1
  Al  Al15  1  0.55471573  0.54587821  0.14726511  1
  Al  Al16  1  0.10985289  0.42143909  0.90331964  1
  Al  Al17  1  0.21755576  0.54106351  0.61344997  1
  Al  Al18  1  0.79515729  0.42389923  0.39952292  1
  Al  Al19  1  0.11400813  0.75790277  0.39367995  1
  Al  Al20  1  0.22036932  0.87522710  0.14587932  1
  Al  Al21  1  0.77326338  0.76971187  0.89064831  1
  Al  Al22  1  0.89270084  0.86852674  0.65452535  1
  Al  Al23  1  0.43727065  0.77771355  0.39012822  1
  Al  Al24  1  0.55372079  0.87778263  0.14526008  1
  Al  Al25  1  0.10443766  0.77158005  0.89975833  1
  Al  Al26  1  0.21420113  0.87631774  0.64470146  1
  Al  Al27  1  0.77964277  0.75828145  0.40527605  1
  Al  Al28  1  0.88729340  0.87517090  0.14546746  1
  Al  Al29  1  0.44628065  0.76649869  0.89406455  1
  Al  Al30  1  0.55963658  0.87283376  0.64531345  1
  Gd  Gd31  1  0.22946312  0.19846019  0.63454113  1
  Gd  Gd32  1  0.77992889  0.09878441  0.39698100  1
  Gd  Gd33  1  0.88151441  0.54517837  0.14051153  1
  Gd  Gd34  1  0.45224356  0.42274286  0.88200461  1
  Gd  Gd35  1  0.54917303  0.53905083  0.61233106  1
  N  N36  1  0.22471079  0.20343218  0.34999027  1
  N  N37  1  0.11294909  0.09383741  0.09095260  1
  N  N38  1  0.89181451  0.20350677  0.84545680  1
  N  N39  1  0.78084051  0.09139185  0.61654907  1
  N  N40  1  0.53174395  0.21434883  0.32381486  1
  N  N41  1  0.44118702  0.09146574  0.09257639  1
  N  N42  1  0.22408417  0.20182319  0.85579672  1
  N  N43  1  0.08991419  0.07866467  0.57509816  1
  N  N44  1  0.90373798  0.22419339  0.32095726  1
  N  N45  1  0.77934318  0.09404954  0.09442685  1
  N  N46  1  0.57493709  0.16162920  0.84960039  1
  N  N47  1  0.48508931  0.07323964  0.57371494  1
  N  N48  1  0.22018018  0.54148456  0.36029090  1
  N  N49  1  0.13502357  0.40850352  0.09213374  1
  N  N50  1  0.89019878  0.53832615  0.84651856  1
  N  N51  1  0.81301994  0.40470266  0.58685161  1
  N  N52  1  0.55853114  0.54255806  0.34654009  1
  N  N53  1  0.43970656  0.43520929  0.12421672  1
  N  N54  1  0.19296503  0.55511916  0.88697098  1
  N  N55  1  0.09450444  0.45291194  0.58564434  1
  N  N56  1  0.88764492  0.54356382  0.35756511  1
  N  N57  1  0.75656748  0.41586092  0.07475562  1
  N  N58  1  0.56904859  0.56079457  0.83158040  1
  N  N59  1  0.42722045  0.40196686  0.64608377  1
  N  N60  1  0.21913602  0.87336005  0.33245843  1
  N  N61  1  0.10484593  0.77411855  0.08989381  1
  N  N62  1  0.89350499  0.86884935  0.83985465  1
  N  N63  1  0.77915655  0.75886437  0.59623341  1
  N  N64  1  0.56101109  0.87023869  0.33307719  1
  N  N65  1  0.44399135  0.76385875  0.08849533  1
  N  N66  1  0.22123992  0.87430337  0.83806138  1
  N  N67  1  0.11172943  0.76175009  0.58868682  1
  N  N68  1  0.90009057  0.84514863  0.33205246  1
  N  N69  1  0.75968359  0.79602334  0.07465048  1
  N  N70  1  0.55140096  0.87394305  0.83438045  1
  N  N71  1  0.42194848  0.80289526  0.57596175  1
