# generated using pymatgen
data_Gd5Al31N36
_symmetry_space_group_name_H-M   'P 1'
_cell_length_a   9.74238094
_cell_length_b   9.76236386
_cell_length_c   10.21637466
_cell_angle_alpha   89.75702449
_cell_angle_beta   89.62585056
_cell_angle_gamma   60.04204386
_symmetry_Int_Tables_number   1
_chemical_formula_structural   Gd5Al31N36
_chemical_formula_sum   'Gd5 Al31 N36'
_cell_volume   841.82504266
_cell_formula_units_Z   1
loop_
 _symmetry_equiv_pos_site_id
 _symmetry_equiv_pos_as_xyz
  1  'x, y, z'
loop_
 _atom_site_type_symbol
 _atom_site_label
 _atom_site_symmetry_multiplicity
 _atom_site_fract_x
 _atom_site_fract_y
 _atom_site_fract_z
 _atom_site_occupancy
  Al  Al0  1  0.11302976  0.09685873  0.30351842  1
  Al  Al1  1  0.22355555  0.20445958  0.05411324  1
  Al  Al2  1  0.79345889  0.08403738  0.81549396  1
  Al  Al3  1  0.89962182  0.20003740  0.56578207  1
  Al  Al4  1  0.43472470  0.09260669  0.29359620  1
  Al  Al5  1  0.55173984  0.20538362  0.10379728  1
  Al  Al6  1  0.11060296  0.08768771  0.81500407  1
  Al  Al7  1  0.88601214  0.20303539  0.05465170  1
  Al  Al8  1  0.45331702  0.07790191  0.81837923  1
  Al  Al9  1  0.56588380  0.19121870  0.63459441  1
  Al  Al10  1  0.12080125  0.42242255  0.30830632  1
  Al  Al11  1  0.20961931  0.55078635  0.06410295  1
  Al  Al12  1  0.78880605  0.42669915  0.80692481  1
  Al  Al13  1  0.89065502  0.54251719  0.55629324  1
  Al  Al14  1  0.43191566  0.43993408  0.29175780  1
  Al  Al15  1  0.55735763  0.54634551  0.06307110  1
  Al  Al16  1  0.09974777  0.44134064  0.80358563  1
  Al  Al17  1  0.21954969  0.54104367  0.55503487  1
  Al  Al18  1  0.78070773  0.42534014  0.30764987  1
  Al  Al19  1  0.11234304  0.75779757  0.31236471  1
  Al  Al20  1  0.22003593  0.87326564  0.06147670  1
  Al  Al21  1  0.77570989  0.76162379  0.80303094  1
  Al  Al22  1  0.89839132  0.85788144  0.56631641  1
  Al  Al23  1  0.44086987  0.76638001  0.30430556  1
  Al  Al24  1  0.55339253  0.87689570  0.05853162  1
  Al  Al25  1  0.10663096  0.76391223  0.81062079  1
  Al  Al26  1  0.21768130  0.87247030  0.56227711  1
  Al  Al27  1  0.77587825  0.76322980  0.31524260  1
  Al  Al28  1  0.88447771  0.88032799  0.05523273  1
  Al  Al29  1  0.44504369  0.77044799  0.81367444  1
  Al  Al30  1  0.55915934  0.87132522  0.55858634  1
  Gd  Gd31  1  0.22656139  0.20199823  0.56940606  1
  Gd  Gd32  1  0.77822454  0.09284217  0.32777895  1
  Gd  Gd33  1  0.88800345  0.54482583  0.06707076  1
  Gd  Gd34  1  0.43740925  0.43139568  0.84300096  1
  Gd  Gd35  1  0.55458896  0.53599634  0.56153005  1
  N  N36  1  0.22375803  0.20126715  0.34930190  1
  N  N37  1  0.10783664  0.09602779  0.11222226  1
  N  N38  1  0.89050523  0.20668478  0.86721441  1
  N  N39  1  0.78824938  0.08735181  0.61042337  1
  N  N40  1  0.52163202  0.22355098  0.30114644  1
  N  N41  1  0.43803732  0.09061529  0.10239092  1
  N  N42  1  0.22104414  0.20798598  0.85798789  1
  N  N43  1  0.10046962  0.07398000  0.63235145  1
  N  N44  1  0.90777077  0.22009136  0.37945256  1
  N  N45  1  0.77889862  0.09501992  0.09900452  1
  N  N46  1  0.57666121  0.17381139  0.83852401  1
  N  N47  1  0.47507991  0.06837940  0.63080055  1
  N  N48  1  0.22361951  0.54078679  0.36431628  1
  N  N49  1  0.14125839  0.41233982  0.12456977  1
  N  N50  1  0.88645317  0.54287241  0.85005463  1
  N  N51  1  0.80906846  0.41190792  0.62148048  1
  N  N52  1  0.55140451  0.54108538  0.34143189  1
  N  N53  1  0.43582832  0.44189499  0.09353249  1
  N  N54  1  0.17835529  0.56151430  0.88201424  1
  N  N55  1  0.09637269  0.45929850  0.61776691  1
  N  N56  1  0.88837485  0.53903516  0.35799645  1
  N  N57  1  0.76706470  0.40992983  0.12365193  1
  N  N58  1  0.57590610  0.55585842  0.86982704  1
  N  N59  1  0.42849694  0.40730735  0.61563331  1
  N  N60  1  0.21982507  0.87415809  0.36758056  1
  N  N61  1  0.10427539  0.76837702  0.12273132  1
  N  N62  1  0.89020122  0.86894826  0.86395484  1
  N  N63  1  0.77541953  0.75870007  0.61465421  1
  N  N64  1  0.55167151  0.87501747  0.36767092  1
  N  N65  1  0.44220886  0.76739999  0.11652602  1
  N  N66  1  0.22350945  0.86746083  0.87383442  1
  N  N67  1  0.11945552  0.75483389  0.62102427  1
  N  N68  1  0.90683461  0.83746097  0.38284877  1
  N  N69  1  0.76003654  0.79854730  0.13003813  1
  N  N70  1  0.56180091  0.86596231  0.87294767  1
  N  N71  1  0.42933837  0.78998828  0.62550593  1
