# generated using pymatgen
data_Gd5Al31N36
_symmetry_space_group_name_H-M   'P 1'
_cell_length_a   9.75532129
_cell_length_b   9.74735914
_cell_length_c   10.39528887
_cell_angle_alpha   89.97089020
_cell_angle_beta   90.37344804
_cell_angle_gamma   60.26515544
_symmetry_Int_Tables_number   1
_chemical_formula_structural   Gd5Al31N36
_chemical_formula_sum   'Gd5 Al31 N36'
_cell_volume   858.29518789
_cell_formula_units_Z   1
loop_
 _symmetry_equiv_pos_site_id
 _symmetry_equiv_pos_as_xyz
  1  'x, y, z'
loop_
 _atom_site_type_symbol
 _atom_site_label
 _atom_site_symmetry_multiplicity
 _atom_site_fract_x
 _atom_site_fract_y
 _atom_site_fract_z
 _atom_site_occupancy
  Al  Al0  1  0.12704774  0.09081686  0.29457882  1
  Al  Al1  1  0.22482321  0.20410970  0.05317950  1
  Al  Al2  1  0.77740527  0.09684006  0.87549917  1
  Al  Al3  1  0.88626541  0.19894200  0.63329148  1
  Al  Al4  1  0.45135415  0.08863490  0.36853312  1
  Al  Al5  1  0.54770005  0.20553911  0.11443089  1
  Al  Al6  1  0.10849924  0.08790928  0.81517926  1
  Al  Al7  1  0.88562807  0.20931600  0.11678026  1
  Al  Al8  1  0.45320011  0.08085337  0.87636668  1
  Al  Al9  1  0.56979615  0.18183850  0.62944490  1
  Al  Al10  1  0.13182978  0.41612270  0.30410051  1
  Al  Al11  1  0.21380623  0.54937848  0.06372300  1
  Al  Al12  1  0.77316135  0.42640390  0.87200116  1
  Al  Al13  1  0.88478586  0.54288989  0.63225653  1
  Al  Al14  1  0.43766421  0.43793536  0.29296978  1
  Al  Al15  1  0.54589411  0.55208385  0.05138375  1
  Al  Al16  1  0.10109275  0.43866912  0.81410542  1
  Al  Al17  1  0.21797950  0.54014989  0.55534448  1
  Al  Al18  1  0.80372057  0.42219909  0.37132520  1
  Al  Al19  1  0.11427131  0.75646589  0.30971550  1
  Al  Al20  1  0.22124489  0.87210540  0.05666153  1
  Al  Al21  1  0.77141964  0.77149334  0.84535829  1
  Al  Al22  1  0.89828327  0.85887693  0.56545868  1
  Al  Al23  1  0.44464143  0.75600397  0.30119132  1
  Al  Al24  1  0.55278901  0.88289069  0.12217078  1
  Al  Al25  1  0.10257340  0.76781527  0.80646013  1
  Al  Al26  1  0.21417141  0.87483664  0.55591774  1
  Al  Al27  1  0.78289041  0.75143612  0.35183431  1
  Al  Al28  1  0.89236152  0.87603016  0.05303720  1
  Al  Al29  1  0.42968365  0.77610647  0.80505882  1
  Al  Al30  1  0.55927555  0.87790119  0.62722150  1
  Gd  Gd31  1  0.21914843  0.20667679  0.57764294  1
  Gd  Gd32  1  0.77406240  0.10222542  0.35890701  1
  Gd  Gd33  1  0.89171362  0.53993996  0.09240276  1
  Gd  Gd34  1  0.42866889  0.42576882  0.83382157  1
  Gd  Gd35  1  0.55241522  0.53755193  0.56813114  1
  N  N36  1  0.22627850  0.19992974  0.35671195  1
  N  N37  1  0.11948674  0.09070154  0.10461834  1
  N  N38  1  0.87632674  0.21262074  0.81962034  1
  N  N39  1  0.78304485  0.09115134  0.57889102  1
  N  N40  1  0.52295929  0.21792220  0.29409604  1
  N  N41  1  0.44673012  0.09132164  0.05798629  1
  N  N42  1  0.21521072  0.21099056  0.85806400  1
  N  N43  1  0.10204629  0.07088394  0.63258935  1
  N  N44  1  0.90600415  0.22148219  0.29876273  1
  N  N45  1  0.77380743  0.10178942  0.07044420  1
  N  N46  1  0.57433892  0.16486694  0.81458424  1
  N  N47  1  0.48491251  0.07185130  0.54950959  1
  N  N48  1  0.22860822  0.53858029  0.36517167  1
  N  N49  1  0.15427228  0.40501798  0.12260566  1
  N  N50  1  0.87684690  0.54116677  0.83009572  1
  N  N51  1  0.82127578  0.40347811  0.56028574  1
  N  N52  1  0.56366251  0.53322882  0.34639272  1
  N  N53  1  0.43758984  0.44122435  0.09543499  1
  N  N54  1  0.17398357  0.56604803  0.88546094  1
  N  N55  1  0.10012618  0.46019200  0.63209607  1
  N  N56  1  0.89991072  0.53737025  0.31977872  1
  N  N57  1  0.76297051  0.41228266  0.05263260  1
  N  N58  1  0.55225162  0.56439323  0.85628780  1
  N  N59  1  0.42870310  0.40429909  0.61331443  1
  N  N60  1  0.22325750  0.87215488  0.36423397  1
  N  N61  1  0.10612319  0.76742523  0.12310581  1
  N  N62  1  0.89390533  0.87562719  0.86373299  1
  N  N63  1  0.77766514  0.75910149  0.60405283  1
  N  N64  1  0.56161316  0.87095102  0.31091323  1
  N  N65  1  0.43896208  0.76410404  0.11374834  1
  N  N66  1  0.21777733  0.87112194  0.87242011  1
  N  N67  1  0.11873180  0.75518474  0.61879939  1
  N  N68  1  0.91031714  0.83934296  0.37812709  1
  N  N69  1  0.75904208  0.79451010  0.06876160  1
  N  N70  1  0.55070338  0.87745476  0.81515523  1
  N  N71  1  0.42157104  0.79313777  0.61892608  1
