# generated using pymatgen
data_Gd5Al31N36
_symmetry_space_group_name_H-M   'P 1'
_cell_length_a   9.72035168
_cell_length_b   9.76995934
_cell_length_c   10.26846643
_cell_angle_alpha   90.57278568
_cell_angle_beta   90.84372404
_cell_angle_gamma   59.96432834
_symmetry_Int_Tables_number   1
_chemical_formula_structural   Gd5Al31N36
_chemical_formula_sum   'Gd5 Al31 N36'
_cell_volume   844.12282753
_cell_formula_units_Z   1
loop_
 _symmetry_equiv_pos_site_id
 _symmetry_equiv_pos_as_xyz
  1  'x, y, z'
loop_
 _atom_site_type_symbol
 _atom_site_label
 _atom_site_symmetry_multiplicity
 _atom_site_fract_x
 _atom_site_fract_y
 _atom_site_fract_z
 _atom_site_occupancy
  Al  Al0  1  0.11110870  0.09332712  0.39217956  1
  Al  Al1  1  0.22685223  0.20027471  0.15384144  1
  Al  Al2  1  0.78560522  0.08386047  0.89960436  1
  Al  Al3  1  0.89438552  0.19695363  0.65710895  1
  Al  Al4  1  0.45126756  0.09065141  0.39228948  1
  Al  Al5  1  0.55426975  0.19854907  0.14159677  1
  Al  Al6  1  0.11288377  0.09466389  0.90453588  1
  Al  Al7  1  0.88781513  0.20685573  0.13934628  1
  Al  Al8  1  0.44678465  0.08269669  0.90671963  1
  Al  Al9  1  0.56599938  0.18442018  0.66177725  1
  Al  Al10  1  0.10710480  0.42964340  0.39876355  1
  Al  Al11  1  0.21430645  0.54769310  0.08720827  1
  Al  Al12  1  0.77689382  0.42943965  0.89148753  1
  Al  Al13  1  0.89283413  0.53930894  0.65090331  1
  Al  Al14  1  0.43310198  0.43276989  0.32166062  1
  Al  Al15  1  0.55370974  0.54571393  0.14700709  1
  Al  Al16  1  0.10823110  0.42181988  0.90577329  1
  Al  Al17  1  0.22188792  0.54106120  0.58172772  1
  Al  Al18  1  0.79424811  0.42319265  0.40028428  1
  Al  Al19  1  0.11444891  0.75862987  0.37167860  1
  Al  Al20  1  0.22174037  0.87657080  0.14387911  1
  Al  Al21  1  0.77237683  0.76965444  0.89077026  1
  Al  Al22  1  0.89499745  0.86670508  0.65612204  1
  Al  Al23  1  0.43842558  0.77721282  0.39095715  1
  Al  Al24  1  0.55326099  0.87815014  0.14599989  1
  Al  Al25  1  0.10546605  0.77132528  0.89352581  1
  Al  Al26  1  0.21378372  0.87603936  0.64447514  1
  Al  Al27  1  0.77971016  0.75712161  0.40638902  1
  Al  Al28  1  0.88405230  0.87645137  0.14251335  1
  Al  Al29  1  0.44691582  0.76683104  0.89468162  1
  Al  Al30  1  0.55978889  0.87310575  0.64532766  1
  Gd  Gd31  1  0.23072474  0.19956433  0.63758371  1
  Gd  Gd32  1  0.78171162  0.09569668  0.39906267  1
  Gd  Gd33  1  0.87964579  0.54618073  0.14152026  1
  Gd  Gd34  1  0.44942505  0.42338727  0.87688037  1
  Gd  Gd35  1  0.54953844  0.53985340  0.61390543  1
  N  N36  1  0.22536275  0.20233732  0.34924238  1
  N  N37  1  0.11190966  0.09503495  0.09096581  1
  N  N38  1  0.89170131  0.20397892  0.84538109  1
  N  N39  1  0.78155524  0.09081893  0.61769691  1
  N  N40  1  0.53328435  0.21325560  0.32452030  1
  N  N41  1  0.44103137  0.09188030  0.09307501  1
  N  N42  1  0.22366879  0.20333472  0.85820190  1
  N  N43  1  0.09108245  0.07977647  0.57575979  1
  N  N44  1  0.90343381  0.22285638  0.32194058  1
  N  N45  1  0.77784158  0.09524949  0.09348825  1
  N  N46  1  0.57410236  0.16228294  0.84870529  1
  N  N47  1  0.48549745  0.07334103  0.57333584  1
  N  N48  1  0.22700471  0.53801178  0.38174957  1
  N  N49  1  0.13359631  0.40929651  0.09639784  1
  N  N50  1  0.89014907  0.53831096  0.84667433  1
  N  N51  1  0.81293596  0.40482138  0.58700302  1
  N  N52  1  0.55860914  0.54252429  0.34651270  1
  N  N53  1  0.43693388  0.43638953  0.12686888  1
  N  N54  1  0.19194019  0.55570496  0.89848541  1
  N  N55  1  0.09544873  0.45108556  0.58409181  1
  N  N56  1  0.88699596  0.54273316  0.35751871  1
  N  N57  1  0.75596245  0.41563456  0.07515930  1
  N  N58  1  0.56858098  0.56088612  0.83257471  1
  N  N59  1  0.42563531  0.40350400  0.64514731  1
  N  N60  1  0.22130230  0.87474534  0.33026494  1
  N  N61  1  0.10555763  0.77276503  0.09908124  1
  N  N62  1  0.89211969  0.86958089  0.84202915  1
  N  N63  1  0.77952964  0.75840074  0.59655707  1
  N  N64  1  0.56142797  0.86988484  0.33334350  1
  N  N65  1  0.44473513  0.76386264  0.08818400  1
  N  N66  1  0.22204492  0.87583812  0.83989631  1
  N  N67  1  0.11151286  0.76201139  0.59755450  1
  N  N68  1  0.89801990  0.84358613  0.32835124  1
  N  N69  1  0.75766271  0.79610558  0.07359312  1
  N  N70  1  0.55080783  0.87476292  0.83390810  1
  N  N71  1  0.42210722  0.80316210  0.57574251  1
