# generated using pymatgen
data_Gd5Al31N36
_symmetry_space_group_name_H-M   'P 1'
_cell_length_a   9.76043394
_cell_length_b   9.72108342
_cell_length_c   10.36957402
_cell_angle_alpha   89.95361975
_cell_angle_beta   89.99458327
_cell_angle_gamma   60.16466611
_symmetry_Int_Tables_number   1
_chemical_formula_structural   Gd5Al31N36
_chemical_formula_sum   'Gd5 Al31 N36'
_cell_volume   853.48010854
_cell_formula_units_Z   1
loop_
 _symmetry_equiv_pos_site_id
 _symmetry_equiv_pos_as_xyz
  1  'x, y, z'
loop_
 _atom_site_type_symbol
 _atom_site_label
 _atom_site_symmetry_multiplicity
 _atom_site_fract_x
 _atom_site_fract_y
 _atom_site_fract_z
 _atom_site_occupancy
  Al  Al0  1  0.11856251  0.09619922  0.30098962  1
  Al  Al1  1  0.22364084  0.20649933  0.05383824  1
  Al  Al2  1  0.77816506  0.09221164  0.87819461  1
  Al  Al3  1  0.89389965  0.19507871  0.59820588  1
  Al  Al4  1  0.44753666  0.09096015  0.37059215  1
  Al  Al5  1  0.54570342  0.20585295  0.11395651  1
  Al  Al6  1  0.10805220  0.08759516  0.82055706  1
  Al  Al7  1  0.88836273  0.20966966  0.06772253  1
  Al  Al8  1  0.45624994  0.07859380  0.87446163  1
  Al  Al9  1  0.57140957  0.18260247  0.63038504  1
  Al  Al10  1  0.12322619  0.41716009  0.31132430  1
  Al  Al11  1  0.21317813  0.54823507  0.06278953  1
  Al  Al12  1  0.78419499  0.43169520  0.80992897  1
  Al  Al13  1  0.89202977  0.54061040  0.55497089  1
  Al  Al14  1  0.42984627  0.43889718  0.28913318  1
  Al  Al15  1  0.55378874  0.55028872  0.05602757  1
  Al  Al16  1  0.09681998  0.44405408  0.80252218  1
  Al  Al17  1  0.22025886  0.53964380  0.55417405  1
  Al  Al18  1  0.77844806  0.42959756  0.29806112  1
  Al  Al19  1  0.11303338  0.75679205  0.31091603  1
  Al  Al20  1  0.22212748  0.87210275  0.05863838  1
  Al  Al21  1  0.78354940  0.76231598  0.80155292  1
  Al  Al22  1  0.89911650  0.85742352  0.56089105  1
  Al  Al23  1  0.43536269  0.76201448  0.30232526  1
  Al  Al24  1  0.54801443  0.88666922  0.13084404  1
  Al  Al25  1  0.10324903  0.76666155  0.80938864  1
  Al  Al26  1  0.21466269  0.87123572  0.55934948  1
  Al  Al27  1  0.78129202  0.75922800  0.31517835  1
  Al  Al28  1  0.89110106  0.87462141  0.06067446  1
  Al  Al29  1  0.43864888  0.76994830  0.80864586  1
  Al  Al30  1  0.56034151  0.87406600  0.62190337  1
  Gd  Gd31  1  0.22586258  0.19951294  0.58493778  1
  Gd  Gd32  1  0.77277705  0.09886487  0.34960518  1
  Gd  Gd33  1  0.89332111  0.54727750  0.06282736  1
  Gd  Gd34  1  0.43516633  0.42872807  0.83602516  1
  Gd  Gd35  1  0.55692925  0.53256620  0.55606709  1
  N  N36  1  0.22417902  0.20047265  0.36254238  1
  N  N37  1  0.11551289  0.09458564  0.10896872  1
  N  N38  1  0.88797967  0.21098880  0.87015467  1
  N  N39  1  0.78377925  0.08912446  0.57967874  1
  N  N40  1  0.51768663  0.21975860  0.29309478  1
  N  N41  1  0.44722393  0.08988519  0.05662505  1
  N  N42  1  0.21732308  0.21170154  0.85523431  1
  N  N43  1  0.10018541  0.06876079  0.63900586  1
  N  N44  1  0.90741226  0.21936228  0.34152979  1
  N  N45  1  0.77076043  0.10100103  0.07430566  1
  N  N46  1  0.57629052  0.16658161  0.81553091  1
  N  N47  1  0.48781445  0.07129921  0.55139466  1
  N  N48  1  0.22469847  0.53922242  0.36515054  1
  N  N49  1  0.14562094  0.40932348  0.12854703  1
  N  N50  1  0.88469754  0.54599463  0.84971601  1
  N  N51  1  0.80953210  0.41113513  0.62537553  1
  N  N52  1  0.55152025  0.53718124  0.33867697  1
  N  N53  1  0.43713273  0.44058111  0.09135596  1
  N  N54  1  0.17801299  0.56168034  0.88245181  1
  N  N55  1  0.09641703  0.45929380  0.61890085  1
  N  N56  1  0.88807411  0.53783816  0.36061529  1
  N  N57  1  0.76270370  0.42368880  0.11541993  1
  N  N58  1  0.57006909  0.55785264  0.86703921  1
  N  N59  1  0.42969775  0.40623707  0.61442098  1
  N  N60  1  0.21889689  0.87321083  0.36739718  1
  N  N61  1  0.10756307  0.76706122  0.12332333  1
  N  N62  1  0.89142742  0.86863155  0.87087721  1
  N  N63  1  0.78393660  0.75534340  0.61434355  1
  N  N64  1  0.54981292  0.87417457  0.31891975  1
  N  N65  1  0.43818332  0.76677551  0.11408776  1
  N  N66  1  0.22243908  0.86701874  0.87401385  1
  N  N67  1  0.11698125  0.75462545  0.62117284  1
  N  N68  1  0.90998238  0.83587492  0.37879721  1
  N  N69  1  0.76902774  0.79551056  0.13075663  1
  N  N70  1  0.55753116  0.87379918  0.81336379  1
  N  N71  1  0.42424518  0.78662061  0.62035515  1
