# generated using pymatgen
data_Gd5Al31N36
_symmetry_space_group_name_H-M   'P 1'
_cell_length_a   9.70891766
_cell_length_b   9.72060188
_cell_length_c   10.49635412
_cell_angle_alpha   90.13959274
_cell_angle_beta   90.39472088
_cell_angle_gamma   60.23379964
_symmetry_Int_Tables_number   1
_chemical_formula_structural   Gd5Al31N36
_chemical_formula_sum   'Gd5 Al31 N36'
_cell_volume   859.88593431
_cell_formula_units_Z   1
loop_
 _symmetry_equiv_pos_site_id
 _symmetry_equiv_pos_as_xyz
  1  'x, y, z'
loop_
 _atom_site_type_symbol
 _atom_site_label
 _atom_site_symmetry_multiplicity
 _atom_site_fract_x
 _atom_site_fract_y
 _atom_site_fract_z
 _atom_site_occupancy
  Al  Al0  1  0.12928409  0.08893167  0.31347032  1
  Al  Al1  1  0.22202100  0.20604030  0.07213135  1
  Al  Al2  1  0.77671731  0.09811246  0.89536360  1
  Al  Al3  1  0.88601193  0.19794772  0.65597939  1
  Al  Al4  1  0.45373449  0.08630228  0.38863224  1
  Al  Al5  1  0.54718252  0.20581163  0.13426494  1
  Al  Al6  1  0.10891422  0.08847230  0.83517219  1
  Al  Al7  1  0.88630318  0.20856052  0.13698629  1
  Al  Al8  1  0.45216347  0.08194626  0.89554238  1
  Al  Al9  1  0.56923408  0.18109995  0.65060238  1
  Al  Al10  1  0.13515481  0.41466286  0.32640089  1
  Al  Al11  1  0.21170500  0.54914307  0.08290144  1
  Al  Al12  1  0.77501999  0.42944706  0.89337327  1
  Al  Al13  1  0.88230836  0.54443234  0.65165700  1
  Al  Al14  1  0.43928104  0.43748787  0.31180352  1
  Al  Al15  1  0.54592140  0.55141960  0.07008272  1
  Al  Al16  1  0.09687782  0.44233405  0.83415385  1
  Al  Al17  1  0.21789908  0.53978842  0.57529256  1
  Al  Al18  1  0.80759842  0.41780129  0.39613735  1
  Al  Al19  1  0.11500973  0.75654847  0.32933364  1
  Al  Al20  1  0.22274565  0.87129153  0.07602359  1
  Al  Al21  1  0.76634760  0.77211366  0.89089272  1
  Al  Al22  1  0.90072123  0.85963848  0.58409149  1
  Al  Al23  1  0.44788333  0.75493346  0.32056676  1
  Al  Al24  1  0.55379520  0.88384263  0.14386148  1
  Al  Al25  1  0.10195329  0.76842946  0.82666080  1
  Al  Al26  1  0.21509707  0.87428456  0.57602507  1
  Al  Al27  1  0.78252392  0.74758709  0.40480404  1
  Al  Al28  1  0.89344498  0.87663474  0.07120732  1
  Al  Al29  1  0.43127092  0.77602956  0.82389477  1
  Al  Al30  1  0.56096443  0.87595056  0.64558682  1
  Gd  Gd31  1  0.21719876  0.20798687  0.59575074  1
  Gd  Gd32  1  0.77442206  0.10202546  0.38073925  1
  Gd  Gd33  1  0.88212880  0.54528912  0.13488689  1
  Gd  Gd34  1  0.42746896  0.42840869  0.85132228  1
  Gd  Gd35  1  0.55197757  0.53659273  0.58523332  1
  N  N36  1  0.22792635  0.19854202  0.37686348  1
  N  N37  1  0.12063410  0.08932764  0.12540234  1
  N  N38  1  0.87587648  0.21429889  0.84001582  1
  N  N39  1  0.78313661  0.08977114  0.60007937  1
  N  N40  1  0.52331479  0.21689042  0.31256493  1
  N  N41  1  0.44602325  0.09137779  0.07653333  1
  N  N42  1  0.21288569  0.21342442  0.87944701  1
  N  N43  1  0.10311728  0.06997381  0.65425052  1
  N  N44  1  0.90699572  0.22063957  0.31748144  1
  N  N45  1  0.77332170  0.10174406  0.08952922  1
  N  N46  1  0.57279250  0.16711005  0.83438787  1
  N  N47  1  0.48487332  0.07113150  0.56887110  1
  N  N48  1  0.23085864  0.53814375  0.38602312  1
  N  N49  1  0.14762476  0.40805365  0.14388168  1
  N  N50  1  0.87088667  0.54883770  0.84290172  1
  N  N51  1  0.82190136  0.40011220  0.58163277  1
  N  N52  1  0.56679926  0.53154650  0.36637823  1
  N  N53  1  0.43685937  0.44111484  0.11617337  1
  N  N54  1  0.17307250  0.56683613  0.90636047  1
  N  N55  1  0.09918745  0.46144276  0.65318605  1
  N  N56  1  0.90311559  0.53599491  0.35081744  1
  N  N57  1  0.76599332  0.41206497  0.07186117  1
  N  N58  1  0.55210543  0.56603673  0.87987944  1
  N  N59  1  0.42884431  0.40366304  0.63338502  1
  N  N60  1  0.22590175  0.87108533  0.38491374  1
  N  N61  1  0.10576391  0.76729239  0.14340497  1
  N  N62  1  0.89301829  0.87663482  0.88265155  1
  N  N63  1  0.77293277  0.75304698  0.59072017  1
  N  N64  1  0.56782379  0.86801456  0.32950892  1
  N  N65  1  0.44079770  0.76309206  0.13495495  1
  N  N66  1  0.21887178  0.87150788  0.89296910  1
  N  N67  1  0.11930341  0.75456067  0.64005970  1
  N  N68  1  0.91265293  0.84012577  0.39859662  1
  N  N69  1  0.75546949  0.79435205  0.07276406  1
  N  N70  1  0.55401378  0.87811663  0.82995054  1
  N  N71  1  0.42241774  0.79108904  0.63992485  1
