# generated using pymatgen
data_Gd5Al31N36
_symmetry_space_group_name_H-M   'P 1'
_cell_length_a   9.70823689
_cell_length_b   9.71434155
_cell_length_c   10.23502705
_cell_angle_alpha   90.05008231
_cell_angle_beta   90.08563229
_cell_angle_gamma   59.97746975
_symmetry_Int_Tables_number   1
_chemical_formula_structural   Gd5Al31N36
_chemical_formula_sum   'Gd5 Al31 N36'
_cell_volume   835.74584912
_cell_formula_units_Z   1
loop_
 _symmetry_equiv_pos_site_id
 _symmetry_equiv_pos_as_xyz
  1  'x, y, z'
loop_
 _atom_site_type_symbol
 _atom_site_label
 _atom_site_symmetry_multiplicity
 _atom_site_fract_x
 _atom_site_fract_y
 _atom_site_fract_z
 _atom_site_occupancy
  Al  Al0  1  0.11093600  0.09252583  0.39378899  1
  Al  Al1  1  0.22933726  0.20198336  0.15341051  1
  Al  Al2  1  0.78151969  0.08753421  0.90299867  1
  Al  Al3  1  0.89268346  0.19775090  0.66160590  1
  Al  Al4  1  0.45011154  0.08900647  0.39713855  1
  Al  Al5  1  0.55237039  0.20585539  0.15464467  1
  Al  Al6  1  0.11295934  0.09298996  0.90848472  1
  Al  Al7  1  0.88895255  0.20582487  0.14427273  1
  Al  Al8  1  0.44629901  0.08715796  0.90942855  1
  Al  Al9  1  0.56166341  0.19247082  0.65757535  1
  Al  Al10  1  0.10759263  0.43463605  0.40540837  1
  Al  Al11  1  0.22540663  0.54037448  0.16025286  1
  Al  Al12  1  0.77683464  0.42831922  0.90095056  1
  Al  Al13  1  0.89263244  0.54039910  0.65630344  1
  Al  Al14  1  0.43423816  0.42342384  0.39922624  1
  Al  Al15  1  0.55399553  0.53908204  0.16395071  1
  Al  Al16  1  0.11288556  0.42693849  0.90270207  1
  Al  Al17  1  0.20945729  0.54591725  0.64841834  1
  Al  Al18  1  0.79362851  0.42361389  0.40671509  1
  Al  Al19  1  0.11351226  0.75591195  0.40079196  1
  Al  Al20  1  0.22176357  0.87114251  0.14964453  1
  Al  Al21  1  0.77186548  0.76956227  0.89661668  1
  Al  Al22  1  0.89104180  0.86994136  0.65985790  1
  Al  Al23  1  0.43704471  0.77557424  0.39686778  1
  Al  Al24  1  0.55396657  0.87744980  0.15095954  1
  Al  Al25  1  0.10589734  0.76417382  0.90121037  1
  Al  Al26  1  0.21220087  0.87590204  0.64907306  1
  Al  Al27  1  0.77925022  0.75688750  0.40901581  1
  Al  Al28  1  0.88962608  0.87138146  0.14661246  1
  Al  Al29  1  0.44530554  0.76716205  0.90447867  1
  Al  Al30  1  0.55856826  0.87568088  0.65164635  1
  Gd  Gd31  1  0.22617783  0.19723622  0.63927591  1
  Gd  Gd32  1  0.78502651  0.09231526  0.40064348  1
  Gd  Gd33  1  0.88822266  0.54142760  0.14394468  1
  Gd  Gd34  1  0.44088159  0.43052763  0.90494766  1
  Gd  Gd35  1  0.55327183  0.54560404  0.62880739  1
  N  N36  1  0.22431977  0.20435881  0.35178636  1
  N  N37  1  0.11390010  0.09314763  0.09555796  1
  N  N38  1  0.89165656  0.20385157  0.85042249  1
  N  N39  1  0.77971525  0.09301352  0.61984945  1
  N  N40  1  0.53337573  0.21395328  0.33650138  1
  N  N41  1  0.44504981  0.09340128  0.09720515  1
  N  N42  1  0.22376385  0.20315052  0.86055220  1
  N  N43  1  0.08834418  0.07844549  0.57847460  1
  N  N44  1  0.90383943  0.22350413  0.32655379  1
  N  N45  1  0.77854435  0.09367310  0.09910827  1
  N  N46  1  0.56709821  0.17638630  0.84465899  1
  N  N47  1  0.48164420  0.07561451  0.57941989  1
  N  N48  1  0.21849080  0.54063034  0.34629811  1
  N  N49  1  0.14533694  0.41393744  0.08881023  1
  N  N50  1  0.88954556  0.53876457  0.85313412  1
  N  N51  1  0.81450145  0.40610422  0.59361122  1
  N  N52  1  0.55752212  0.53990525  0.36219745  1
  N  N53  1  0.44436173  0.43186477  0.12321373  1
  N  N54  1  0.19103313  0.55595323  0.83289614  1
  N  N55  1  0.09642888  0.45328502  0.58835818  1
  N  N56  1  0.88781595  0.54210977  0.36130205  1
  N  N57  1  0.75808706  0.41638888  0.08504416  1
  N  N58  1  0.56635342  0.55765605  0.84511762  1
  N  N59  1  0.42697261  0.40783109  0.59362581  1
  N  N60  1  0.21879695  0.87099754  0.33683071  1
  N  N61  1  0.11331042  0.75875611  0.09075564  1
  N  N62  1  0.89080060  0.87124293  0.84623321  1
  N  N63  1  0.77809541  0.75993540  0.60087016  1
  N  N64  1  0.56087624  0.86911775  0.33866148  1
  N  N65  1  0.44525706  0.76170478  0.09763802  1
  N  N66  1  0.22132577  0.87260624  0.84330864  1
  N  N67  1  0.10945022  0.76224481  0.59048581  1
  N  N68  1  0.90310349  0.83982326  0.33310734  1
  N  N69  1  0.75997254  0.79337700  0.07982827  1
  N  N70  1  0.55096555  0.87535108  0.84100111  1
  N  N71  1  0.42044001  0.80641910  0.58210721  1
