# generated using pymatgen
data_Gd5Al31N36
_symmetry_space_group_name_H-M   'P 1'
_cell_length_a   9.72787084
_cell_length_b   9.76589420
_cell_length_c   10.28390985
_cell_angle_alpha   90.58336459
_cell_angle_beta   90.85884540
_cell_angle_gamma   59.93948590
_symmetry_Int_Tables_number   1
_chemical_formula_structural   Gd5Al31N36
_chemical_formula_sum   'Gd5 Al31 N36'
_cell_volume   845.47873922
_cell_formula_units_Z   1
loop_
 _symmetry_equiv_pos_site_id
 _symmetry_equiv_pos_as_xyz
  1  'x, y, z'
loop_
 _atom_site_type_symbol
 _atom_site_label
 _atom_site_symmetry_multiplicity
 _atom_site_fract_x
 _atom_site_fract_y
 _atom_site_fract_z
 _atom_site_occupancy
  Al  Al0  1  0.11145562  0.09317128  0.39216408  1
  Al  Al1  1  0.22690842  0.20048402  0.15408239  1
  Al  Al2  1  0.78577488  0.08382096  0.90040668  1
  Al  Al3  1  0.89444664  0.19677294  0.65724940  1
  Al  Al4  1  0.45121523  0.09068157  0.39246932  1
  Al  Al5  1  0.55390885  0.19886029  0.14201589  1
  Al  Al6  1  0.11296880  0.09491768  0.90490616  1
  Al  Al7  1  0.88789131  0.20681572  0.13960373  1
  Al  Al8  1  0.44680024  0.08282559  0.90678709  1
  Al  Al9  1  0.56545524  0.18488028  0.66188604  1
  Al  Al10  1  0.10694912  0.43044603  0.39942610  1
  Al  Al11  1  0.21371017  0.54904202  0.08602110  1
  Al  Al12  1  0.77705445  0.42938022  0.89155188  1
  Al  Al13  1  0.89296987  0.53915334  0.65089092  1
  Al  Al14  1  0.43280231  0.43303570  0.32234552  1
  Al  Al15  1  0.55381355  0.54537822  0.14725443  1
  Al  Al16  1  0.10813008  0.42224376  0.90628877  1
  Al  Al17  1  0.22051675  0.54387351  0.58142789  1
  Al  Al18  1  0.79440452  0.42314624  0.40033769  1
  Al  Al19  1  0.11626383  0.75432049  0.33169382  1
  Al  Al20  1  0.22353273  0.87708665  0.14309606  1
  Al  Al21  1  0.77203232  0.76966057  0.89141272  1
  Al  Al22  1  0.89051614  0.86846983  0.65657079  1
  Al  Al23  1  0.43822397  0.77745866  0.39122878  1
  Al  Al24  1  0.55308785  0.87808741  0.14649913  1
  Al  Al25  1  0.10971224  0.76460926  0.85355360  1
  Al  Al26  1  0.21527449  0.87688300  0.64447252  1
  Al  Al27  1  0.77915143  0.75740213  0.40683215  1
  Al  Al28  1  0.88129807  0.87706885  0.14238086  1
  Al  Al29  1  0.44748424  0.76687105  0.89514682  1
  Al  Al30  1  0.55948497  0.87310697  0.64564008  1
  Gd  Gd31  1  0.23047497  0.20006599  0.63760697  1
  Gd  Gd32  1  0.78197221  0.09588138  0.39937838  1
  Gd  Gd33  1  0.88001013  0.54569077  0.14191471  1
  Gd  Gd34  1  0.44989110  0.42315349  0.87726880  1
  Gd  Gd35  1  0.54956949  0.53940996  0.61399720  1
  N  N36  1  0.22524552  0.20310036  0.34935576  1
  N  N37  1  0.11167358  0.09512509  0.09080395  1
  N  N38  1  0.89185103  0.20378376  0.84533195  1
  N  N39  1  0.78112687  0.09107584  0.61769512  1
  N  N40  1  0.53299384  0.21346885  0.32475533  1
  N  N41  1  0.44103322  0.09183882  0.09309155  1
  N  N42  1  0.22368006  0.20392711  0.85813683  1
  N  N43  1  0.09089545  0.07935534  0.57553054  1
  N  N44  1  0.90378475  0.22282722  0.32179550  1
  N  N45  1  0.77794880  0.09518255  0.09362292  1
  N  N46  1  0.57416597  0.16247722  0.84881756  1
  N  N47  1  0.48527057  0.07338358  0.57353731  1
  N  N48  1  0.22608380  0.54169428  0.38465825  1
  N  N49  1  0.13384247  0.40931825  0.09618484  1
  N  N50  1  0.89036694  0.53834629  0.84666650  1
  N  N51  1  0.81305509  0.40465351  0.58698185  1
  N  N52  1  0.55873608  0.54238950  0.34654223  1
  N  N53  1  0.43674978  0.43625008  0.12710757  1
  N  N54  1  0.19128922  0.55812105  0.90123200  1
  N  N55  1  0.09547515  0.45153518  0.58405553  1
  N  N56  1  0.88704730  0.54281920  0.35765329  1
  N  N57  1  0.75596573  0.41556908  0.07504891  1
  N  N58  1  0.56867391  0.56067859  0.83257460  1
  N  N59  1  0.42497529  0.40384421  0.64552844  1
  N  N60  1  0.22296389  0.87662790  0.33065250  1
  N  N61  1  0.10850605  0.76584061  0.12711895  1
  N  N62  1  0.88927844  0.87088530  0.84388365  1
  N  N63  1  0.77886182  0.75825709  0.59669790  1
  N  N64  1  0.56116364  0.86990088  0.33354580  1
  N  N65  1  0.44529999  0.76347163  0.08802085  1
  N  N66  1  0.22418901  0.87784593  0.84137672  1
  N  N67  1  0.11425427  0.75694567  0.63030863  1
  N  N68  1  0.89434723  0.84535397  0.33030294  1
  N  N69  1  0.75702427  0.79558715  0.07383076  1
  N  N70  1  0.55100613  0.87474334  0.83398525  1
  N  N71  1  0.42241292  0.80275080  0.57584904  1
