# generated using pymatgen
data_Gd5Al31N36
_symmetry_space_group_name_H-M   'P 1'
_cell_length_a   9.77085586
_cell_length_b   9.74250675
_cell_length_c   10.35131999
_cell_angle_alpha   90.04130836
_cell_angle_beta   90.50580189
_cell_angle_gamma   60.00951065
_symmetry_Int_Tables_number   1
_chemical_formula_structural   Gd5Al31N36
_chemical_formula_sum   'Gd5 Al31 N36'
_cell_volume   853.39566459
_cell_formula_units_Z   1
loop_
 _symmetry_equiv_pos_site_id
 _symmetry_equiv_pos_as_xyz
  1  'x, y, z'
loop_
 _atom_site_type_symbol
 _atom_site_label
 _atom_site_symmetry_multiplicity
 _atom_site_fract_x
 _atom_site_fract_y
 _atom_site_fract_z
 _atom_site_occupancy
  Al  Al0  1  0.12381334  0.09309231  0.32864041  1
  Al  Al1  1  0.22432605  0.20553963  0.07730214  1
  Al  Al2  1  0.78469893  0.08348566  0.90489308  1
  Al  Al3  1  0.88470000  0.20294024  0.66639453  1
  Al  Al4  1  0.45242440  0.08730156  0.39775936  1
  Al  Al5  1  0.55093218  0.19949187  0.14240708  1
  Al  Al6  1  0.10806917  0.08963836  0.85406749  1
  Al  Al7  1  0.88643995  0.20580822  0.13666907  1
  Al  Al8  1  0.45592207  0.08020740  0.90161028  1
  Al  Al9  1  0.56544761  0.18839007  0.66262861  1
  Al  Al10  1  0.12719942  0.41601825  0.33506101  1
  Al  Al11  1  0.21251172  0.54843419  0.08932765  1
  Al  Al12  1  0.76759727  0.43325493  0.89518010  1
  Al  Al13  1  0.87986299  0.54567125  0.65651830  1
  Al  Al14  1  0.42948731  0.43039292  0.32514966  1
  Al  Al15  1  0.55626037  0.53778134  0.15121917  1
  Al  Al16  1  0.10166593  0.44285240  0.83978316  1
  Al  Al17  1  0.21376888  0.54123915  0.58604055  1
  Al  Al18  1  0.80714027  0.41847120  0.40041990  1
  Al  Al19  1  0.11770602  0.75443560  0.33139335  1
  Al  Al20  1  0.22707702  0.86700778  0.07880890  1
  Al  Al21  1  0.77062937  0.77356861  0.89645755  1
  Al  Al22  1  0.88656120  0.87239778  0.65590957  1
  Al  Al23  1  0.43900939  0.76815785  0.33377324  1
  Al  Al24  1  0.55507609  0.88064490  0.15043935  1
  Al  Al25  1  0.11245438  0.76143040  0.83301454  1
  Al  Al26  1  0.20856222  0.87940520  0.58143716  1
  Al  Al27  1  0.78477275  0.75219735  0.40473512  1
  Al  Al28  1  0.88451619  0.87591548  0.14953244  1
  Al  Al29  1  0.43658341  0.77451956  0.81861088  1
  Al  Al30  1  0.56506404  0.87655704  0.64556635  1
  Gd  Gd31  1  0.22600283  0.20239713  0.61615610  1
  Gd  Gd32  1  0.77682556  0.10054603  0.39707366  1
  Gd  Gd33  1  0.88549176  0.54076955  0.12782785  1
  Gd  Gd34  1  0.44546017  0.42840363  0.87600818  1
  Gd  Gd35  1  0.54558959  0.53975945  0.59911596  1
  N  N36  1  0.22636583  0.19907386  0.38766035  1
  N  N37  1  0.11529624  0.09269449  0.11436447  1
  N  N38  1  0.87818293  0.21064768  0.85371835  1
  N  N39  1  0.78044277  0.09483302  0.61355160  1
  N  N40  1  0.52821515  0.21162545  0.32333287  1
  N  N41  1  0.44673003  0.08890411  0.08521712  1
  N  N42  1  0.21885758  0.21212466  0.88160980  1
  N  N43  1  0.09813829  0.07510544  0.65840467  1
  N  N44  1  0.90475030  0.22092425  0.32058184  1
  N  N45  1  0.77758471  0.09335325  0.09653034  1
  N  N46  1  0.57620695  0.16692468  0.84776977  1
  N  N47  1  0.48989933  0.07432662  0.57717678  1
  N  N48  1  0.22318267  0.53942916  0.39481476  1
  N  N49  1  0.14860412  0.40722582  0.15003986  1
  N  N50  1  0.87643975  0.54606139  0.85697269  1
  N  N51  1  0.81506448  0.40503395  0.58541558  1
  N  N52  1  0.56265035  0.53123544  0.35078773  1
  N  N53  1  0.43611725  0.43604514  0.12772051  1
  N  N54  1  0.18326345  0.56242946  0.90995162  1
  N  N55  1  0.09459481  0.46139720  0.65726341  1
  N  N56  1  0.89739578  0.53831645  0.35127933  1
  N  N57  1  0.75322724  0.41601257  0.07748797  1
  N  N58  1  0.56774202  0.55723989  0.82554120  1
  N  N59  1  0.42215772  0.40648127  0.64575347  1
  N  N60  1  0.21774551  0.87460931  0.38961722  1
  N  N61  1  0.11608456  0.76330818  0.14445217  1
  N  N62  1  0.88895747  0.87196131  0.84195790  1
  N  N63  1  0.78026171  0.75778725  0.59298555  1
  N  N64  1  0.56453202  0.86994416  0.33914562  1
  N  N65  1  0.44110248  0.76391451  0.14406732  1
  N  N66  1  0.22734964  0.86428119  0.89392753  1
  N  N67  1  0.11807043  0.75668012  0.64156406  1
  N  N68  1  0.89555687  0.84822012  0.33595722  1
  N  N69  1  0.75931505  0.79684511  0.07911541  1
  N  N70  1  0.55735371  0.87615546  0.83392285  1
  N  N71  1  0.41924474  0.80392543  0.63037124  1
