# generated using pymatgen
data_Gd5Al31N36
_symmetry_space_group_name_H-M   'P 1'
_cell_length_a   9.74176666
_cell_length_b   9.74499510
_cell_length_c   10.33714164
_cell_angle_alpha   90.44463086
_cell_angle_beta   90.51244771
_cell_angle_gamma   60.00917395
_symmetry_Int_Tables_number   1
_chemical_formula_structural   Gd5Al31N36
_chemical_formula_sum   'Gd5 Al31 N36'
_cell_volume   849.90441072
_cell_formula_units_Z   1
loop_
 _symmetry_equiv_pos_site_id
 _symmetry_equiv_pos_as_xyz
  1  'x, y, z'
loop_
 _atom_site_type_symbol
 _atom_site_label
 _atom_site_symmetry_multiplicity
 _atom_site_fract_x
 _atom_site_fract_y
 _atom_site_fract_z
 _atom_site_occupancy
  Al  Al0  1  0.10510231  0.09805564  0.38779292  1
  Al  Al1  1  0.23154275  0.19756050  0.16026849  1
  Al  Al2  1  0.78804597  0.08156813  0.90145450  1
  Al  Al3  1  0.89112444  0.19836873  0.65836794  1
  Al  Al4  1  0.45495045  0.08729369  0.39471305  1
  Al  Al5  1  0.55425607  0.19892177  0.14243069  1
  Al  Al6  1  0.10939623  0.10292806  0.90788619  1
  Al  Al7  1  0.88758343  0.20738086  0.14040983  1
  Al  Al8  1  0.44488591  0.08534678  0.90642063  1
  Al  Al9  1  0.56406783  0.18599767  0.66482012  1
  Al  Al10  1  0.11721485  0.42809473  0.35911903  1
  Al  Al11  1  0.21158292  0.54665357  0.08897228  1
  Al  Al12  1  0.77570093  0.42974572  0.89225259  1
  Al  Al13  1  0.88429804  0.54250053  0.64517253  1
  Al  Al14  1  0.43182215  0.43415274  0.32244449  1
  Al  Al15  1  0.55671753  0.54345537  0.14828345  1
  Al  Al16  1  0.10461631  0.43474247  0.84733318  1
  Al  Al17  1  0.21977103  0.53995551  0.58322382  1
  Al  Al18  1  0.79282300  0.42499563  0.40087259  1
  Al  Al19  1  0.11781323  0.75295607  0.32413233  1
  Al  Al20  1  0.22145966  0.87034798  0.08565119  1
  Al  Al21  1  0.77182891  0.77200430  0.89218511  1
  Al  Al22  1  0.88655822  0.87096569  0.65728785  1
  Al  Al23  1  0.44401062  0.77297368  0.38702994  1
  Al  Al24  1  0.55552563  0.87774747  0.14686945  1
  Al  Al25  1  0.11560567  0.76270633  0.83418249  1
  Al  Al26  1  0.20853098  0.87025034  0.56652745  1
  Al  Al27  1  0.78025386  0.75712543  0.40593256  1
  Al  Al28  1  0.88289732  0.87655974  0.14503401  1
  Al  Al29  1  0.45172076  0.76463032  0.89872488  1
  Al  Al30  1  0.55983413  0.87335730  0.64616974  1
  Gd  Gd31  1  0.23038221  0.19207370  0.62924171  1
  Gd  Gd32  1  0.78013524  0.09761778  0.40074916  1
  Gd  Gd33  1  0.88373990  0.54310171  0.13873166  1
  Gd  Gd34  1  0.44852425  0.42296763  0.88168889  1
  Gd  Gd35  1  0.54505565  0.54175054  0.61766392  1
  N  N36  1  0.23095711  0.19356252  0.35657281  1
  N  N37  1  0.11089043  0.10123943  0.09556595  1
  N  N38  1  0.89206986  0.20431966  0.84526998  1
  N  N39  1  0.77911727  0.09222960  0.61833563  1
  N  N40  1  0.53187659  0.21379876  0.32440279  1
  N  N41  1  0.44108247  0.09213273  0.09185859  1
  N  N42  1  0.22152310  0.20902236  0.85601967  1
  N  N43  1  0.08053838  0.08588001  0.57146005  1
  N  N44  1  0.89997249  0.22581219  0.32052404  1
  N  N45  1  0.78000294  0.09378114  0.09378077  1
  N  N46  1  0.57600940  0.16235735  0.85103789  1
  N  N47  1  0.48793529  0.07315588  0.57453586  1
  N  N48  1  0.22736508  0.54355734  0.39421377  1
  N  N49  1  0.14264152  0.41636285  0.15765215  1
  N  N50  1  0.88164581  0.54371863  0.84460467  1
  N  N51  1  0.80693134  0.40683540  0.58617649  1
  N  N52  1  0.55992123  0.54077976  0.34523461  1
  N  N53  1  0.43744546  0.43704400  0.12689973  1
  N  N54  1  0.18512974  0.55946680  0.90672750  1
  N  N55  1  0.09635989  0.45154851  0.61619956  1
  N  N56  1  0.88928579  0.54187479  0.35981438  1
  N  N57  1  0.75755295  0.41431636  0.07435518  1
  N  N58  1  0.56735317  0.55971147  0.83443082  1
  N  N59  1  0.42296569  0.40440555  0.65134691  1
  N  N60  1  0.21658814  0.86935035  0.37232439  1
  N  N61  1  0.11388180  0.76243021  0.13891741  1
  N  N62  1  0.89139592  0.86935707  0.84194029  1
  N  N63  1  0.77779181  0.76047037  0.59449744  1
  N  N64  1  0.56343919  0.86943494  0.33225326  1
  N  N65  1  0.45320995  0.76006558  0.09267585  1
  N  N66  1  0.22121870  0.87216074  0.89462642  1
  N  N67  1  0.12122302  0.75577613  0.64343579  1
  N  N68  1  0.89425737  0.84655628  0.33198083  1
  N  N69  1  0.75995085  0.79535959  0.07427378  1
  N  N70  1  0.54994286  0.87602433  0.83439212  1
  N  N71  1  0.42752941  0.80239386  0.57300526  1
