# generated using pymatgen
data_Gd5Al31N36
_symmetry_space_group_name_H-M   'P 1'
_cell_length_a   9.74563908
_cell_length_b   9.72991273
_cell_length_c   10.44542388
_cell_angle_alpha   89.83637029
_cell_angle_beta   90.35367094
_cell_angle_gamma   60.28108960
_symmetry_Int_Tables_number   1
_chemical_formula_structural   Gd5Al31N36
_chemical_formula_sum   'Gd5 Al31 N36'
_cell_volume   860.16304076
_cell_formula_units_Z   1
loop_
 _symmetry_equiv_pos_site_id
 _symmetry_equiv_pos_as_xyz
  1  'x, y, z'
loop_
 _atom_site_type_symbol
 _atom_site_label
 _atom_site_symmetry_multiplicity
 _atom_site_fract_x
 _atom_site_fract_y
 _atom_site_fract_z
 _atom_site_occupancy
  Al  Al0  1  0.12682645  0.09072372  0.29484365  1
  Al  Al1  1  0.22568613  0.20333765  0.05276654  1
  Al  Al2  1  0.77717495  0.09563038  0.87741838  1
  Al  Al3  1  0.88611086  0.19853084  0.63321742  1
  Al  Al4  1  0.45017251  0.08826673  0.36945612  1
  Al  Al5  1  0.54858465  0.20525309  0.11518235  1
  Al  Al6  1  0.10868479  0.08767507  0.81478811  1
  Al  Al7  1  0.88611066  0.21044194  0.11765592  1
  Al  Al8  1  0.45423411  0.07942558  0.87609125  1
  Al  Al9  1  0.57009353  0.18157804  0.62975562  1
  Al  Al10  1  0.12829070  0.41730838  0.30266715  1
  Al  Al11  1  0.21544591  0.54869548  0.06400821  1
  Al  Al12  1  0.77305245  0.42537755  0.87203222  1
  Al  Al13  1  0.88601355  0.54091801  0.62924670  1
  Al  Al14  1  0.43715015  0.43728246  0.29307347  1
  Al  Al15  1  0.54708750  0.55154935  0.05204891  1
  Al  Al16  1  0.10206173  0.43714099  0.81328611  1
  Al  Al17  1  0.21786021  0.54033340  0.55499576  1
  Al  Al18  1  0.80385040  0.42443545  0.36812636  1
  Al  Al19  1  0.11382417  0.75634248  0.31061992  1
  Al  Al20  1  0.22160790  0.87179573  0.05689003  1
  Al  Al21  1  0.77580589  0.77129598  0.81116750  1
  Al  Al22  1  0.89795643  0.85675626  0.56148134  1
  Al  Al23  1  0.44320902  0.75622023  0.30233827  1
  Al  Al24  1  0.54789210  0.88682132  0.12774469  1
  Al  Al25  1  0.10082809  0.76759055  0.80836987  1
  Al  Al26  1  0.21322562  0.87469825  0.55656034  1
  Al  Al27  1  0.78492887  0.75897877  0.30753150  1
  Al  Al28  1  0.89158924  0.87703083  0.05832490  1
  Al  Al29  1  0.42996110  0.77497031  0.80589109  1
  Al  Al30  1  0.55627592  0.87888929  0.62580610  1
  Gd  Gd31  1  0.21800513  0.20728647  0.57590064  1
  Gd  Gd32  1  0.77357195  0.10264189  0.36016258  1
  Gd  Gd33  1  0.89511943  0.54363857  0.08085282  1
  Gd  Gd34  1  0.42881322  0.42524589  0.83327024  1
  Gd  Gd35  1  0.55251018  0.53694189  0.56603315  1
  N  N36  1  0.22489094  0.20090132  0.35710295  1
  N  N37  1  0.12046418  0.09015671  0.10534258  1
  N  N38  1  0.87602770  0.21149219  0.81903501  1
  N  N39  1  0.78332375  0.09033926  0.57869651  1
  N  N40  1  0.52291310  0.21671698  0.29378314  1
  N  N41  1  0.44865197  0.09067226  0.05649122  1
  N  N42  1  0.21561409  0.21013654  0.85844000  1
  N  N43  1  0.10220917  0.07085990  0.63321706  1
  N  N44  1  0.90559102  0.22116581  0.29857262  1
  N  N45  1  0.77380881  0.10369087  0.06912113  1
  N  N46  1  0.57513032  0.16381238  0.81372102  1
  N  N47  1  0.48413861  0.07259534  0.55004721  1
  N  N48  1  0.22833358  0.53789629  0.36554259  1
  N  N49  1  0.15481399  0.40409849  0.12210196  1
  N  N50  1  0.87760183  0.53999767  0.83093025  1
  N  N51  1  0.82149240  0.40371108  0.55852996  1
  N  N52  1  0.56286163  0.53251525  0.34610787  1
  N  N53  1  0.43861777  0.44053606  0.09582997  1
  N  N54  1  0.17398430  0.56479154  0.88629944  1
  N  N55  1  0.10029178  0.46018171  0.63241365  1
  N  N56  1  0.89991817  0.53735353  0.31469785  1
  N  N57  1  0.76536235  0.41396882  0.05285500  1
  N  N58  1  0.55240011  0.56333147  0.85771960  1
  N  N59  1  0.42855347  0.40448550  0.61378901  1
  N  N60  1  0.22197865  0.87192756  0.36554374  1
  N  N61  1  0.10759167  0.76683481  0.12399025  1
  N  N62  1  0.89080581  0.87122097  0.87121523  1
  N  N63  1  0.78009992  0.76231012  0.62385752  1
  N  N64  1  0.55343679  0.87328860  0.31492255  1
  N  N65  1  0.43962330  0.76370372  0.11390018  1
  N  N66  1  0.21683748  0.87075027  0.87293281  1
  N  N67  1  0.11700608  0.75555346  0.62025354  1
  N  N68  1  0.90892931  0.83816155  0.37873063  1
  N  N69  1  0.76642191  0.79982083  0.12130052  1
  N  N70  1  0.55165314  0.87547812  0.81711122  1
  N  N71  1  0.42129194  0.79215701  0.62018634  1
