# generated using pymatgen
data_Gd5Al31N36
_symmetry_space_group_name_H-M   'P 1'
_cell_length_a   9.73429353
_cell_length_b   9.75296781
_cell_length_c   10.19911983
_cell_angle_alpha   89.86483570
_cell_angle_beta   89.72241439
_cell_angle_gamma   60.02635238
_symmetry_Int_Tables_number   1
_chemical_formula_structural   Gd5Al31N36
_chemical_formula_sum   'Gd5 Al31 N36'
_cell_volume   838.77353634
_cell_formula_units_Z   1
loop_
 _symmetry_equiv_pos_site_id
 _symmetry_equiv_pos_as_xyz
  1  'x, y, z'
loop_
 _atom_site_type_symbol
 _atom_site_label
 _atom_site_symmetry_multiplicity
 _atom_site_fract_x
 _atom_site_fract_y
 _atom_site_fract_z
 _atom_site_occupancy
  Al  Al0  1  0.11303624  0.09694636  0.30407722  1
  Al  Al1  1  0.22428278  0.20416036  0.05536840  1
  Al  Al2  1  0.78520856  0.08783336  0.81617396  1
  Al  Al3  1  0.89808654  0.20068048  0.56585174  1
  Al  Al4  1  0.43673000  0.09480761  0.29533767  1
  Al  Al5  1  0.55823168  0.19779189  0.06754405  1
  Al  Al6  1  0.10945828  0.08800372  0.81518043  1
  Al  Al7  1  0.88733983  0.20309571  0.05377185  1
  Al  Al8  1  0.45547971  0.08089993  0.81999127  1
  Al  Al9  1  0.56246368  0.19434238  0.59231091  1
  Al  Al10  1  0.12079693  0.42217215  0.30877158  1
  Al  Al11  1  0.21181715  0.54866552  0.06454713  1
  Al  Al12  1  0.78798256  0.42710930  0.80707140  1
  Al  Al13  1  0.89069368  0.54226453  0.55601052  1
  Al  Al14  1  0.43496287  0.43415574  0.29176294  1
  Al  Al15  1  0.55687283  0.54465188  0.06374477  1
  Al  Al16  1  0.09969517  0.44091478  0.80421470  1
  Al  Al17  1  0.21812792  0.54165698  0.55368998  1
  Al  Al18  1  0.78049882  0.42505629  0.30801511  1
  Al  Al19  1  0.11270155  0.75736633  0.31246974  1
  Al  Al20  1  0.22018873  0.87301339  0.06161933  1
  Al  Al21  1  0.77533351  0.76143793  0.80339009  1
  Al  Al22  1  0.89754136  0.85886508  0.56701674  1
  Al  Al23  1  0.44090723  0.76650761  0.30441079  1
  Al  Al24  1  0.55305639  0.87736892  0.05970408  1
  Al  Al25  1  0.10587972  0.76475794  0.81063919  1
  Al  Al26  1  0.21708270  0.87298791  0.56195542  1
  Al  Al27  1  0.77554572  0.76384044  0.31621147  1
  Al  Al28  1  0.88635146  0.87838884  0.05402269  1
  Al  Al29  1  0.44432170  0.77148778  0.81452757  1
  Al  Al30  1  0.55961569  0.87209674  0.55978020  1
  Gd  Gd31  1  0.22758683  0.20037914  0.57043331  1
  Gd  Gd32  1  0.78066129  0.09120029  0.31942608  1
  Gd  Gd33  1  0.88750726  0.54495512  0.06795732  1
  Gd  Gd34  1  0.43675421  0.43116463  0.83712339  1
  Gd  Gd35  1  0.55385993  0.53847172  0.56063268  1
  N  N36  1  0.22357103  0.20120436  0.34994414  1
  N  N37  1  0.10843285  0.09580326  0.11227137  1
  N  N38  1  0.88875957  0.20729011  0.86645281  1
  N  N39  1  0.78407597  0.09026418  0.61450927  1
  N  N40  1  0.52368968  0.22132881  0.33290418  1
  N  N41  1  0.43930431  0.09189723  0.10667885  1
  N  N42  1  0.22114150  0.20780501  0.85825843  1
  N  N43  1  0.09933342  0.07454740  0.63214535  1
  N  N44  1  0.90726779  0.21975488  0.37996546  1
  N  N45  1  0.78207059  0.09331383  0.09767084  1
  N  N46  1  0.57312692  0.17487691  0.87433850  1
  N  N47  1  0.47923445  0.07037222  0.63462828  1
  N  N48  1  0.22396175  0.54058537  0.36354710  1
  N  N49  1  0.14085150  0.41232471  0.12468685  1
  N  N50  1  0.88630390  0.54289221  0.85043284  1
  N  N51  1  0.80786065  0.41299170  0.62126001  1
  N  N52  1  0.55136325  0.54106468  0.34097932  1
  N  N53  1  0.43843074  0.43621532  0.09568245  1
  N  N54  1  0.17917523  0.56158498  0.88199830  1
  N  N55  1  0.09688361  0.45808123  0.61768308  1
  N  N56  1  0.88828480  0.53915176  0.35797254  1
  N  N57  1  0.76741291  0.40926419  0.12370845  1
  N  N58  1  0.57457425  0.55596067  0.86995610  1
  N  N59  1  0.42813749  0.40806105  0.61481772  1
  N  N60  1  0.21984061  0.87410547  0.36758916  1
  N  N61  1  0.10518057  0.76738286  0.12245666  1
  N  N62  1  0.88871193  0.86997752  0.86249409  1
  N  N63  1  0.77566786  0.75839078  0.61491789  1
  N  N64  1  0.55140253  0.87520216  0.36884520  1
  N  N65  1  0.44236677  0.76700470  0.11639628  1
  N  N66  1  0.22275247  0.86795791  0.87385390  1
  N  N67  1  0.11942065  0.75492068  0.62100511  1
  N  N68  1  0.90693079  0.83799941  0.38385825  1
  N  N69  1  0.76033378  0.79922245  0.13051647  1
  N  N70  1  0.56113059  0.86710926  0.87337229  1
  N  N71  1  0.42858360  0.79231547  0.62596337  1
