# generated using pymatgen
data_Gd5Al31N36
_symmetry_space_group_name_H-M   'P 1'
_cell_length_a   9.71563960
_cell_length_b   9.74774934
_cell_length_c   10.35005185
_cell_angle_alpha   90.61542412
_cell_angle_beta   90.88026388
_cell_angle_gamma   59.91383121
_symmetry_Int_Tables_number   1
_chemical_formula_structural   Gd5Al31N36
_chemical_formula_sum   'Gd5 Al31 N36'
_cell_volume   848.04172140
_cell_formula_units_Z   1
loop_
 _symmetry_equiv_pos_site_id
 _symmetry_equiv_pos_as_xyz
  1  'x, y, z'
loop_
 _atom_site_type_symbol
 _atom_site_label
 _atom_site_symmetry_multiplicity
 _atom_site_fract_x
 _atom_site_fract_y
 _atom_site_fract_z
 _atom_site_occupancy
  Al  Al0  1  0.11076570  0.09546814  0.38671795  1
  Al  Al1  1  0.22751728  0.20180077  0.15347379  1
  Al  Al2  1  0.78744423  0.08091280  0.90091627  1
  Al  Al3  1  0.89274343  0.19607931  0.65742499  1
  Al  Al4  1  0.45034148  0.09229932  0.39395284  1
  Al  Al5  1  0.55403377  0.19894785  0.14379710  1
  Al  Al6  1  0.11376146  0.09284624  0.90643847  1
  Al  Al7  1  0.88722438  0.20716621  0.13901534  1
  Al  Al8  1  0.44703304  0.08246295  0.90695978  1
  Al  Al9  1  0.56302847  0.18574513  0.66348917  1
  Al  Al10  1  0.10726770  0.43206192  0.40193606  1
  Al  Al11  1  0.21295338  0.55084999  0.08259480  1
  Al  Al12  1  0.77846202  0.42871389  0.89153411  1
  Al  Al13  1  0.89263956  0.53916672  0.65159504  1
  Al  Al14  1  0.43196386  0.43456093  0.32300961  1
  Al  Al15  1  0.55489286  0.54437009  0.14801995  1
  Al  Al16  1  0.10907744  0.42259180  0.90551353  1
  Al  Al17  1  0.22211087  0.54227989  0.58329338  1
  Al  Al18  1  0.79395142  0.42481329  0.40097405  1
  Al  Al19  1  0.11711207  0.75304577  0.32454822  1
  Al  Al20  1  0.22423038  0.87602743  0.14095499  1
  Al  Al21  1  0.77334759  0.76845633  0.89251958  1
  Al  Al22  1  0.88379401  0.87070113  0.65757355  1
  Al  Al23  1  0.43944222  0.77694321  0.38832631  1
  Al  Al24  1  0.55410051  0.87819003  0.14736905  1
  Al  Al25  1  0.11393860  0.75984954  0.83338887  1
  Al  Al26  1  0.21398475  0.87688005  0.63288659  1
  Al  Al27  1  0.77856448  0.75904360  0.40728844  1
  Al  Al28  1  0.88084041  0.87660776  0.14427139  1
  Al  Al29  1  0.44729313  0.76671813  0.89691605  1
  Al  Al30  1  0.55742376  0.87379647  0.64661203  1
  Gd  Gd31  1  0.22603557  0.19830753  0.63885320  1
  Gd  Gd32  1  0.78321061  0.09797386  0.40053263  1
  Gd  Gd33  1  0.88128993  0.54356412  0.14389537  1
  Gd  Gd34  1  0.45291319  0.42199388  0.88004655  1
  Gd  Gd35  1  0.55004688  0.54018210  0.61664161  1
  N  N36  1  0.22485281  0.20594623  0.34800630  1
  N  N37  1  0.11146887  0.09595224  0.09172099  1
  N  N38  1  0.89263085  0.20241485  0.84453133  1
  N  N39  1  0.77847930  0.09134428  0.61744551  1
  N  N40  1  0.53335604  0.21415329  0.32584334  1
  N  N41  1  0.44183829  0.09188076  0.09283329  1
  N  N42  1  0.22372451  0.20320467  0.85823355  1
  N  N43  1  0.08551816  0.07935167  0.56871960  1
  N  N44  1  0.90219370  0.22630852  0.31930642  1
  N  N45  1  0.77837361  0.09420334  0.09345448  1
  N  N46  1  0.57508058  0.16133872  0.84887213  1
  N  N47  1  0.48078213  0.07546401  0.57508044  1
  N  N48  1  0.22673221  0.54453475  0.39011170  1
  N  N49  1  0.13402942  0.41020617  0.09392755  1
  N  N50  1  0.89129471  0.53771587  0.84566834  1
  N  N51  1  0.81339559  0.40400604  0.58675890  1
  N  N52  1  0.55989454  0.54245823  0.34562818  1
  N  N53  1  0.43588826  0.43671011  0.12844438  1
  N  N54  1  0.19256182  0.55933326  0.90012581  1
  N  N55  1  0.09609022  0.45065373  0.58559212  1
  N  N56  1  0.88776052  0.54404689  0.35888969  1
  N  N57  1  0.75587940  0.41527963  0.07344946  1
  N  N58  1  0.56987699  0.56066574  0.83276861  1
  N  N59  1  0.42570110  0.40508122  0.64874707  1
  N  N60  1  0.22364520  0.87750505  0.32912839  1
  N  N61  1  0.10960440  0.76208387  0.13602783  1
  N  N62  1  0.89017320  0.86876830  0.84281572  1
  N  N63  1  0.77663465  0.75846571  0.59621745  1
  N  N64  1  0.56136170  0.87165071  0.33352811  1
  N  N65  1  0.44740606  0.76237230  0.08944033  1
  N  N66  1  0.22508446  0.87661498  0.84607375  1
  N  N67  1  0.11464252  0.75427180  0.64137748  1
  N  N68  1  0.89356504  0.84759173  0.33244431  1
  N  N69  1  0.75858062  0.79347089  0.07453783  1
  N  N70  1  0.55158015  0.87372079  0.83434927  1
  N  N71  1  0.42192362  0.80294931  0.57217194  1
