# generated using pymatgen
data_Gd5Al31N36
_symmetry_space_group_name_H-M   'P 1'
_cell_length_a   9.75721152
_cell_length_b   9.71692549
_cell_length_c   10.38914354
_cell_angle_alpha   90.02094312
_cell_angle_beta   90.05055484
_cell_angle_gamma   60.21645160
_symmetry_Int_Tables_number   1
_chemical_formula_structural   Gd5Al31N36
_chemical_formula_sum   'Gd5 Al31 N36'
_cell_volume   854.88543501
_cell_formula_units_Z   1
loop_
 _symmetry_equiv_pos_site_id
 _symmetry_equiv_pos_as_xyz
  1  'x, y, z'
loop_
 _atom_site_type_symbol
 _atom_site_label
 _atom_site_symmetry_multiplicity
 _atom_site_fract_x
 _atom_site_fract_y
 _atom_site_fract_z
 _atom_site_occupancy
  Al  Al0  1  0.12283887  0.09308044  0.29869556  1
  Al  Al1  1  0.22438416  0.20645487  0.05275738  1
  Al  Al2  1  0.77853493  0.09378421  0.88040375  1
  Al  Al3  1  0.88961707  0.19273077  0.63669865  1
  Al  Al4  1  0.44734889  0.09086169  0.37074249  1
  Al  Al5  1  0.54668022  0.20543362  0.11399209  1
  Al  Al6  1  0.11139596  0.08583045  0.82169680  1
  Al  Al7  1  0.88900618  0.20749112  0.10402204  1
  Al  Al8  1  0.45685676  0.07839386  0.87457269  1
  Al  Al9  1  0.57126608  0.18215709  0.63138706  1
  Al  Al10  1  0.12296002  0.41713923  0.31090695  1
  Al  Al11  1  0.21332955  0.54798963  0.06267729  1
  Al  Al12  1  0.78177011  0.43513828  0.80961588  1
  Al  Al13  1  0.89157407  0.54036219  0.55524931  1
  Al  Al14  1  0.42966813  0.43867890  0.28860859  1
  Al  Al15  1  0.55270450  0.55144433  0.05432340  1
  Al  Al16  1  0.09668183  0.44416762  0.80210338  1
  Al  Al17  1  0.22032129  0.53939132  0.55424279  1
  Al  Al18  1  0.77587396  0.43391720  0.29544536  1
  Al  Al19  1  0.11255732  0.75710102  0.31057845  1
  Al  Al20  1  0.22303055  0.87107320  0.05759379  1
  Al  Al21  1  0.78348058  0.76306080  0.80132453  1
  Al  Al22  1  0.89956710  0.85714291  0.56140529  1
  Al  Al23  1  0.43553673  0.76163514  0.30193370  1
  Al  Al24  1  0.54805211  0.88663404  0.13076172  1
  Al  Al25  1  0.10302677  0.76658669  0.80941190  1
  Al  Al26  1  0.21479582  0.87142655  0.55915830  1
  Al  Al27  1  0.78117402  0.75958711  0.31485443  1
  Al  Al28  1  0.89112590  0.87501778  0.06058702  1
  Al  Al29  1  0.43841412  0.77001422  0.80760507  1
  Al  Al30  1  0.56039174  0.87402732  0.62174441  1
  Gd  Gd31  1  0.22516966  0.19946053  0.58497220  1
  Gd  Gd32  1  0.77145815  0.10171515  0.35710834  1
  Gd  Gd33  1  0.89402664  0.54791817  0.06148308  1
  Gd  Gd34  1  0.43495156  0.42841058  0.83572250  1
  Gd  Gd35  1  0.55708628  0.53211484  0.55593633  1
  N  N36  1  0.22301924  0.20062080  0.36283923  1
  N  N37  1  0.12021481  0.09174005  0.10536477  1
  N  N38  1  0.88472939  0.20898177  0.84505213  1
  N  N39  1  0.78457905  0.08991644  0.58084905  1
  N  N40  1  0.51879373  0.21878893  0.29299358  1
  N  N41  1  0.44795602  0.08970271  0.05647616  1
  N  N42  1  0.21766420  0.21205226  0.85532049  1
  N  N43  1  0.10293201  0.06736343  0.63850228  1
  N  N44  1  0.90605030  0.21647502  0.30676145  1
  N  N45  1  0.77157274  0.10227528  0.07228805  1
  N  N46  1  0.57656471  0.16630169  0.81597492  1
  N  N47  1  0.48807127  0.07119361  0.55094091  1
  N  N48  1  0.22457145  0.53926070  0.36512252  1
  N  N49  1  0.14601529  0.40877881  0.12869576  1
  N  N50  1  0.88456895  0.54661280  0.84911323  1
  N  N51  1  0.80860648  0.41231267  0.62341189  1
  N  N52  1  0.55187438  0.53655357  0.33855425  1
  N  N53  1  0.43715626  0.44050252  0.09149466  1
  N  N54  1  0.17785188  0.56159669  0.88261175  1
  N  N55  1  0.09613250  0.45945419  0.61886262  1
  N  N56  1  0.88815692  0.53722308  0.36070211  1
  N  N57  1  0.76007719  0.42891775  0.11162587  1
  N  N58  1  0.56851380  0.55885690  0.86618447  1
  N  N59  1  0.42970726  0.40567410  0.61458037  1
  N  N60  1  0.21903404  0.87305313  0.36707566  1
  N  N61  1  0.10759327  0.76700250  0.12332780  1
  N  N62  1  0.89130942  0.86895394  0.87128313  1
  N  N63  1  0.78403779  0.75558276  0.61426229  1
  N  N64  1  0.54961591  0.87414807  0.31868786  1
  N  N65  1  0.43813568  0.76662226  0.11420642  1
  N  N66  1  0.22313355  0.86580556  0.87370357  1
  N  N67  1  0.11712699  0.75445225  0.62107392  1
  N  N68  1  0.90907191  0.83750057  0.37874709  1
  N  N69  1  0.76905070  0.79590494  0.13096053  1
  N  N70  1  0.55743472  0.87385713  0.81296978  1
  N  N71  1  0.42469874  0.78625919  0.61980627  1
