# generated using pymatgen
data_Gd5Al31N36
_symmetry_space_group_name_H-M   'P 1'
_cell_length_a   9.74764321
_cell_length_b   9.76828003
_cell_length_c   10.20890370
_cell_angle_alpha   89.63769057
_cell_angle_beta   89.64394901
_cell_angle_gamma   60.03858058
_symmetry_Int_Tables_number   1
_chemical_formula_structural   Gd5Al31N36
_chemical_formula_sum   'Gd5 Al31 N36'
_cell_volume   842.14094926
_cell_formula_units_Z   1
loop_
 _symmetry_equiv_pos_site_id
 _symmetry_equiv_pos_as_xyz
  1  'x, y, z'
loop_
 _atom_site_type_symbol
 _atom_site_label
 _atom_site_symmetry_multiplicity
 _atom_site_fract_x
 _atom_site_fract_y
 _atom_site_fract_z
 _atom_site_occupancy
  Al  Al0  1  0.11310297  0.09636629  0.30343364  1
  Al  Al1  1  0.22348514  0.20475846  0.05432788  1
  Al  Al2  1  0.79433089  0.08346939  0.81245838  1
  Al  Al3  1  0.90025862  0.19992646  0.56551947  1
  Al  Al4  1  0.43422589  0.09176279  0.29530983  1
  Al  Al5  1  0.55102540  0.20590568  0.10874574  1
  Al  Al6  1  0.11028882  0.08749821  0.81570563  1
  Al  Al7  1  0.88501057  0.20281215  0.05538634  1
  Al  Al8  1  0.45299472  0.07829161  0.81747305  1
  Al  Al9  1  0.56504411  0.19164489  0.63351778  1
  Al  Al10  1  0.12114208  0.42205151  0.30872273  1
  Al  Al11  1  0.20993320  0.55086311  0.06434329  1
  Al  Al12  1  0.78944596  0.42643563  0.80731499  1
  Al  Al13  1  0.89090349  0.54306676  0.55637148  1
  Al  Al14  1  0.43150822  0.44029202  0.29326699  1
  Al  Al15  1  0.55748076  0.54627754  0.06287388  1
  Al  Al16  1  0.09948327  0.44255223  0.80374083  1
  Al  Al17  1  0.22008798  0.54160117  0.55526215  1
  Al  Al18  1  0.78099138  0.42504367  0.30748735  1
  Al  Al19  1  0.11216003  0.75786811  0.31196869  1
  Al  Al20  1  0.22004700  0.87328766  0.06154066  1
  Al  Al21  1  0.77541178  0.76235593  0.80310495  1
  Al  Al22  1  0.89905590  0.85681962  0.56593767  1
  Al  Al23  1  0.44114065  0.76542761  0.30404995  1
  Al  Al24  1  0.55327614  0.87728727  0.05848766  1
  Al  Al25  1  0.10709828  0.76392757  0.81089177  1
  Al  Al26  1  0.21791077  0.87217217  0.56227334  1
  Al  Al27  1  0.77621168  0.76266591  0.31456048  1
  Al  Al28  1  0.88357536  0.88166044  0.05577155  1
  Al  Al29  1  0.44499221  0.77054177  0.81349688  1
  Al  Al30  1  0.55860341  0.87163952  0.55783949  1
  Gd  Gd31  1  0.22394233  0.20335363  0.57055042  1
  Gd  Gd32  1  0.77694727  0.09340073  0.33197233  1
  Gd  Gd33  1  0.88843907  0.54475962  0.06728727  1
  Gd  Gd34  1  0.43870523  0.42959128  0.84355239  1
  Gd  Gd35  1  0.55598824  0.53608548  0.56239431  1
  N  N36  1  0.22338387  0.20078189  0.35013067  1
  N  N37  1  0.10771855  0.09607591  0.11204484  1
  N  N38  1  0.89003839  0.20618481  0.86744832  1
  N  N39  1  0.78816627  0.08729438  0.60749888  1
  N  N40  1  0.52009875  0.22378182  0.30303992  1
  N  N41  1  0.43813573  0.09098315  0.10250420  1
  N  N42  1  0.22064924  0.20858592  0.85766566  1
  N  N43  1  0.10018006  0.07292630  0.63303782  1
  N  N44  1  0.90825485  0.21983653  0.37914017  1
  N  N45  1  0.77771553  0.09558652  0.10183406  1
  N  N46  1  0.57791596  0.17254997  0.83272130  1
  N  N47  1  0.47329853  0.06953959  0.62776880  1
  N  N48  1  0.22325008  0.54103519  0.36445180  1
  N  N49  1  0.14171631  0.41224023  0.12490974  1
  N  N50  1  0.88630577  0.54344168  0.85020528  1
  N  N51  1  0.81107591  0.41106460  0.62177028  1
  N  N52  1  0.55192242  0.54029326  0.34189918  1
  N  N53  1  0.43619671  0.44162953  0.09433833  1
  N  N54  1  0.17939559  0.56129008  0.88201601  1
  N  N55  1  0.09628656  0.46083899  0.61801701  1
  N  N56  1  0.88865164  0.53866985  0.35789983  1
  N  N57  1  0.76712683  0.41016479  0.12332491  1
  N  N58  1  0.57596790  0.55553865  0.86913182  1
  N  N59  1  0.42902307  0.40853357  0.61533947  1
  N  N60  1  0.22009597  0.87359429  0.36736142  1
  N  N61  1  0.10416367  0.76850692  0.12240654  1
  N  N62  1  0.89044023  0.86943286  0.86389950  1
  N  N63  1  0.77493718  0.75916569  0.61453004  1
  N  N64  1  0.55229884  0.87354377  0.36693592  1
  N  N65  1  0.44237788  0.76713368  0.11620848  1
  N  N66  1  0.22385787  0.86739403  0.87397543  1
  N  N67  1  0.11943955  0.75504233  0.62109780  1
  N  N68  1  0.90698480  0.83681949  0.38228623  1
  N  N69  1  0.76010052  0.79823107  0.12935861  1
  N  N70  1  0.56140593  0.86651986  0.87255441  1
  N  N71  1  0.42941091  0.79000084  0.62528625  1
