# generated using pymatgen
data_Gd5Al31N36
_symmetry_space_group_name_H-M   'P 1'
_cell_length_a   9.75244775
_cell_length_b   9.72962984
_cell_length_c   10.41464708
_cell_angle_alpha   89.92041391
_cell_angle_beta   90.40399374
_cell_angle_gamma   59.84014578
_symmetry_Int_Tables_number   1
_chemical_formula_structural   Gd5Al31N36
_chemical_formula_sum   'Gd5 Al31 N36'
_cell_volume   854.40830740
_cell_formula_units_Z   1
loop_
 _symmetry_equiv_pos_site_id
 _symmetry_equiv_pos_as_xyz
  1  'x, y, z'
loop_
 _atom_site_type_symbol
 _atom_site_label
 _atom_site_symmetry_multiplicity
 _atom_site_fract_x
 _atom_site_fract_y
 _atom_site_fract_z
 _atom_site_occupancy
  Al  Al0  1  0.10874413  0.09722609  0.40651606  1
  Al  Al1  1  0.22938965  0.20123759  0.12024923  1
  Al  Al2  1  0.78669915  0.08339977  0.91716079  1
  Al  Al3  1  0.88619419  0.20205224  0.67345509  1
  Al  Al4  1  0.45227214  0.08815230  0.41370892  1
  Al  Al5  1  0.55571441  0.19826237  0.15857611  1
  Al  Al6  1  0.10520017  0.10037084  0.91963659  1
  Al  Al7  1  0.88837157  0.20421317  0.15562372  1
  Al  Al8  1  0.45273121  0.08396265  0.91976854  1
  Al  Al9  1  0.56242371  0.19147670  0.68032371  1
  Al  Al10  1  0.12647318  0.41596753  0.35476895  1
  Al  Al11  1  0.21375762  0.54626782  0.10391267  1
  Al  Al12  1  0.77054118  0.43320410  0.90611212  1
  Al  Al13  1  0.88056156  0.54488706  0.67060364  1
  Al  Al14  1  0.43161082  0.42893982  0.34079884  1
  Al  Al15  1  0.55841312  0.53534292  0.16487339  1
  Al  Al16  1  0.10497712  0.43955283  0.85332264  1
  Al  Al17  1  0.21522632  0.53822235  0.60212042  1
  Al  Al18  1  0.80201056  0.42146558  0.41521651  1
  Al  Al19  1  0.12032051  0.75038800  0.34477450  1
  Al  Al20  1  0.22832447  0.86347507  0.09614690  1
  Al  Al21  1  0.77168980  0.77249204  0.91315610  1
  Al  Al22  1  0.88464850  0.87215981  0.67388767  1
  Al  Al23  1  0.43960301  0.76735930  0.34404544  1
  Al  Al24  1  0.55851311  0.87894342  0.16660321  1
  Al  Al25  1  0.11261496  0.76142790  0.84979047  1
  Al  Al26  1  0.20680997  0.87172540  0.58885417  1
  Al  Al27  1  0.78442927  0.75280287  0.42028667  1
  Al  Al28  1  0.88562026  0.87532837  0.16503831  1
  Al  Al29  1  0.43345523  0.78043525  0.83650703  1
  Al  Al30  1  0.56383185  0.88026128  0.66393217  1
  Gd  Gd31  1  0.22755115  0.18940869  0.64267808  1
  Gd  Gd32  1  0.78084560  0.09855395  0.41830631  1
  Gd  Gd33  1  0.88596634  0.53747857  0.14506171  1
  Gd  Gd34  1  0.44788474  0.43129107  0.89203834  1
  Gd  Gd35  1  0.53978977  0.55036637  0.61529243  1
  N  N36  1  0.22920618  0.19711610  0.39765763  1
  N  N37  1  0.10918538  0.09720459  0.10513755  1
  N  N38  1  0.88968546  0.20617392  0.85877223  1
  N  N39  1  0.77656732  0.09424274  0.63409346  1
  N  N40  1  0.53359961  0.20900501  0.33896285  1
  N  N41  1  0.44859455  0.08859497  0.10332695  1
  N  N42  1  0.22203955  0.20917460  0.88858055  1
  N  N43  1  0.07364367  0.08707621  0.58728264  1
  N  N44  1  0.90480697  0.22217972  0.33387533  1
  N  N45  1  0.78090091  0.09206887  0.10876461  1
  N  N46  1  0.57508724  0.16972662  0.86546174  1
  N  N47  1  0.48656612  0.07831766  0.59279673  1
  N  N48  1  0.22503244  0.53696245  0.41204543  1
  N  N49  1  0.14843662  0.40945433  0.16994352  1
  N  N50  1  0.87905655  0.54566472  0.87021195  1
  N  N51  1  0.80739117  0.41126225  0.60032991  1
  N  N52  1  0.56439225  0.53073168  0.36357721  1
  N  N53  1  0.43733334  0.43480988  0.14350099  1
  N  N54  1  0.18478162  0.56027566  0.92531495  1
  N  N55  1  0.09777275  0.45431855  0.66996436  1
  N  N56  1  0.89618239  0.53870434  0.36748681  1
  N  N57  1  0.75434198  0.41244845  0.08737179  1
  N  N58  1  0.56871417  0.56156992  0.83852868  1
  N  N59  1  0.42433688  0.41073741  0.66329604  1
  N  N60  1  0.22604808  0.86106215  0.40070406  1
  N  N61  1  0.11734013  0.76092192  0.15908757  1
  N  N62  1  0.88910237  0.87084488  0.85831644  1
  N  N63  1  0.77885286  0.75871111  0.60852976  1
  N  N64  1  0.56495463  0.86929136  0.35420562  1
  N  N65  1  0.44379574  0.76296979  0.15655987  1
  N  N66  1  0.22418269  0.86751520  0.90940436  1
  N  N67  1  0.11720780  0.75563722  0.65995681  1
  N  N68  1  0.89660402  0.84787182  0.35065650  1
  N  N69  1  0.76238585  0.79375796  0.09515372  1
  N  N70  1  0.55786467  0.87880962  0.85154329  1
  N  N71  1  0.40676682  0.82011828  0.65273688  1
