# generated using pymatgen
data_Gd5Al31N36
_symmetry_space_group_name_H-M   'P 1'
_cell_length_a   9.75555732
_cell_length_b   9.75352164
_cell_length_c   10.25068791
_cell_angle_alpha   89.61553415
_cell_angle_beta   89.95409006
_cell_angle_gamma   60.11051366
_symmetry_Int_Tables_number   1
_chemical_formula_structural   Gd5Al31N36
_chemical_formula_sum   'Gd5 Al31 N36'
_cell_volume   845.60607175
_cell_formula_units_Z   1
loop_
 _symmetry_equiv_pos_site_id
 _symmetry_equiv_pos_as_xyz
  1  'x, y, z'
loop_
 _atom_site_type_symbol
 _atom_site_label
 _atom_site_symmetry_multiplicity
 _atom_site_fract_x
 _atom_site_fract_y
 _atom_site_fract_z
 _atom_site_occupancy
  Al  Al0  1  0.11481640  0.09871976  0.30733447  1
  Al  Al1  1  0.21841400  0.20874322  0.05705115  1
  Al  Al2  1  0.79404370  0.08185377  0.80593019  1
  Al  Al3  1  0.90117653  0.20141028  0.56336792  1
  Al  Al4  1  0.44419520  0.09487377  0.36508450  1
  Al  Al5  1  0.54656155  0.20708979  0.11611174  1
  Al  Al6  1  0.10689775  0.08810374  0.81600462  1
  Al  Al7  1  0.88191746  0.20500198  0.05545033  1
  Al  Al8  1  0.45800707  0.07736468  0.87860449  1
  Al  Al9  1  0.56702309  0.18683988  0.62650067  1
  Al  Al10  1  0.12219798  0.41906337  0.31231338  1
  Al  Al11  1  0.20955635  0.55104616  0.06424903  1
  Al  Al12  1  0.78708069  0.42700402  0.80627840  1
  Al  Al13  1  0.89205641  0.54044577  0.55517162  1
  Al  Al14  1  0.42979048  0.44077521  0.29298601  1
  Al  Al15  1  0.55488193  0.54707622  0.05887139  1
  Al  Al16  1  0.09623137  0.44539616  0.80452663  1
  Al  Al17  1  0.21924879  0.54162976  0.55484907  1
  Al  Al18  1  0.77877041  0.42630094  0.30715261  1
  Al  Al19  1  0.11149629  0.75810621  0.31083325  1
  Al  Al20  1  0.21821947  0.87498782  0.06071049  1
  Al  Al21  1  0.77538316  0.76266504  0.80325502  1
  Al  Al22  1  0.90112015  0.85742551  0.56498911  1
  Al  Al23  1  0.43656869  0.76217388  0.30398291  1
  Al  Al24  1  0.55000393  0.88155910  0.10744080  1
  Al  Al25  1  0.10802962  0.76363301  0.81058771  1
  Al  Al26  1  0.21570214  0.87439412  0.56049350  1
  Al  Al27  1  0.78175572  0.75893769  0.31447490  1
  Al  Al28  1  0.88351891  0.88389160  0.05358563  1
  Al  Al29  1  0.44364999  0.77201902  0.81298956  1
  Al  Al30  1  0.56570240  0.86609129  0.57135974  1
  Gd  Gd31  1  0.23269383  0.20037509  0.59158524  1
  Gd  Gd32  1  0.77708495  0.09314666  0.33144976  1
  Gd  Gd33  1  0.88723654  0.54569196  0.06646080  1
  Gd  Gd34  1  0.43939480  0.42133388  0.84223164  1
  Gd  Gd35  1  0.55261445  0.53648942  0.56389012  1
  N  N36  1  0.22203129  0.20244271  0.36273332  1
  N  N37  1  0.10731708  0.09820701  0.11422862  1
  N  N38  1  0.88700330  0.20649868  0.86752446  1
  N  N39  1  0.79234641  0.08723869  0.60612659  1
  N  N40  1  0.51793773  0.22333047  0.29859249  1
  N  N41  1  0.44134775  0.09712084  0.06453829  1
  N  N42  1  0.21683017  0.21095218  0.85529671  1
  N  N43  1  0.09990789  0.07391818  0.63293484  1
  N  N44  1  0.90693132  0.22042878  0.37746809  1
  N  N45  1  0.77393691  0.09814346  0.10122103  1
  N  N46  1  0.57647173  0.16230263  0.81294706  1
  N  N47  1  0.49049044  0.07469923  0.54622768  1
  N  N48  1  0.22275583  0.54132210  0.36462979  1
  N  N49  1  0.14073412  0.41268766  0.12787076  1
  N  N50  1  0.88488302  0.54310700  0.85050393  1
  N  N51  1  0.80845532  0.41241925  0.62112328  1
  N  N52  1  0.55078945  0.53842043  0.34398907  1
  N  N53  1  0.43518192  0.44180876  0.09371319  1
  N  N54  1  0.18045617  0.56039662  0.88207425  1
  N  N55  1  0.09574667  0.46109867  0.61872195  1
  N  N56  1  0.88915756  0.53729907  0.35879974  1
  N  N57  1  0.76379504  0.41326848  0.12277848  1
  N  N58  1  0.57193182  0.55331139  0.86552917  1
  N  N59  1  0.42757605  0.40687748  0.61513277  1
  N  N60  1  0.21802761  0.87411391  0.36750006  1
  N  N61  1  0.10361298  0.76954648  0.12165005  1
  N  N62  1  0.89177339  0.86940915  0.86311539  1
  N  N63  1  0.78078814  0.75625320  0.61400669  1
  N  N64  1  0.55381804  0.86783524  0.33772202  1
  N  N65  1  0.43800456  0.76586547  0.11612720  1
  N  N66  1  0.22249002  0.86901064  0.87379279  1
  N  N67  1  0.12102686  0.75457798  0.62137670  1
  N  N68  1  0.90829325  0.83689974  0.38256861  1
  N  N69  1  0.76738287  0.79662082  0.13012070  1
  N  N70  1  0.56278497  0.86440712  0.85392995  1
  N  N71  1  0.42721202  0.79417988  0.62226938  1
