# generated using pymatgen
data_Gd5Al31N36
_symmetry_space_group_name_H-M   'P 1'
_cell_length_a   9.72777592
_cell_length_b   9.76025667
_cell_length_c   10.30018731
_cell_angle_alpha   90.60156314
_cell_angle_beta   90.86432823
_cell_angle_gamma   59.92964822
_symmetry_Int_Tables_number   1
_chemical_formula_structural   Gd5Al31N36
_chemical_formula_sum   'Gd5 Al31 N36'
_cell_volume   846.23369280
_cell_formula_units_Z   1
loop_
 _symmetry_equiv_pos_site_id
 _symmetry_equiv_pos_as_xyz
  1  'x, y, z'
loop_
 _atom_site_type_symbol
 _atom_site_label
 _atom_site_symmetry_multiplicity
 _atom_site_fract_x
 _atom_site_fract_y
 _atom_site_fract_z
 _atom_site_occupancy
  Al  Al0  1  0.11161129  0.09313913  0.39193388  1
  Al  Al1  1  0.22691494  0.20064659  0.15404409  1
  Al  Al2  1  0.78632560  0.08311034  0.90066967  1
  Al  Al3  1  0.89448501  0.19659654  0.65734449  1
  Al  Al4  1  0.45104264  0.09083424  0.39263070  1
  Al  Al5  1  0.55368740  0.19902114  0.14227804  1
  Al  Al6  1  0.11322961  0.09446541  0.90484064  1
  Al  Al7  1  0.88799451  0.20670695  0.13961724  1
  Al  Al8  1  0.44683705  0.08287989  0.90679854  1
  Al  Al9  1  0.56510480  0.18510181  0.66216151  1
  Al  Al10  1  0.10688689  0.43096652  0.39981712  1
  Al  Al11  1  0.21325040  0.55000940  0.08500865  1
  Al  Al12  1  0.77721728  0.42926016  0.89160448  1
  Al  Al13  1  0.89287262  0.53909821  0.65108263  1
  Al  Al14  1  0.43228588  0.43357428  0.32253563  1
  Al  Al15  1  0.55385210  0.54526302  0.14737564  1
  Al  Al16  1  0.10827277  0.42260653  0.90634265  1
  Al  Al17  1  0.22063911  0.54394310  0.58159219  1
  Al  Al18  1  0.79449723  0.42319853  0.40031825  1
  Al  Al19  1  0.11641581  0.75366392  0.32654989  1
  Al  Al20  1  0.22384720  0.87695522  0.14309624  1
  Al  Al21  1  0.77231191  0.76964951  0.89171049  1
  Al  Al22  1  0.88742765  0.86980522  0.65669408  1
  Al  Al23  1  0.43816130  0.77742627  0.39116817  1
  Al  Al24  1  0.55299530  0.87805968  0.14663402  1
  Al  Al25  1  0.11133743  0.76147349  0.84026855  1
  Al  Al26  1  0.21630939  0.87749497  0.64475998  1
  Al  Al27  1  0.77881710  0.75762694  0.40679864  1
  Al  Al28  1  0.88093219  0.87697473  0.14276937  1
  Al  Al29  1  0.44740519  0.76696430  0.89513035  1
  Al  Al30  1  0.55922662  0.87312639  0.64590778  1
  Gd  Gd31  1  0.23009150  0.20033294  0.63781104  1
  Gd  Gd32  1  0.78174159  0.09646269  0.39924316  1
  Gd  Gd33  1  0.88025835  0.54533187  0.14215362  1
  Gd  Gd34  1  0.45019292  0.42310438  0.87784907  1
  Gd  Gd35  1  0.54991409  0.53900999  0.61426193  1
  N  N36  1  0.22510845  0.20359627  0.34933831  1
  N  N37  1  0.11169238  0.09498590  0.09061137  1
  N  N38  1  0.89196166  0.20356768  0.84517129  1
  N  N39  1  0.78072445  0.09136339  0.61730077  1
  N  N40  1  0.53259944  0.21378838  0.32480388  1
  N  N41  1  0.44104716  0.09184542  0.09300756  1
  N  N42  1  0.22370857  0.20411093  0.85805752  1
  N  N43  1  0.09072465  0.07894432  0.57511652  1
  N  N44  1  0.90397256  0.22293453  0.32153241  1
  N  N45  1  0.77803641  0.09498341  0.09374689  1
  N  N46  1  0.57442236  0.16238681  0.84881151  1
  N  N47  1  0.48492806  0.07352193  0.57366997  1
  N  N48  1  0.22588585  0.54321592  0.38651688  1
  N  N49  1  0.13399190  0.40952792  0.09592696  1
  N  N50  1  0.89047958  0.53827517  0.84655533  1
  N  N51  1  0.81333311  0.40440085  0.58681230  1
  N  N52  1  0.55890222  0.54230187  0.34648688  1
  N  N53  1  0.43637303  0.43646720  0.12733879  1
  N  N54  1  0.19105862  0.55926789  0.90141095  1
  N  N55  1  0.09530006  0.45191394  0.58418222  1
  N  N56  1  0.88714438  0.54291452  0.35767833  1
  N  N57  1  0.75592212  0.41548973  0.07488303  1
  N  N58  1  0.56886894  0.56055090  0.83241167  1
  N  N59  1  0.42474826  0.40405931  0.64609398  1
  N  N60  1  0.22328276  0.87695194  0.33072869  1
  N  N61  1  0.10916608  0.76412974  0.13278765  1
  N  N62  1  0.88916295  0.87061499  0.84361573  1
  N  N63  1  0.77840466  0.75818124  0.59644148  1
  N  N64  1  0.56097787  0.87001571  0.33352725  1
  N  N65  1  0.44536415  0.76333160  0.08789081  1
  N  N66  1  0.22491289  0.87809610  0.84081439  1
  N  N67  1  0.11509940  0.75529706  0.63906833  1
  N  N68  1  0.89376989  0.84590754  0.33127932  1
  N  N69  1  0.75704102  0.79531556  0.07402357  1
  N  N70  1  0.55125211  0.87462012  0.83401573  1
  N  N71  1  0.42263363  0.80237099  0.57562908  1
