# generated using pymatgen
data_Gd5Al31N36
_symmetry_space_group_name_H-M   'P 1'
_cell_length_a   9.75687427
_cell_length_b   9.77833382
_cell_length_c   10.19100606
_cell_angle_alpha   89.61105043
_cell_angle_beta   89.69104787
_cell_angle_gamma   60.04158363
_symmetry_Int_Tables_number   1
_chemical_formula_structural   Gd5Al31N36
_chemical_formula_sum   'Gd5 Al31 N36'
_cell_volume   842.35259864
_cell_formula_units_Z   1
loop_
 _symmetry_equiv_pos_site_id
 _symmetry_equiv_pos_as_xyz
  1  'x, y, z'
loop_
 _atom_site_type_symbol
 _atom_site_label
 _atom_site_symmetry_multiplicity
 _atom_site_fract_x
 _atom_site_fract_y
 _atom_site_fract_z
 _atom_site_occupancy
  Al  Al0  1  0.11336590  0.09581948  0.30416608  1
  Al  Al1  1  0.22111145  0.20630157  0.05597321  1
  Al  Al2  1  0.79463132  0.08328448  0.81054636  1
  Al  Al3  1  0.90065701  0.19963561  0.56562577  1
  Al  Al4  1  0.43575816  0.09066787  0.30491712  1
  Al  Al5  1  0.55056464  0.20584475  0.10962207  1
  Al  Al6  1  0.10923827  0.08721586  0.81600331  1
  Al  Al7  1  0.88434755  0.20286018  0.05564110  1
  Al  Al8  1  0.45100521  0.08214230  0.83459698  1
  Al  Al9  1  0.56416823  0.19136225  0.63304562  1
  Al  Al10  1  0.12137280  0.42166115  0.30976314  1
  Al  Al11  1  0.21005711  0.55091590  0.06454856  1
  Al  Al12  1  0.78951649  0.42648654  0.80742369  1
  Al  Al13  1  0.89145821  0.54285750  0.55653037  1
  Al  Al14  1  0.43129574  0.44002997  0.29309359  1
  Al  Al15  1  0.55749627  0.54607816  0.06244910  1
  Al  Al16  1  0.09832702  0.44441591  0.80374953  1
  Al  Al17  1  0.22067226  0.54177926  0.55546481  1
  Al  Al18  1  0.78126264  0.42456377  0.30741199  1
  Al  Al19  1  0.11223513  0.75770252  0.31196879  1
  Al  Al20  1  0.21992472  0.87333468  0.06163331  1
  Al  Al21  1  0.77503866  0.76282741  0.80266087  1
  Al  Al22  1  0.89906061  0.85682139  0.56609953  1
  Al  Al23  1  0.44124101  0.76403588  0.30358023  1
  Al  Al24  1  0.55406964  0.87579965  0.05939852  1
  Al  Al25  1  0.10706949  0.76418365  0.81078896  1
  Al  Al26  1  0.21819674  0.87178984  0.56227780  1
  Al  Al27  1  0.77743014  0.76150404  0.31426348  1
  Al  Al28  1  0.88337880  0.88221519  0.05570054  1
  Al  Al29  1  0.44487356  0.77105889  0.81278599  1
  Al  Al30  1  0.55937351  0.87072834  0.55712736  1
  Gd  Gd31  1  0.22315251  0.20355071  0.57466827  1
  Gd  Gd32  1  0.77652741  0.09343159  0.33328235  1
  Gd  Gd33  1  0.88844593  0.54489462  0.06755567  1
  Gd  Gd34  1  0.43875658  0.42977844  0.84304464  1
  Gd  Gd35  1  0.55682924  0.53601003  0.56259329  1
  N  N36  1  0.22329238  0.20030429  0.35138093  1
  N  N37  1  0.10750177  0.09614174  0.11244508  1
  N  N38  1  0.88933691  0.20622082  0.86750124  1
  N  N39  1  0.78846123  0.08764584  0.60714972  1
  N  N40  1  0.51949314  0.22314648  0.30131148  1
  N  N41  1  0.43886213  0.09286403  0.09136422  1
  N  N42  1  0.21766202  0.21063095  0.85746290  1
  N  N43  1  0.09979816  0.07150799  0.63349089  1
  N  N44  1  0.90834879  0.21935067  0.37879630  1
  N  N45  1  0.77727101  0.09579801  0.10241041  1
  N  N46  1  0.57809660  0.17238870  0.82941174  1
  N  N47  1  0.47395042  0.07181054  0.61470027  1
  N  N48  1  0.22345973  0.54082394  0.36433276  1
  N  N49  1  0.14140766  0.41276993  0.12570125  1
  N  N50  1  0.88571833  0.54408676  0.85033460  1
  N  N51  1  0.81219169  0.41053614  0.62173250  1
  N  N52  1  0.55222922  0.53912619  0.34159629  1
  N  N53  1  0.43628799  0.44166226  0.09416853  1
  N  N54  1  0.17966311  0.56152624  0.88201811  1
  N  N55  1  0.09627122  0.46227174  0.61815811  1
  N  N56  1  0.88913549  0.53800532  0.35784056  1
  N  N57  1  0.76712685  0.41034718  0.12291205  1
  N  N58  1  0.57572476  0.55567660  0.86845813  1
  N  N59  1  0.42963236  0.40955053  0.61534612  1
  N  N60  1  0.22050936  0.87296748  0.36711484  1
  N  N61  1  0.10412171  0.76859892  0.12222819  1
  N  N62  1  0.89030190  0.86979254  0.86353338  1
  N  N63  1  0.77542027  0.75860481  0.61421243  1
  N  N64  1  0.55402105  0.86994932  0.36510857  1
  N  N65  1  0.44227687  0.76688413  0.11584101  1
  N  N66  1  0.22394784  0.86753050  0.87403390  1
  N  N67  1  0.11953816  0.75507221  0.62091813  1
  N  N68  1  0.90710055  0.83677994  0.38198627  1
  N  N69  1  0.76052859  0.79813399  0.12913792  1
  N  N70  1  0.56199169  0.86563209  0.87207334  1
  N  N71  1  0.42964574  0.78998787  0.62474736  1
