# generated using pymatgen
data_Gd5Al31N36
_symmetry_space_group_name_H-M   'P 1'
_cell_length_a   9.71066119
_cell_length_b   9.71895555
_cell_length_c   10.23005165
_cell_angle_alpha   90.35036396
_cell_angle_beta   90.28319346
_cell_angle_gamma   60.18275995
_symmetry_Int_Tables_number   1
_chemical_formula_structural   Gd5Al31N36
_chemical_formula_sum   'Gd5 Al31 N36'
_cell_volume   837.65377702
_cell_formula_units_Z   1
loop_
 _symmetry_equiv_pos_site_id
 _symmetry_equiv_pos_as_xyz
  1  'x, y, z'
loop_
 _atom_site_type_symbol
 _atom_site_label
 _atom_site_symmetry_multiplicity
 _atom_site_fract_x
 _atom_site_fract_y
 _atom_site_fract_z
 _atom_site_occupancy
  Al  Al0  1  0.11145378  0.09325707  0.38924818  1
  Al  Al1  1  0.22902835  0.20218718  0.14911558  1
  Al  Al2  1  0.78413293  0.08567809  0.89830994  1
  Al  Al3  1  0.89393969  0.19750267  0.65673631  1
  Al  Al4  1  0.45128430  0.08984013  0.39202581  1
  Al  Al5  1  0.55723344  0.19798479  0.14349931  1
  Al  Al6  1  0.11332572  0.09344336  0.90249052  1
  Al  Al7  1  0.88966781  0.20588166  0.13886433  1
  Al  Al8  1  0.44618338  0.08421348  0.90466243  1
  Al  Al9  1  0.56354415  0.18866268  0.66035923  1
  Al  Al10  1  0.10923460  0.43592996  0.40017574  1
  Al  Al11  1  0.21694012  0.54643538  0.14903695  1
  Al  Al12  1  0.77538751  0.42830876  0.89283519  1
  Al  Al13  1  0.89083510  0.54023499  0.64985201  1
  Al  Al14  1  0.43945701  0.42956251  0.33684921  1
  Al  Al15  1  0.55642985  0.54457447  0.15002059  1
  Al  Al16  1  0.10978642  0.42707468  0.89757416  1
  Al  Al17  1  0.20808037  0.54573211  0.64996623  1
  Al  Al18  1  0.79574025  0.42347552  0.40055945  1
  Al  Al19  1  0.11428230  0.75631488  0.39681759  1
  Al  Al20  1  0.22127856  0.87291632  0.14414291  1
  Al  Al21  1  0.77134565  0.76971211  0.89062840  1
  Al  Al22  1  0.89180550  0.86883447  0.65486164  1
  Al  Al23  1  0.43706705  0.77718282  0.39132874  1
  Al  Al24  1  0.55390330  0.87730038  0.14544238  1
  Al  Al25  1  0.10372189  0.76661785  0.89651377  1
  Al  Al26  1  0.21278511  0.87635134  0.64374508  1
  Al  Al27  1  0.77980577  0.75722828  0.40401029  1
  Al  Al28  1  0.88910060  0.87255338  0.14285553  1
  Al  Al29  1  0.44478135  0.76622961  0.89570732  1
  Al  Al30  1  0.55887833  0.87342198  0.64510625  1
  Gd  Gd31  1  0.22933278  0.20004308  0.63325208  1
  Gd  Gd32  1  0.78357945  0.09447090  0.39841858  1
  Gd  Gd33  1  0.88737035  0.54223311  0.13791819  1
  Gd  Gd34  1  0.43829406  0.42853528  0.89311413  1
  Gd  Gd35  1  0.54883558  0.53979313  0.61807153  1
  N  N36  1  0.22533137  0.20521404  0.34714702  1
  N  N37  1  0.11391190  0.09376174  0.09014848  1
  N  N38  1  0.89258334  0.20355209  0.84534107  1
  N  N39  1  0.78054372  0.09186678  0.61749089  1
  N  N40  1  0.53574099  0.21132150  0.32646341  1
  N  N41  1  0.44355786  0.09181045  0.09184828  1
  N  N42  1  0.22417824  0.20337251  0.85477483  1
  N  N43  1  0.09002807  0.07937850  0.57397452  1
  N  N44  1  0.90442037  0.22316636  0.32122715  1
  N  N45  1  0.78098242  0.09253854  0.09364644  1
  N  N46  1  0.57101751  0.16972681  0.84802998  1
  N  N47  1  0.48512240  0.07337902  0.57373563  1
  N  N48  1  0.21721539  0.54306794  0.33693038  1
  N  N49  1  0.14373471  0.41326322  0.08344151  1
  N  N50  1  0.88762298  0.53871549  0.84699730  1
  N  N51  1  0.81263791  0.40520973  0.58722862  1
  N  N52  1  0.55992932  0.54239058  0.35022757  1
  N  N53  1  0.44327181  0.43353664  0.12808716  1
  N  N54  1  0.18378308  0.55967417  0.83454040  1
  N  N55  1  0.09476926  0.45548594  0.58272248  1
  N  N56  1  0.88914470  0.54249293  0.35528840  1
  N  N57  1  0.75888869  0.41562106  0.07742665  1
  N  N58  1  0.56491707  0.55651995  0.83832433  1
  N  N59  1  0.42489164  0.40361788  0.63005249  1
  N  N60  1  0.21943886  0.87172575  0.33134482  1
  N  N61  1  0.11097827  0.76232124  0.08560820  1
  N  N62  1  0.89050068  0.87097443  0.84096641  1
  N  N63  1  0.77822678  0.75917920  0.59531475  1
  N  N64  1  0.56132191  0.86957946  0.33300659  1
  N  N65  1  0.44427958  0.76334967  0.08952037  1
  N  N66  1  0.22055648  0.87327952  0.83796924  1
  N  N67  1  0.11087143  0.76079865  0.58646535  1
  N  N68  1  0.90300280  0.84186256  0.32950528  1
  N  N69  1  0.75965319  0.79397111  0.07476386  1
  N  N70  1  0.55081881  0.87391619  0.83453219  1
  N  N71  1  0.42068935  0.80376209  0.57639415  1
