# generated using pymatgen
data_Gd5Al31N36
_symmetry_space_group_name_H-M   'P 1'
_cell_length_a   9.72095291
_cell_length_b   9.72670101
_cell_length_c   10.46601839
_cell_angle_alpha   90.09801865
_cell_angle_beta   90.37448452
_cell_angle_gamma   60.25297240
_symmetry_Int_Tables_number   1
_chemical_formula_structural   Gd5Al31N36
_chemical_formula_sum   'Gd5 Al31 N36'
_cell_volume   859.16783854
_cell_formula_units_Z   1
loop_
 _symmetry_equiv_pos_site_id
 _symmetry_equiv_pos_as_xyz
  1  'x, y, z'
loop_
 _atom_site_type_symbol
 _atom_site_label
 _atom_site_symmetry_multiplicity
 _atom_site_fract_x
 _atom_site_fract_y
 _atom_site_fract_z
 _atom_site_occupancy
  Al  Al0  1  0.12863018  0.08952392  0.29352934  1
  Al  Al1  1  0.22284830  0.20540473  0.05187107  1
  Al  Al2  1  0.77710809  0.09770869  0.87478505  1
  Al  Al3  1  0.88607902  0.19822511  0.63485877  1
  Al  Al4  1  0.45312146  0.08675928  0.36820149  1
  Al  Al5  1  0.54706618  0.20585000  0.11389339  1
  Al  Al6  1  0.10884129  0.08830033  0.81473450  1
  Al  Al7  1  0.88624251  0.20868944  0.11646119  1
  Al  Al8  1  0.45272165  0.08139977  0.87500124  1
  Al  Al9  1  0.56935590  0.18139282  0.62997444  1
  Al  Al10  1  0.13425389  0.41502568  0.30594313  1
  Al  Al11  1  0.21214606  0.54914237  0.06270200  1
  Al  Al12  1  0.77476897  0.42912151  0.87248233  1
  Al  Al13  1  0.88239623  0.54448434  0.63119985  1
  Al  Al14  1  0.43873693  0.43773605  0.29190543  1
  Al  Al15  1  0.54599353  0.55163635  0.04992927  1
  Al  Al16  1  0.09735894  0.44211919  0.81375245  1
  Al  Al17  1  0.21781235  0.53997405  0.55493419  1
  Al  Al18  1  0.80642732  0.41882408  0.37489512  1
  Al  Al19  1  0.11464809  0.75669466  0.30897775  1
  Al  Al20  1  0.22260755  0.87144647  0.05577334  1
  Al  Al21  1  0.76654848  0.77234143  0.87021518  1
  Al  Al22  1  0.90048005  0.85983954  0.56352081  1
  Al  Al23  1  0.44721805  0.75538129  0.30049257  1
  Al  Al24  1  0.55408204  0.88334983  0.12354000  1
  Al  Al25  1  0.10218711  0.76826121  0.80611662  1
  Al  Al26  1  0.21481923  0.87459510  0.55534189  1
  Al  Al27  1  0.78219740  0.74771607  0.38340032  1
  Al  Al28  1  0.89350566  0.87656941  0.05127667  1
  Al  Al29  1  0.43113981  0.77616092  0.80346978  1
  Al  Al30  1  0.56109272  0.87592061  0.62483077  1
  Gd  Gd31  1  0.21799299  0.20776122  0.57641816  1
  Gd  Gd32  1  0.77417003  0.10192903  0.35941922  1
  Gd  Gd33  1  0.88397709  0.54417740  0.11137581  1
  Gd  Gd34  1  0.42788033  0.42765488  0.83195277  1
  Gd  Gd35  1  0.55193821  0.53684932  0.56596236  1
  N  N36  1  0.22745884  0.19890901  0.35676959  1
  N  N37  1  0.12036322  0.08963486  0.10477663  1
  N  N38  1  0.87614527  0.21401611  0.81965082  1
  N  N39  1  0.78306913  0.09006985  0.57939907  1
  N  N40  1  0.52280541  0.21740014  0.29254200  1
  N  N41  1  0.44639836  0.09096569  0.05638400  1
  N  N42  1  0.21359922  0.21288106  0.85843486  1
  N  N43  1  0.10277738  0.07029740  0.63327800  1
  N  N44  1  0.90667141  0.22096792  0.29738722  1
  N  N45  1  0.77344727  0.10152485  0.06972631  1
  N  N46  1  0.57334824  0.16660460  0.81420428  1
  N  N47  1  0.48503197  0.07132142  0.54872873  1
  N  N48  1  0.23015119  0.53838338  0.36541619  1
  N  N49  1  0.14900295  0.40726895  0.12317377  1
  N  N50  1  0.87156788  0.54836988  0.82358837  1
  N  N51  1  0.82142877  0.40090760  0.56119097  1
  N  N52  1  0.56581527  0.53209708  0.34622364  1
  N  N53  1  0.43703392  0.44115681  0.09542910  1
  N  N54  1  0.17338124  0.56671833  0.88569012  1
  N  N55  1  0.09886506  0.46164798  0.63239303  1
  N  N56  1  0.90203164  0.53660825  0.32840345  1
  N  N57  1  0.76543211  0.41217758  0.05156643  1
  N  N58  1  0.55227053  0.56570523  0.85837161  1
  N  N59  1  0.42851931  0.40384879  0.61317767  1
  N  N60  1  0.22525444  0.87143457  0.36417915  1
  N  N61  1  0.10589507  0.76721506  0.12279250  1
  N  N62  1  0.89333884  0.87643924  0.86208623  1
  N  N63  1  0.77303964  0.75307899  0.57038655  1
  N  N64  1  0.56697667  0.86847713  0.30949063  1
  N  N65  1  0.44057494  0.76330200  0.11424209  1
  N  N66  1  0.21891557  0.87138248  0.87233606  1
  N  N67  1  0.11907865  0.75482013  0.61925098  1
  N  N68  1  0.91217082  0.84024029  0.37756012  1
  N  N69  1  0.75567501  0.79438926  0.05277535  1
  N  N70  1  0.55431830  0.87758805  0.80976232  1
  N  N71  1  0.42203730  0.79185013  0.61900225  1
