# generated using pymatgen
data_Gd5Al31N36
_symmetry_space_group_name_H-M   'P 1'
_cell_length_a   9.77483690
_cell_length_b   9.74562068
_cell_length_c   10.34867612
_cell_angle_alpha   90.02698094
_cell_angle_beta   90.49131276
_cell_angle_gamma   60.00199656
_symmetry_Int_Tables_number   1
_chemical_formula_structural   Gd5Al31N36
_chemical_formula_sum   'Gd5 Al31 N36'
_cell_volume   853.73483594
_cell_formula_units_Z   1
loop_
 _symmetry_equiv_pos_site_id
 _symmetry_equiv_pos_as_xyz
  1  'x, y, z'
loop_
 _atom_site_type_symbol
 _atom_site_label
 _atom_site_symmetry_multiplicity
 _atom_site_fract_x
 _atom_site_fract_y
 _atom_site_fract_z
 _atom_site_occupancy
  Al  Al0  1  0.12252519  0.09340258  0.34083952  1
  Al  Al1  1  0.22450724  0.20615237  0.07749586  1
  Al  Al2  1  0.78474053  0.08348622  0.90459116  1
  Al  Al3  1  0.88550026  0.20243902  0.66589251  1
  Al  Al4  1  0.45267694  0.08727349  0.39809774  1
  Al  Al5  1  0.55115799  0.19945239  0.14232033  1
  Al  Al6  1  0.10682003  0.09177935  0.86543710  1
  Al  Al7  1  0.88739984  0.20529380  0.13625068  1
  Al  Al8  1  0.45621150  0.08022605  0.90167265  1
  Al  Al9  1  0.56544402  0.18830587  0.66264984  1
  Al  Al10  1  0.12708420  0.41617200  0.33528517  1
  Al  Al11  1  0.21250316  0.54844964  0.08930718  1
  Al  Al12  1  0.76749749  0.43324367  0.89492420  1
  Al  Al13  1  0.87978916  0.54556225  0.65624438  1
  Al  Al14  1  0.42951239  0.43030956  0.32506250  1
  Al  Al15  1  0.55627289  0.53768088  0.15089033  1
  Al  Al16  1  0.10151265  0.44344039  0.83958252  1
  Al  Al17  1  0.21374195  0.54088445  0.58607964  1
  Al  Al18  1  0.80686988  0.41882215  0.40036292  1
  Al  Al19  1  0.11761526  0.75408867  0.33120664  1
  Al  Al20  1  0.22706656  0.86654870  0.07832675  1
  Al  Al21  1  0.77061345  0.77357518  0.89640196  1
  Al  Al22  1  0.88650986  0.87248015  0.65583486  1
  Al  Al23  1  0.43940871  0.76791141  0.33338324  1
  Al  Al24  1  0.55510438  0.88067530  0.15040089  1
  Al  Al25  1  0.11245936  0.76143455  0.83275200  1
  Al  Al26  1  0.20906625  0.87805879  0.58163319  1
  Al  Al27  1  0.78475571  0.75219001  0.40475294  1
  Al  Al28  1  0.88439085  0.87606722  0.14944254  1
  Al  Al29  1  0.43643610  0.77461379  0.81839121  1
  Al  Al30  1  0.56530708  0.87631330  0.64549088  1
  Gd  Gd31  1  0.22713996  0.20142009  0.61929695  1
  Gd  Gd32  1  0.77671850  0.10055832  0.39733738  1
  Gd  Gd33  1  0.88554958  0.54060019  0.12755330  1
  Gd  Gd34  1  0.44523969  0.42850385  0.87584151  1
  Gd  Gd35  1  0.54547761  0.53969262  0.59915523  1
  N  N36  1  0.22701056  0.19949419  0.38820474  1
  N  N37  1  0.11225760  0.09449607  0.10226962  1
  N  N38  1  0.87837980  0.21056962  0.85267118  1
  N  N39  1  0.77995456  0.09492959  0.61367576  1
  N  N40  1  0.52841335  0.21153324  0.32333130  1
  N  N41  1  0.44668131  0.08894734  0.08536696  1
  N  N42  1  0.21981158  0.21295866  0.88083805  1
  N  N43  1  0.09674212  0.07627650  0.65035471  1
  N  N44  1  0.90608730  0.22030542  0.32019816  1
  N  N45  1  0.77763671  0.09345962  0.09650947  1
  N  N46  1  0.57629568  0.16701284  0.84795836  1
  N  N47  1  0.49045782  0.07390608  0.57711884  1
  N  N48  1  0.22323924  0.53936768  0.39474663  1
  N  N49  1  0.14860304  0.40738897  0.15030849  1
  N  N50  1  0.87642100  0.54602555  0.85706751  1
  N  N51  1  0.81424023  0.40566787  0.58522604  1
  N  N52  1  0.56288847  0.53100541  0.35048890  1
  N  N53  1  0.43604554  0.43606997  0.12770346  1
  N  N54  1  0.18311018  0.56263333  0.91002134  1
  N  N55  1  0.09428960  0.46146277  0.65707519  1
  N  N56  1  0.89736504  0.53832139  0.35112813  1
  N  N57  1  0.75329191  0.41577513  0.07744474  1
  N  N58  1  0.56766043  0.55724279  0.82561851  1
  N  N59  1  0.42207372  0.40634438  0.64580943  1
  N  N60  1  0.21865510  0.87307475  0.38934692  1
  N  N61  1  0.11598768  0.76337346  0.14442084  1
  N  N62  1  0.88896338  0.87191588  0.84196743  1
  N  N63  1  0.78036492  0.75772061  0.59294433  1
  N  N64  1  0.56452188  0.86990623  0.33908439  1
  N  N65  1  0.44092314  0.76408636  0.14385400  1
  N  N66  1  0.22762357  0.86355560  0.89292911  1
  N  N67  1  0.11809124  0.75612912  0.64157919  1
  N  N68  1  0.89549032  0.84837517  0.33602156  1
  N  N69  1  0.75932757  0.79681562  0.07917296  1
  N  N70  1  0.55730599  0.87619459  0.83396887  1
  N  N71  1  0.41949597  0.80375159  0.63034917  1
