# generated using pymatgen
data_Gd5Al31N36
_symmetry_space_group_name_H-M   'P 1'
_cell_length_a   9.70891018
_cell_length_b   9.72059578
_cell_length_c   10.49638442
_cell_angle_alpha   90.13965771
_cell_angle_beta   90.39474531
_cell_angle_gamma   60.23380270
_symmetry_Int_Tables_number   1
_chemical_formula_structural   Gd5Al31N36
_chemical_formula_sum   'Gd5 Al31 N36'
_cell_volume   859.88723891
_cell_formula_units_Z   1
loop_
 _symmetry_equiv_pos_site_id
 _symmetry_equiv_pos_as_xyz
  1  'x, y, z'
loop_
 _atom_site_type_symbol
 _atom_site_label
 _atom_site_symmetry_multiplicity
 _atom_site_fract_x
 _atom_site_fract_y
 _atom_site_fract_z
 _atom_site_occupancy
  Al  Al0  1  0.12927466  0.08894320  0.30843443  1
  Al  Al1  1  0.22201129  0.20605256  0.06709517  1
  Al  Al2  1  0.77670645  0.09812415  0.89033250  1
  Al  Al3  1  0.88600075  0.19795983  0.65095327  1
  Al  Al4  1  0.45372519  0.08631251  0.38359941  1
  Al  Al5  1  0.54717300  0.20582314  0.12923857  1
  Al  Al6  1  0.10890551  0.08848294  0.83013997  1
  Al  Al7  1  0.88629325  0.20857129  0.13195180  1
  Al  Al8  1  0.45215399  0.08195852  0.89050721  1
  Al  Al9  1  0.56922298  0.18111175  0.64557224  1
  Al  Al10  1  0.13514638  0.41467338  0.32137052  1
  Al  Al11  1  0.21169587  0.54915347  0.07787349  1
  Al  Al12  1  0.77501045  0.42945973  0.88834586  1
  Al  Al13  1  0.88229899  0.54444238  0.64662265  1
  Al  Al14  1  0.43927167  0.43749928  0.30677818  1
  Al  Al15  1  0.54591145  0.55143033  0.06505464  1
  Al  Al16  1  0.09686715  0.44234611  0.82912239  1
  Al  Al17  1  0.21788932  0.53980049  0.57026568  1
  Al  Al18  1  0.80758874  0.41781176  0.39110452  1
  Al  Al19  1  0.11499969  0.75656050  0.32430163  1
  Al  Al20  1  0.22273528  0.87130327  0.07099265  1
  Al  Al21  1  0.76633783  0.77212333  0.88586361  1
  Al  Al22  1  0.90071126  0.85964956  0.57906512  1
  Al  Al23  1  0.44787339  0.75494571  0.31553262  1
  Al  Al24  1  0.55378483  0.88385546  0.13882701  1
  Al  Al25  1  0.10194437  0.76843984  0.82163332  1
  Al  Al26  1  0.21508684  0.87429511  0.57099763  1
  Al  Al27  1  0.78251464  0.74759950  0.39977433  1
  Al  Al28  1  0.89343481  0.87664658  0.06617319  1
  Al  Al29  1  0.43126233  0.77604053  0.81886792  1
  Al  Al30  1  0.56095327  0.87596170  0.64055389  1
  Gd  Gd31  1  0.21718678  0.20799804  0.59071684  1
  Gd  Gd32  1  0.77441502  0.10203698  0.37571288  1
  Gd  Gd33  1  0.88211901  0.54530134  0.12985973  1
  Gd  Gd34  1  0.42745959  0.42842034  0.84629313  1
  Gd  Gd35  1  0.55196860  0.53660485  0.58020293  1
  N  N36  1  0.22791708  0.19855231  0.37183073  1
  N  N37  1  0.12062455  0.08933967  0.12036818  1
  N  N38  1  0.87586719  0.21431086  0.83498848  1
  N  N39  1  0.78312669  0.08978227  0.59505218  1
  N  N40  1  0.52330736  0.21690108  0.30753764  1
  N  N41  1  0.44601403  0.09139084  0.07149913  1
  N  N42  1  0.21287621  0.21343591  0.87441376  1
  N  N43  1  0.10310618  0.06998542  0.64922050  1
  N  N44  1  0.90698600  0.22065085  0.31244676  1
  N  N45  1  0.77331071  0.10175578  0.08449654  1
  N  N46  1  0.57278260  0.16712239  0.82935532  1
  N  N47  1  0.48486233  0.07114322  0.56383902  1
  N  N48  1  0.23084851  0.53815552  0.38099468  1
  N  N49  1  0.14761487  0.40806414  0.13885149  1
  N  N50  1  0.87087628  0.54884895  0.83786909  1
  N  N51  1  0.82189274  0.40012102  0.57660057  1
  N  N52  1  0.56678969  0.53155930  0.36134803  1
  N  N53  1  0.43684963  0.44112634  0.11114718  1
  N  N54  1  0.17306303  0.56684630  0.90133225  1
  N  N55  1  0.09917815  0.46145306  0.64815561  1
  N  N56  1  0.90310690  0.53600620  0.34578894  1
  N  N57  1  0.76598366  0.41207797  0.06683251  1
  N  N58  1  0.55209572  0.56604810  0.87485259  1
  N  N59  1  0.42883516  0.40367579  0.62835600  1
  N  N60  1  0.22589229  0.87109704  0.37988295  1
  N  N61  1  0.10575296  0.76730455  0.13837355  1
  N  N62  1  0.89300788  0.87664602  0.87761998  1
  N  N63  1  0.77292202  0.75305811  0.58568924  1
  N  N64  1  0.56781515  0.86802582  0.32447507  1
  N  N65  1  0.44078732  0.76310456  0.12992261  1
  N  N66  1  0.21886201  0.87151930  0.88793948  1
  N  N67  1  0.11929336  0.75457176  0.63503290  1
  N  N68  1  0.91264455  0.84013748  0.39356940  1
  N  N69  1  0.75546045  0.79436274  0.06773321  1
  N  N70  1  0.55400511  0.87812778  0.82491856  1
  N  N71  1  0.42240697  0.79109991  0.63489736  1
