# generated using pymatgen
data_Gd5Al31N36
_symmetry_space_group_name_H-M   'P 1'
_cell_length_a   9.74558954
_cell_length_b   9.72791474
_cell_length_c   10.41054710
_cell_angle_alpha   89.94417385
_cell_angle_beta   90.40362428
_cell_angle_gamma   59.85543321
_symmetry_Int_Tables_number   1
_chemical_formula_structural   Gd5Al31N36
_chemical_formula_sum   'Gd5 Al31 N36'
_cell_volume   853.45546630
_cell_formula_units_Z   1
loop_
 _symmetry_equiv_pos_site_id
 _symmetry_equiv_pos_as_xyz
  1  'x, y, z'
loop_
 _atom_site_type_symbol
 _atom_site_label
 _atom_site_symmetry_multiplicity
 _atom_site_fract_x
 _atom_site_fract_y
 _atom_site_fract_z
 _atom_site_occupancy
  Al  Al0  1  0.10803777  0.09547445  0.40500687  1
  Al  Al1  1  0.23325995  0.19387089  0.15878039  1
  Al  Al2  1  0.78657732  0.08351949  0.91692213  1
  Al  Al3  1  0.88672183  0.20202942  0.67367340  1
  Al  Al4  1  0.45444425  0.08628963  0.41214692  1
  Al  Al5  1  0.55561065  0.19806887  0.15772949  1
  Al  Al6  1  0.10797189  0.10304343  0.92143536  1
  Al  Al7  1  0.88841611  0.20409739  0.15510135  1
  Al  Al8  1  0.44724792  0.08658014  0.92093955  1
  Al  Al9  1  0.56184999  0.19144627  0.68065688  1
  Al  Al10  1  0.12393130  0.42118676  0.35475366  1
  Al  Al11  1  0.21375691  0.54598977  0.10332847  1
  Al  Al12  1  0.77078925  0.43282264  0.90568244  1
  Al  Al13  1  0.87991625  0.54549305  0.67051643  1
  Al  Al14  1  0.43189315  0.42892860  0.34031145  1
  Al  Al15  1  0.55858330  0.53528076  0.16447609  1
  Al  Al16  1  0.10598425  0.43780491  0.85231262  1
  Al  Al17  1  0.21528694  0.53906816  0.60240824  1
  Al  Al18  1  0.80140706  0.42154112  0.41509835  1
  Al  Al19  1  0.12044004  0.75036868  0.34440765  1
  Al  Al20  1  0.22830589  0.86379497  0.09592135  1
  Al  Al21  1  0.77108039  0.77315659  0.91276354  1
  Al  Al22  1  0.88470484  0.87216775  0.67408962  1
  Al  Al23  1  0.44015185  0.76667349  0.34388451  1
  Al  Al24  1  0.55917530  0.87820760  0.16577448  1
  Al  Al25  1  0.11266923  0.76191542  0.85017506  1
  Al  Al26  1  0.20693220  0.87221275  0.58870779  1
  Al  Al27  1  0.78441961  0.75276477  0.42031595  1
  Al  Al28  1  0.88582018  0.87520379  0.16477252  1
  Al  Al29  1  0.43317398  0.78092810  0.83679099  1
  Al  Al30  1  0.56295140  0.88118062  0.66412970  1
  Gd  Gd31  1  0.22718425  0.18997967  0.64537829  1
  Gd  Gd32  1  0.78068265  0.09854623  0.41837578  1
  Gd  Gd33  1  0.88710622  0.53671474  0.14322178  1
  Gd  Gd34  1  0.44802594  0.43107203  0.89218430  1
  Gd  Gd35  1  0.53969833  0.55040178  0.61562722  1
  N  N36  1  0.23155773  0.19216759  0.37676218  1
  N  N37  1  0.11083878  0.09800921  0.10709240  1
  N  N38  1  0.89076510  0.20572349  0.85920793  1
  N  N39  1  0.77645564  0.09434113  0.63438986  1
  N  N40  1  0.53377454  0.20908077  0.33857734  1
  N  N41  1  0.44559360  0.08948377  0.10514008  1
  N  N42  1  0.22291515  0.20684774  0.87488354  1
  N  N43  1  0.07397178  0.08840193  0.58505646  1
  N  N44  1  0.90408610  0.22233247  0.33362051  1
  N  N45  1  0.78097906  0.09183630  0.10863598  1
  N  N46  1  0.57414336  0.16930932  0.86619064  1
  N  N47  1  0.48464995  0.07952148  0.59091197  1
  N  N48  1  0.22558243  0.53716365  0.41268127  1
  N  N49  1  0.14795196  0.41162162  0.17105442  1
  N  N50  1  0.87939729  0.54552454  0.86979849  1
  N  N51  1  0.80726988  0.41124556  0.60029139  1
  N  N52  1  0.56447404  0.53060392  0.36351966  1
  N  N53  1  0.43744758  0.43478892  0.14332003  1
  N  N54  1  0.18470627  0.55993328  0.92460729  1
  N  N55  1  0.09690793  0.45534919  0.66744688  1
  N  N56  1  0.89570867  0.53871538  0.36758888  1
  N  N57  1  0.75440283  0.41223306  0.08709107  1
  N  N58  1  0.56866478  0.56180353  0.83847387  1
  N  N59  1  0.42425090  0.41061688  0.66341575  1
  N  N60  1  0.22638814  0.86044975  0.40050749  1
  N  N61  1  0.11753145  0.76081103  0.15886736  1
  N  N62  1  0.88908955  0.87089639  0.85829075  1
  N  N63  1  0.77806779  0.75955215  0.60854626  1
  N  N64  1  0.56583697  0.86830130  0.35383126  1
  N  N65  1  0.44395284  0.76277183  0.15655844  1
  N  N66  1  0.22394395  0.86833677  0.90988618  1
  N  N67  1  0.11716719  0.75649555  0.65999023  1
  N  N68  1  0.89675732  0.84771715  0.35065735  1
  N  N69  1  0.76272888  0.79349710  0.09489146  1
  N  N70  1  0.55709894  0.87992082  0.85193046  1
  N  N71  1  0.40671035  0.82018924  0.65260739  1
