# generated using pymatgen
data_Gd5Al31N36
_symmetry_space_group_name_H-M   'P 1'
_cell_length_a   9.75672010
_cell_length_b   9.74630259
_cell_length_c   10.39966848
_cell_angle_alpha   89.93833817
_cell_angle_beta   90.37103091
_cell_angle_gamma   60.27128152
_symmetry_Int_Tables_number   1
_chemical_formula_structural   Gd5Al31N36
_chemical_formula_sum   'Gd5 Al31 N36'
_cell_volume   858.73700410
_cell_formula_units_Z   1
loop_
 _symmetry_equiv_pos_site_id
 _symmetry_equiv_pos_as_xyz
  1  'x, y, z'
loop_
 _atom_site_type_symbol
 _atom_site_label
 _atom_site_symmetry_multiplicity
 _atom_site_fract_x
 _atom_site_fract_y
 _atom_site_fract_z
 _atom_site_occupancy
  Al  Al0  1  0.12691669  0.09092568  0.29466620  1
  Al  Al1  1  0.22498220  0.20405811  0.05316164  1
  Al  Al2  1  0.77730531  0.09658347  0.87612653  1
  Al  Al3  1  0.88627762  0.19882537  0.63326436  1
  Al  Al4  1  0.45104247  0.08856984  0.36871161  1
  Al  Al5  1  0.54803506  0.20533481  0.11458132  1
  Al  Al6  1  0.10849875  0.08795726  0.81517104  1
  Al  Al7  1  0.88552348  0.20952406  0.11690411  1
  Al  Al8  1  0.45342225  0.08060505  0.87645119  1
  Al  Al9  1  0.56992888  0.18187783  0.62948454  1
  Al  Al10  1  0.13105444  0.41633722  0.30387190  1
  Al  Al11  1  0.21402928  0.54938866  0.06390104  1
  Al  Al12  1  0.77293330  0.42602545  0.87203557  1
  Al  Al13  1  0.88555397  0.54174861  0.63127482  1
  Al  Al14  1  0.43757228  0.43784898  0.29296775  1
  Al  Al15  1  0.54596017  0.55203051  0.05159566  1
  Al  Al16  1  0.10150844  0.43815425  0.81404197  1
  Al  Al17  1  0.21794958  0.54025995  0.55523624  1
  Al  Al18  1  0.80363457  0.42278104  0.37064932  1
  Al  Al19  1  0.11409838  0.75641545  0.30997835  1
  Al  Al20  1  0.22108880  0.87210669  0.05680296  1
  Al  Al21  1  0.77434452  0.77090801  0.82378933  1
  Al  Al22  1  0.89791161  0.85814299  0.56463726  1
  Al  Al23  1  0.44418283  0.75610352  0.30159603  1
  Al  Al24  1  0.55055245  0.88427216  0.12334927  1
  Al  Al25  1  0.10222285  0.76784752  0.80700331  1
  Al  Al26  1  0.21390206  0.87492678  0.55597473  1
  Al  Al27  1  0.78396369  0.75449707  0.32786938  1
  Al  Al28  1  0.89184157  0.87580709  0.05427972  1
  Al  Al29  1  0.42964011  0.77595915  0.80552726  1
  Al  Al30  1  0.55780834  0.87870140  0.62701144  1
  Gd  Gd31  1  0.21921231  0.20666249  0.57746472  1
  Gd  Gd32  1  0.77401437  0.10214998  0.35903925  1
  Gd  Gd33  1  0.89314390  0.53974948  0.08811761  1
  Gd  Gd34  1  0.42875019  0.42553745  0.83396148  1
  Gd  Gd35  1  0.55226291  0.53745379  0.56792903  1
  N  N36  1  0.22606026  0.20008271  0.35689696  1
  N  N37  1  0.11956316  0.09076527  0.10467433  1
  N  N38  1  0.87631667  0.21223861  0.81950065  1
  N  N39  1  0.78315359  0.09102405  0.57877827  1
  N  N40  1  0.52305112  0.21769766  0.29415626  1
  N  N41  1  0.44696627  0.09141137  0.05767490  1
  N  N42  1  0.21534085  0.21083577  0.85801503  1
  N  N43  1  0.10207022  0.07099757  0.63261775  1
  N  N44  1  0.90587963  0.22132787  0.29886473  1
  N  N45  1  0.77381937  0.10221812  0.06994658  1
  N  N46  1  0.57456479  0.16455377  0.81435837  1
  N  N47  1  0.48505569  0.07189271  0.54964855  1
  N  N48  1  0.22856742  0.53850845  0.36525061  1
  N  N49  1  0.15477251  0.40469356  0.12263565  1
  N  N50  1  0.87762299  0.53993784  0.83123122  1
  N  N51  1  0.82104413  0.40380738  0.56006533  1
  N  N52  1  0.56342055  0.53311518  0.34641930  1
  N  N53  1  0.43765769  0.44112790  0.09544633  1
  N  N54  1  0.17400818  0.56584144  0.88551775  1
  N  N55  1  0.10018638  0.46016099  0.63202145  1
  N  N56  1  0.90039868  0.53659383  0.31913944  1
  N  N57  1  0.76282872  0.41251247  0.05276487  1
  N  N58  1  0.55221154  0.56412914  0.85622680  1
  N  N59  1  0.42857940  0.40431268  0.61341505  1
  N  N60  1  0.22273410  0.87217037  0.36448041  1
  N  N61  1  0.10642637  0.76745886  0.12329116  1
  N  N62  1  0.89273203  0.87429574  0.86606338  1
  N  N63  1  0.77937921  0.76131656  0.61970972  1
  N  N64  1  0.55823899  0.87203398  0.31247280  1
  N  N65  1  0.43881099  0.76406833  0.11369029  1
  N  N66  1  0.21739321  0.87114155  0.87247333  1
  N  N67  1  0.11833769  0.75539448  0.61908854  1
  N  N68  1  0.90940837  0.83843675  0.37896099  1
  N  N69  1  0.76260554  0.79532112  0.09299653  1
  N  N70  1  0.55044818  0.87705111  0.81682294  1
  N  N71  1  0.42156038  0.79311397  0.61915274  1
