# generated using pymatgen
data_Gd5Al31N36
_symmetry_space_group_name_H-M   'P 1'
_cell_length_a   9.70891298
_cell_length_b   9.72059615
_cell_length_c   10.49637333
_cell_angle_alpha   90.13963753
_cell_angle_beta   90.39473713
_cell_angle_gamma   60.23381067
_symmetry_Int_Tables_number   1
_chemical_formula_structural   Gd5Al31N36
_chemical_formula_sum   'Gd5 Al31 N36'
_cell_volume   859.88668093
_cell_formula_units_Z   1
loop_
 _symmetry_equiv_pos_site_id
 _symmetry_equiv_pos_as_xyz
  1  'x, y, z'
loop_
 _atom_site_type_symbol
 _atom_site_label
 _atom_site_symmetry_multiplicity
 _atom_site_fract_x
 _atom_site_fract_y
 _atom_site_fract_z
 _atom_site_occupancy
  Al  Al0  1  0.12925412  0.08896409  0.29928450  1
  Al  Al1  1  0.22199169  0.20607271  0.05794553  1
  Al  Al2  1  0.77668733  0.09814468  0.88117759  1
  Al  Al3  1  0.88598257  0.19798032  0.64179754  1
  Al  Al4  1  0.45370483  0.08633429  0.37444647  1
  Al  Al5  1  0.54715381  0.20584351  0.12008289  1
  Al  Al6  1  0.10888492  0.08850412  0.82098883  1
  Al  Al7  1  0.88627317  0.20859195  0.12280114  1
  Al  Al8  1  0.45213391  0.08197845  0.88135686  1
  Al  Al9  1  0.56920370  0.18113217  0.63642038  1
  Al  Al10  1  0.13512544  0.41469465  0.31221862  1
  Al  Al11  1  0.21167598  0.54917451  0.06872049  1
  Al  Al12  1  0.77499023  0.42948017  0.87919258  1
  Al  Al13  1  0.88227971  0.54446277  0.63747065  1
  Al  Al14  1  0.43925154  0.43751975  0.29762294  1
  Al  Al15  1  0.54589172  0.55145181  0.05590206  1
  Al  Al16  1  0.09684757  0.44236652  0.81997072  1
  Al  Al17  1  0.21786992  0.53982072  0.56111096  1
  Al  Al18  1  0.80756818  0.41783329  0.38195076  1
  Al  Al19  1  0.11497941  0.75658146  0.31514910  1
  Al  Al20  1  0.22271581  0.87132385  0.06184118  1
  Al  Al21  1  0.76631753  0.77214490  0.87670843  1
  Al  Al22  1  0.90069179  0.85966973  0.56991147  1
  Al  Al23  1  0.44785333  0.75496630  0.30638230  1
  Al  Al24  1  0.55376545  0.88387520  0.12967648  1
  Al  Al25  1  0.10192466  0.76846075  0.81247986  1
  Al  Al26  1  0.21506712  0.87431599  0.56184317  1
  Al  Al27  1  0.78249471  0.74762013  0.39061983  1
  Al  Al28  1  0.89341446  0.87666764  0.05702085  1
  Al  Al29  1  0.43124189  0.77606156  0.80971206  1
  Al  Al30  1  0.56093442  0.87598229  0.63140029  1
  Gd  Gd31  1  0.21716934  0.20801806  0.58156645  1
  Gd  Gd32  1  0.77439294  0.10205823  0.36656024  1
  Gd  Gd33  1  0.88210034  0.54532195  0.12070421  1
  Gd  Gd34  1  0.42743934  0.42844160  0.83714022  1
  Gd  Gd35  1  0.55194956  0.53662422  0.57104995  1
  N  N36  1  0.22789654  0.19857366  0.36267958  1
  N  N37  1  0.12060442  0.08936030  0.11121741  1
  N  N38  1  0.87584683  0.21433224  0.82583346  1
  N  N39  1  0.78310732  0.08980266  0.58589938  1
  N  N40  1  0.52328673  0.21692194  0.29838232  1
  N  N41  1  0.44599414  0.09141029  0.06234806  1
  N  N42  1  0.21285611  0.21345661  0.86526267  1
  N  N43  1  0.10308783  0.07000549  0.64006810  1
  N  N44  1  0.90696554  0.22067092  0.30329591  1
  N  N45  1  0.77329142  0.10177665  0.07534261  1
  N  N46  1  0.57276197  0.16714316  0.82020388  1
  N  N47  1  0.48484422  0.07116378  0.55468558  1
  N  N48  1  0.23082866  0.53817633  0.37184070  1
  N  N49  1  0.14759600  0.40808473  0.12969942  1
  N  N50  1  0.87085649  0.54886954  0.82871650  1
  N  N51  1  0.82187346  0.40014223  0.56744653  1
  N  N52  1  0.56676950  0.53157930  0.35219491  1
  N  N53  1  0.43682992  0.44114712  0.10199242  1
  N  N54  1  0.17304287  0.56686752  0.89217924  1
  N  N55  1  0.09915878  0.46147385  0.63900303  1
  N  N56  1  0.90308609  0.53602743  0.33663383  1
  N  N57  1  0.76596394  0.41209828  0.05767982  1
  N  N58  1  0.55207574  0.56606948  0.86569876  1
  N  N59  1  0.42881541  0.40369575  0.61920260  1
  N  N60  1  0.22587192  0.87111784  0.37073019  1
  N  N61  1  0.10573291  0.76732528  0.12922104  1
  N  N62  1  0.89298814  0.87666669  0.86846615  1
  N  N63  1  0.77290314  0.75307806  0.57653564  1
  N  N64  1  0.56779481  0.86804672  0.31532380  1
  N  N65  1  0.44076747  0.76312498  0.12077177  1
  N  N66  1  0.21884252  0.87153991  0.87878696  1
  N  N67  1  0.11927415  0.75459217  0.62587871  1
  N  N68  1  0.91262393  0.84015868  0.38441527  1
  N  N69  1  0.75543965  0.79438410  0.05857908  1
  N  N70  1  0.55398442  0.87814913  0.81576456  1
  N  N71  1  0.42238804  0.79112037  0.62574158  1
