# generated using pymatgen
data_Gd5Al31N36
_symmetry_space_group_name_H-M   'P 1'
_cell_length_a   9.76068682
_cell_length_b   9.72034832
_cell_length_c   10.37484689
_cell_angle_alpha   89.98942520
_cell_angle_beta   90.01974408
_cell_angle_gamma   60.19358513
_symmetry_Int_Tables_number   1
_chemical_formula_structural   Gd5Al31N36
_chemical_formula_sum   'Gd5 Al31 N36'
_cell_volume   854.11892619
_cell_formula_units_Z   1
loop_
 _symmetry_equiv_pos_site_id
 _symmetry_equiv_pos_as_xyz
  1  'x, y, z'
loop_
 _atom_site_type_symbol
 _atom_site_label
 _atom_site_symmetry_multiplicity
 _atom_site_fract_x
 _atom_site_fract_y
 _atom_site_fract_z
 _atom_site_occupancy
  Al  Al0  1  0.12036041  0.09488674  0.29921470  1
  Al  Al1  1  0.22420787  0.20649537  0.05327035  1
  Al  Al2  1  0.77809605  0.09275219  0.87955789  1
  Al  Al3  1  0.89126821  0.19349917  0.62080382  1
  Al  Al4  1  0.44748738  0.09096509  0.37061007  1
  Al  Al5  1  0.54605508  0.20565971  0.11408767  1
  Al  Al6  1  0.11017215  0.08659309  0.82198827  1
  Al  Al7  1  0.88859733  0.20878393  0.08198884  1
  Al  Al8  1  0.45657584  0.07849534  0.87448800  1
  Al  Al9  1  0.57101275  0.18252863  0.63087089  1
  Al  Al10  1  0.12304902  0.41702462  0.31114660  1
  Al  Al11  1  0.21328401  0.54810299  0.06278340  1
  Al  Al12  1  0.78293479  0.43361594  0.81060753  1
  Al  Al13  1  0.89191437  0.54042158  0.55500796  1
  Al  Al14  1  0.42975021  0.43881556  0.28889597  1
  Al  Al15  1  0.55302856  0.55114683  0.05509104  1
  Al  Al16  1  0.09679101  0.44409503  0.80233289  1
  Al  Al17  1  0.22028549  0.53952681  0.55412093  1
  Al  Al18  1  0.77727540  0.43142027  0.29602716  1
  Al  Al19  1  0.11279086  0.75699854  0.31078650  1
  Al  Al20  1  0.22273399  0.87144188  0.05810647  1
  Al  Al21  1  0.78348623  0.76270510  0.80144982  1
  Al  Al22  1  0.89942241  0.85703947  0.56102183  1
  Al  Al23  1  0.43543495  0.76186136  0.30219003  1
  Al  Al24  1  0.54803502  0.88665434  0.13083418  1
  Al  Al25  1  0.10317244  0.76659482  0.80941705  1
  Al  Al26  1  0.21472096  0.87124199  0.55913782  1
  Al  Al27  1  0.78119771  0.75947851  0.31514132  1
  Al  Al28  1  0.89110318  0.87471889  0.06074132  1
  Al  Al29  1  0.43852108  0.76997140  0.80807728  1
  Al  Al30  1  0.56032871  0.87405269  0.62175763  1
  Gd  Gd31  1  0.22540379  0.19942600  0.58480613  1
  Gd  Gd32  1  0.77245517  0.10059465  0.35296264  1
  Gd  Gd33  1  0.89384163  0.54781835  0.06224473  1
  Gd  Gd34  1  0.43499798  0.42861303  0.83596187  1
  Gd  Gd35  1  0.55717402  0.53226211  0.55590691  1
  N  N36  1  0.22368354  0.20040847  0.36267610  1
  N  N37  1  0.11830479  0.09298950  0.10648802  1
  N  N38  1  0.88688143  0.21024677  0.86118489  1
  N  N39  1  0.78409286  0.08942673  0.58064271  1
  N  N40  1  0.51809268  0.21945409  0.29310027  1
  N  N41  1  0.44764062  0.08975773  0.05655301  1
  N  N42  1  0.21767948  0.21193744  0.85522456  1
  N  N43  1  0.10178851  0.06775079  0.63953038  1
  N  N44  1  0.90666321  0.21795152  0.32142291  1
  N  N45  1  0.77068031  0.10130351  0.07325596  1
  N  N46  1  0.57639492  0.16649899  0.81568467  1
  N  N47  1  0.48781004  0.07131554  0.55126283  1
  N  N48  1  0.22459678  0.53925181  0.36510715  1
  N  N49  1  0.14593622  0.40899121  0.12861435  1
  N  N50  1  0.88468476  0.54644620  0.84943664  1
  N  N51  1  0.80923148  0.41146059  0.62509536  1
  N  N52  1  0.55168116  0.53690939  0.33850711  1
  N  N53  1  0.43713418  0.44058729  0.09132061  1
  N  N54  1  0.17792276  0.56164893  0.88249579  1
  N  N55  1  0.09632814  0.45926431  0.61882513  1
  N  N56  1  0.88794006  0.53758605  0.36074964  1
  N  N57  1  0.76106646  0.42704526  0.11274522  1
  N  N58  1  0.56912356  0.55844003  0.86644489  1
  N  N59  1  0.42974148  0.40606644  0.61440654  1
  N  N60  1  0.21898469  0.87316850  0.36721494  1
  N  N61  1  0.10756744  0.76703698  0.12328690  1
  N  N62  1  0.89140410  0.86873090  0.87100997  1
  N  N63  1  0.78394435  0.75536478  0.61425676  1
  N  N64  1  0.54971794  0.87417742  0.31888414  1
  N  N65  1  0.43812893  0.76678589  0.11414034  1
  N  N66  1  0.22295746  0.86615934  0.87384934  1
  N  N67  1  0.11700826  0.75456290  0.62110379  1
  N  N68  1  0.90962281  0.83663950  0.37879131  1
  N  N69  1  0.76897154  0.79573908  0.13089375  1
  N  N70  1  0.55747654  0.87382098  0.81314639  1
  N  N71  1  0.42443061  0.78644407  0.61995949  1
