# generated using pymatgen
data_Gd5Al31N36
_symmetry_space_group_name_H-M   'P 1'
_cell_length_a   9.70658088
_cell_length_b   9.71793581
_cell_length_c   10.23432507
_cell_angle_alpha   89.87802979
_cell_angle_beta   90.04259204
_cell_angle_gamma   60.03910640
_symmetry_Int_Tables_number   1
_chemical_formula_structural   Gd5Al31N36
_chemical_formula_sum   'Gd5 Al31 N36'
_cell_volume   836.37148644
_cell_formula_units_Z   1
loop_
 _symmetry_equiv_pos_site_id
 _symmetry_equiv_pos_as_xyz
  1  'x, y, z'
loop_
 _atom_site_type_symbol
 _atom_site_label
 _atom_site_symmetry_multiplicity
 _atom_site_fract_x
 _atom_site_fract_y
 _atom_site_fract_z
 _atom_site_occupancy
  Al  Al0  1  0.11488051  0.09525904  0.29086530  1
  Al  Al1  1  0.22760607  0.20301329  0.04490377  1
  Al  Al2  1  0.78048926  0.08954364  0.79420081  1
  Al  Al3  1  0.89475454  0.20083347  0.55280889  1
  Al  Al4  1  0.43956641  0.09396349  0.29025123  1
  Al  Al5  1  0.56107371  0.19524860  0.04472771  1
  Al  Al6  1  0.10803179  0.08834602  0.80328970  1
  Al  Al7  1  0.88766237  0.20200583  0.03958243  1
  Al  Al8  1  0.45585826  0.08271640  0.80065364  1
  Al  Al9  1  0.55308470  0.20191910  0.54516209  1
  Al  Al10  1  0.11891607  0.42233615  0.29581074  1
  Al  Al11  1  0.21680605  0.54393901  0.05285469  1
  Al  Al12  1  0.78688893  0.42703355  0.79443169  1
  Al  Al13  1  0.89058953  0.54340288  0.54508770  1
  Al  Al14  1  0.43762309  0.42831691  0.28713735  1
  Al  Al15  1  0.55679377  0.54028072  0.05290928  1
  Al  Al16  1  0.10023525  0.44060378  0.79308040  1
  Al  Al17  1  0.21622453  0.54447564  0.54026584  1
  Al  Al18  1  0.78192442  0.42343372  0.29552680  1
  Al  Al19  1  0.11426048  0.75572746  0.29876733  1
  Al  Al20  1  0.22115945  0.87179112  0.04875388  1
  Al  Al21  1  0.77451045  0.76266015  0.79073130  1
  Al  Al22  1  0.89472506  0.86274442  0.55393685  1
  Al  Al23  1  0.44194814  0.76498538  0.29094320  1
  Al  Al24  1  0.55341944  0.87945038  0.04867381  1
  Al  Al25  1  0.10567955  0.76489250  0.79824654  1
  Al  Al26  1  0.21547869  0.87403581  0.55064363  1
  Al  Al27  1  0.77664676  0.76273004  0.30383794  1
  Al  Al28  1  0.88744985  0.87768726  0.03965789  1
  Al  Al29  1  0.44310498  0.77276618  0.80429051  1
  Al  Al30  1  0.55757212  0.87611086  0.54841518  1
  Gd  Gd31  1  0.22208059  0.20168376  0.55792463  1
  Gd  Gd32  1  0.78300502  0.08943701  0.30393506  1
  Gd  Gd33  1  0.88637318  0.54484604  0.05420114  1
  Gd  Gd34  1  0.43746905  0.42893342  0.81399760  1
  Gd  Gd35  1  0.55411499  0.54506058  0.54701795  1
  N  N36  1  0.22431802  0.20097268  0.33773858  1
  N  N37  1  0.11010014  0.09457808  0.09967052  1
  N  N38  1  0.88641335  0.20705302  0.85294340  1
  N  N39  1  0.77673364  0.09451831  0.59678125  1
  N  N40  1  0.52600338  0.21743389  0.35645200  1
  N  N41  1  0.44393261  0.09410257  0.10240514  1
  N  N42  1  0.22245257  0.20703725  0.84691787  1
  N  N43  1  0.09563031  0.07481043  0.62128739  1
  N  N44  1  0.90938666  0.21704087  0.36735442  1
  N  N45  1  0.78195048  0.09267461  0.08566661  1
  N  N46  1  0.57255987  0.17449690  0.86193044  1
  N  N47  1  0.47651498  0.07806470  0.61714027  1
  N  N48  1  0.22343793  0.53883130  0.35054876  1
  N  N49  1  0.13977903  0.41202536  0.11245603  1
  N  N50  1  0.88587099  0.54339651  0.83766234  1
  N  N51  1  0.80823061  0.41318195  0.60908410  1
  N  N52  1  0.55311017  0.53861363  0.32841100  1
  N  N53  1  0.44335380  0.42660066  0.09099043  1
  N  N54  1  0.18293350  0.55995354  0.87053471  1
  N  N55  1  0.09735144  0.45917495  0.60722230  1
  N  N56  1  0.88878032  0.53834776  0.34696487  1
  N  N57  1  0.76897222  0.40708781  0.11200693  1
  N  N58  1  0.57294889  0.55499382  0.85932562  1
  N  N59  1  0.42842600  0.41497579  0.59573385  1
  N  N60  1  0.22159319  0.87233866  0.35576996  1
  N  N61  1  0.10732365  0.76515002  0.10941462  1
  N  N62  1  0.88769461  0.87156255  0.84839959  1
  N  N63  1  0.77428145  0.76023083  0.60280834  1
  N  N64  1  0.55293115  0.87281095  0.35767037  1
  N  N65  1  0.44388131  0.76565538  0.10383236  1
  N  N66  1  0.22195997  0.86838832  0.86221651  1
  N  N67  1  0.11702794  0.75680302  0.60898119  1
  N  N68  1  0.90835555  0.83806828  0.37106206  1
  N  N69  1  0.76197430  0.79867510  0.11868796  1
  N  N70  1  0.55989634  0.87023062  0.86181431  1
  N  N71  1  0.42610508  0.79767490  0.61657260  1
