# generated using pymatgen
data_Gd5Al31N36
_symmetry_space_group_name_H-M   'P 1'
_cell_length_a   9.75097537
_cell_length_b   9.77210543
_cell_length_c   10.21540639
_cell_angle_alpha   89.63681788
_cell_angle_beta   89.77581857
_cell_angle_gamma   60.07418534
_symmetry_Int_Tables_number   1
_chemical_formula_structural   Gd5Al31N36
_chemical_formula_sum   'Gd5 Al31 N36'
_cell_volume   843.60231544
_cell_formula_units_Z   1
loop_
 _symmetry_equiv_pos_site_id
 _symmetry_equiv_pos_as_xyz
  1  'x, y, z'
loop_
 _atom_site_type_symbol
 _atom_site_label
 _atom_site_symmetry_multiplicity
 _atom_site_fract_x
 _atom_site_fract_y
 _atom_site_fract_z
 _atom_site_occupancy
  Al  Al0  1  0.11450366  0.09588094  0.30504997  1
  Al  Al1  1  0.21923272  0.20763535  0.05861568  1
  Al  Al2  1  0.79391187  0.08274287  0.80811095  1
  Al  Al3  1  0.90030745  0.19945344  0.56520866  1
  Al  Al4  1  0.44287497  0.09265669  0.35851538  1
  Al  Al5  1  0.54798705  0.20452306  0.11352140  1
  Al  Al6  1  0.10821932  0.08714681  0.81606628  1
  Al  Al7  1  0.88347935  0.20312395  0.05553549  1
  Al  Al8  1  0.45020475  0.08680747  0.87165342  1
  Al  Al9  1  0.56312529  0.18952665  0.63000792  1
  Al  Al10  1  0.12191713  0.42057251  0.31050619  1
  Al  Al11  1  0.21044170  0.55077843  0.06439325  1
  Al  Al12  1  0.78924123  0.42655217  0.80724697  1
  Al  Al13  1  0.89114121  0.54324721  0.55619569  1
  Al  Al14  1  0.43115011  0.43959264  0.29270354  1
  Al  Al15  1  0.55730046  0.54573574  0.06194525  1
  Al  Al16  1  0.09747780  0.44537933  0.80389879  1
  Al  Al17  1  0.22072103  0.54201444  0.55523648  1
  Al  Al18  1  0.78118473  0.42451332  0.30736271  1
  Al  Al19  1  0.11230895  0.75750861  0.31192879  1
  Al  Al20  1  0.21972722  0.87339606  0.06144865  1
  Al  Al21  1  0.77464219  0.76315714  0.80305486  1
  Al  Al22  1  0.89903485  0.85737722  0.56580220  1
  Al  Al23  1  0.44152119  0.76335363  0.30273668  1
  Al  Al24  1  0.55466569  0.87457700  0.06141111  1
  Al  Al25  1  0.10719112  0.76422038  0.81063053  1
  Al  Al26  1  0.21796831  0.87203830  0.56193769  1
  Al  Al27  1  0.77782789  0.76045596  0.31365573  1
  Al  Al28  1  0.88313884  0.88270560  0.05541425  1
  Al  Al29  1  0.44477697  0.77169301  0.81284374  1
  Al  Al30  1  0.56259231  0.86643566  0.55544098  1
  Gd  Gd31  1  0.22142878  0.20469649  0.58210271  1
  Gd  Gd32  1  0.77672845  0.09316638  0.33304898  1
  Gd  Gd33  1  0.88834797  0.54501746  0.06741131  1
  Gd  Gd34  1  0.43975085  0.42728644  0.84249347  1
  Gd  Gd35  1  0.55620168  0.53670453  0.56246298  1
  N  N36  1  0.22221453  0.20101139  0.35435045  1
  N  N37  1  0.10761881  0.09631377  0.11292955  1
  N  N38  1  0.88800798  0.20624291  0.86759563  1
  N  N39  1  0.78929613  0.08749204  0.60698892  1
  N  N40  1  0.51826218  0.22168182  0.29854794  1
  N  N41  1  0.44047329  0.09716139  0.06354240  1
  N  N42  1  0.21519058  0.21194717  0.85427144  1
  N  N43  1  0.09904935  0.07084819  0.63372042  1
  N  N44  1  0.90821675  0.21912164  0.37859508  1
  N  N45  1  0.77577319  0.09649440  0.10221275  1
  N  N46  1  0.57593057  0.16799473  0.81874978  1
  N  N47  1  0.47857257  0.07907624  0.56097135  1
  N  N48  1  0.22363699  0.54057350  0.36437314  1
  N  N49  1  0.14125803  0.41298734  0.12639680  1
  N  N50  1  0.88539408  0.54425432  0.85067584  1
  N  N51  1  0.81211504  0.41060674  0.62167489  1
  N  N52  1  0.55218946  0.53806113  0.34162390  1
  N  N53  1  0.43646208  0.44120457  0.09400610  1
  N  N54  1  0.18054509  0.56120838  0.88193815  1
  N  N55  1  0.09540698  0.46374585  0.61829658  1
  N  N56  1  0.88961810  0.53754361  0.35797790  1
  N  N57  1  0.76704733  0.41064884  0.12289121  1
  N  N58  1  0.57510527  0.55524504  0.86805587  1
  N  N59  1  0.42953996  0.41017501  0.61554419  1
  N  N60  1  0.22078327  0.87259022  0.36715839  1
  N  N61  1  0.10399672  0.76863830  0.12226818  1
  N  N62  1  0.89034741  0.86990794  0.86373092  1
  N  N63  1  0.77553160  0.75917403  0.61541845  1
  N  N64  1  0.55738779  0.86199143  0.36339687  1
  N  N65  1  0.44191609  0.76697864  0.11542325  1
  N  N66  1  0.22371581  0.86785635  0.87422406  1
  N  N67  1  0.11977043  0.75503853  0.62098461  1
  N  N68  1  0.90704370  0.83661346  0.38197375  1
  N  N69  1  0.76058740  0.79836765  0.12903222  1
  N  N70  1  0.56243799  0.86493358  0.87044760  1
  N  N71  1  0.42951902  0.79231303  0.62537429  1
