# generated using pymatgen
data_Gd5Al31N36
_symmetry_space_group_name_H-M   'P 1'
_cell_length_a   9.71569753
_cell_length_b   9.75138317
_cell_length_c   10.35290524
_cell_angle_alpha   90.58806706
_cell_angle_beta   90.83824003
_cell_angle_gamma   59.95589742
_symmetry_Int_Tables_number   1
_chemical_formula_structural   Gd5Al31N36
_chemical_formula_sum   'Gd5 Al31 N36'
_cell_volume   848.96721636
_cell_formula_units_Z   1
loop_
 _symmetry_equiv_pos_site_id
 _symmetry_equiv_pos_as_xyz
  1  'x, y, z'
loop_
 _atom_site_type_symbol
 _atom_site_label
 _atom_site_symmetry_multiplicity
 _atom_site_fract_x
 _atom_site_fract_y
 _atom_site_fract_z
 _atom_site_occupancy
  Al  Al0  1  0.10817267  0.09991079  0.38228593  1
  Al  Al1  1  0.22770705  0.20263783  0.15417368  1
  Al  Al2  1  0.78780096  0.08040193  0.90095441  1
  Al  Al3  1  0.89224308  0.19662989  0.65800030  1
  Al  Al4  1  0.45043173  0.09243547  0.39434394  1
  Al  Al5  1  0.55409981  0.19891423  0.14385401  1
  Al  Al6  1  0.11230198  0.09466470  0.91005397  1
  Al  Al7  1  0.88623880  0.20821514  0.13971437  1
  Al  Al8  1  0.44694927  0.08214560  0.90718747  1
  Al  Al9  1  0.56318050  0.18558955  0.66371931  1
  Al  Al10  1  0.10714721  0.43254947  0.40258369  1
  Al  Al11  1  0.21285798  0.55045814  0.08193695  1
  Al  Al12  1  0.77828222  0.42880089  0.89180848  1
  Al  Al13  1  0.89259506  0.53928808  0.65201090  1
  Al  Al14  1  0.43171076  0.43450044  0.32330157  1
  Al  Al15  1  0.55619188  0.54309029  0.14914482  1
  Al  Al16  1  0.10893332  0.42274093  0.90519609  1
  Al  Al17  1  0.22292396  0.54138067  0.58417726  1
  Al  Al18  1  0.79307617  0.42556736  0.40179471  1
  Al  Al19  1  0.11739267  0.75260373  0.32267774  1
  Al  Al20  1  0.22261178  0.87286132  0.11319872  1
  Al  Al21  1  0.77388772  0.76832762  0.89246736  1
  Al  Al22  1  0.88428399  0.87112108  0.65830999  1
  Al  Al23  1  0.44290141  0.77465413  0.38466629  1
  Al  Al24  1  0.55527843  0.87830990  0.14822096  1
  Al  Al25  1  0.11660312  0.76248555  0.83507171  1
  Al  Al26  1  0.20922575  0.87240225  0.58114828  1
  Al  Al27  1  0.77897809  0.75917108  0.40759071  1
  Al  Al28  1  0.88077800  0.87661675  0.14468579  1
  Al  Al29  1  0.44877476  0.76532441  0.90087491  1
  Al  Al30  1  0.55761379  0.87384200  0.64693039  1
  Gd  Gd31  1  0.22582212  0.19698034  0.63923198  1
  Gd  Gd32  1  0.78309736  0.09790282  0.40058017  1
  Gd  Gd33  1  0.88118743  0.54358276  0.14400101  1
  Gd  Gd34  1  0.45259789  0.42185759  0.88037768  1
  Gd  Gd35  1  0.54954234  0.54121772  0.61807346  1
  N  N36  1  0.22514188  0.20687924  0.34796266  1
  N  N37  1  0.10953641  0.10046800  0.09646786  1
  N  N38  1  0.89289208  0.20227081  0.84480520  1
  N  N39  1  0.77881945  0.09122232  0.61761011  1
  N  N40  1  0.53334469  0.21423254  0.32593308  1
  N  N41  1  0.44192749  0.09179917  0.09296674  1
  N  N42  1  0.22343432  0.20247692  0.85854064  1
  N  N43  1  0.08187526  0.08498401  0.56594939  1
  N  N44  1  0.89930730  0.22842874  0.31940173  1
  N  N45  1  0.77872793  0.09397360  0.09350822  1
  N  N46  1  0.57525263  0.16093581  0.84898635  1
  N  N47  1  0.48057620  0.07551186  0.57552462  1
  N  N48  1  0.22656440  0.54455833  0.39072155  1
  N  N49  1  0.13392301  0.41051354  0.09365833  1
  N  N50  1  0.89104760  0.53773302  0.84581752  1
  N  N51  1  0.81249942  0.40495170  0.58760406  1
  N  N52  1  0.56043590  0.54146928  0.34578627  1
  N  N53  1  0.43579586  0.43671840  0.12851324  1
  N  N54  1  0.19208625  0.55955681  0.89902355  1
  N  N55  1  0.09635337  0.45055590  0.58653490  1
  N  N56  1  0.88769951  0.54414988  0.35932999  1
  N  N57  1  0.75606578  0.41508836  0.07337087  1
  N  N58  1  0.56944046  0.56086472  0.83371086  1
  N  N59  1  0.42633758  0.40471871  0.64890429  1
  N  N60  1  0.22032646  0.87546316  0.34476559  1
  N  N61  1  0.10989128  0.76086165  0.13732408  1
  N  N62  1  0.89135630  0.86819121  0.84230696  1
  N  N63  1  0.77728663  0.75871664  0.59663053  1
  N  N64  1  0.56219103  0.87248572  0.33373682  1
  N  N65  1  0.45327329  0.75964202  0.09446535  1
  N  N66  1  0.22265904  0.87155638  0.88828554  1
  N  N67  1  0.11825203  0.75650751  0.64155742  1
  N  N68  1  0.89353129  0.84757135  0.33254546  1
  N  N69  1  0.75926657  0.79347762  0.07436982  1
  N  N70  1  0.55092621  0.87334663  0.83467279  1
  N  N71  1  0.42491969  0.80207381  0.56991088  1
