# generated using pymatgen
data_Gd5Al31N36
_symmetry_space_group_name_H-M   'P 1'
_cell_length_a   9.74150180
_cell_length_b   9.74354152
_cell_length_c   10.33928577
_cell_angle_alpha   90.41756493
_cell_angle_beta   90.49184251
_cell_angle_gamma   60.01458173
_symmetry_Int_Tables_number   1
_chemical_formula_structural   Gd5Al31N36
_chemical_formula_sum   'Gd5 Al31 N36'
_cell_volume   849.98080327
_cell_formula_units_Z   1
loop_
 _symmetry_equiv_pos_site_id
 _symmetry_equiv_pos_as_xyz
  1  'x, y, z'
loop_
 _atom_site_type_symbol
 _atom_site_label
 _atom_site_symmetry_multiplicity
 _atom_site_fract_x
 _atom_site_fract_y
 _atom_site_fract_z
 _atom_site_occupancy
  Al  Al0  1  0.10498694  0.09786720  0.38769391  1
  Al  Al1  1  0.23205739  0.19667017  0.15954435  1
  Al  Al2  1  0.78801202  0.08156959  0.90137912  1
  Al  Al3  1  0.89108890  0.19839049  0.65850612  1
  Al  Al4  1  0.45531605  0.08696826  0.39475011  1
  Al  Al5  1  0.55427859  0.19897306  0.14242310  1
  Al  Al6  1  0.10964927  0.10340542  0.90754283  1
  Al  Al7  1  0.88746808  0.20732157  0.14044535  1
  Al  Al8  1  0.44415046  0.08574877  0.90595190  1
  Al  Al9  1  0.56412379  0.18598121  0.66498141  1
  Al  Al10  1  0.11916407  0.42763246  0.35065999  1
  Al  Al11  1  0.21141542  0.54642926  0.08829506  1
  Al  Al12  1  0.77536033  0.42989537  0.89233053  1
  Al  Al13  1  0.88226905  0.54367073  0.64663705  1
  Al  Al14  1  0.43174399  0.43414811  0.32295579  1
  Al  Al15  1  0.55643271  0.54353299  0.14839845  1
  Al  Al16  1  0.10476767  0.43686006  0.83696022  1
  Al  Al17  1  0.21907589  0.53961287  0.58444362  1
  Al  Al18  1  0.79360837  0.42497845  0.40060416  1
  Al  Al19  1  0.11769719  0.75283229  0.32449625  1
  Al  Al20  1  0.22137667  0.87024268  0.08548302  1
  Al  Al21  1  0.77157474  0.77199983  0.89233658  1
  Al  Al22  1  0.88670905  0.87088300  0.65737616  1
  Al  Al23  1  0.44406231  0.77295671  0.38706955  1
  Al  Al24  1  0.55548743  0.87775948  0.14685902  1
  Al  Al25  1  0.11561526  0.76242237  0.83446480  1
  Al  Al26  1  0.20848710  0.87018512  0.56658474  1
  Al  Al27  1  0.78085396  0.75653947  0.40550076  1
  Al  Al28  1  0.88292849  0.87660224  0.14522696  1
  Al  Al29  1  0.45156906  0.76468986  0.89861887  1
  Al  Al30  1  0.55988373  0.87336707  0.64622610  1
  Gd  Gd31  1  0.23039940  0.19157837  0.62837367  1
  Gd  Gd32  1  0.77998409  0.09773998  0.40092617  1
  Gd  Gd33  1  0.88422191  0.54268492  0.13603431  1
  Gd  Gd34  1  0.44814796  0.42296769  0.88180021  1
  Gd  Gd35  1  0.54504324  0.54178199  0.61768724  1
  N  N36  1  0.23108963  0.19335679  0.35700500  1
  N  N37  1  0.11079356  0.10139928  0.09551347  1
  N  N38  1  0.89192396  0.20443354  0.84530588  1
  N  N39  1  0.77913341  0.09224012  0.61840860  1
  N  N40  1  0.53176381  0.21380902  0.32439671  1
  N  N41  1  0.44116642  0.09215879  0.09170323  1
  N  N42  1  0.22166256  0.20882263  0.85519910  1
  N  N43  1  0.08028176  0.08581171  0.57129167  1
  N  N44  1  0.90001952  0.22565840  0.32050246  1
  N  N45  1  0.78002464  0.09373586  0.09379349  1
  N  N46  1  0.57600010  0.16234752  0.85107643  1
  N  N47  1  0.48809463  0.07311902  0.57455956  1
  N  N48  1  0.22658376  0.54279271  0.39554813  1
  N  N49  1  0.14382401  0.41610114  0.16001476  1
  N  N50  1  0.88013546  0.54452238  0.84616799  1
  N  N51  1  0.80732639  0.40699817  0.58590109  1
  N  N52  1  0.55991226  0.54080476  0.34536452  1
  N  N53  1  0.43711717  0.43717887  0.12715175  1
  N  N54  1  0.18473052  0.55905686  0.90681067  1
  N  N55  1  0.09690031  0.45330550  0.63216978  1
  N  N56  1  0.89120508  0.54101044  0.35922426  1
  N  N57  1  0.75718336  0.41427830  0.07462614  1
  N  N58  1  0.56690269  0.55970097  0.83437488  1
  N  N59  1  0.42323488  0.40430660  0.65100514  1
  N  N60  1  0.21669936  0.86906769  0.37238208  1
  N  N61  1  0.11402063  0.76202774  0.13922450  1
  N  N62  1  0.89128146  0.86930899  0.84194797  1
  N  N63  1  0.77782519  0.76042180  0.59398626  1
  N  N64  1  0.56366376  0.86920806  0.33221797  1
  N  N65  1  0.45316464  0.76012390  0.09269852  1
  N  N66  1  0.22103583  0.87220418  0.89475138  1
  N  N67  1  0.12123233  0.75590110  0.64338521  1
  N  N68  1  0.89428985  0.84678581  0.33211510  1
  N  N69  1  0.75984479  0.79557303  0.07461486  1
  N  N70  1  0.54989299  0.87606551  0.83435993  1
  N  N71  1  0.42740902  0.80262032  0.57301733  1
