# generated using pymatgen
data_Gd5Al31N36
_symmetry_space_group_name_H-M   'P 1'
_cell_length_a   9.72190363
_cell_length_b   9.76311997
_cell_length_c   10.21667675
_cell_angle_alpha   90.54815927
_cell_angle_beta   90.70976126
_cell_angle_gamma   60.00557795
_symmetry_Int_Tables_number   1
_chemical_formula_structural   Gd5Al31N36
_chemical_formula_sum   'Gd5 Al31 N36'
_cell_volume   839.78480039
_cell_formula_units_Z   1
loop_
 _symmetry_equiv_pos_site_id
 _symmetry_equiv_pos_as_xyz
  1  'x, y, z'
loop_
 _atom_site_type_symbol
 _atom_site_label
 _atom_site_symmetry_multiplicity
 _atom_site_fract_x
 _atom_site_fract_y
 _atom_site_fract_z
 _atom_site_occupancy
  Al  Al0  1  0.11064116  0.09318871  0.39038101  1
  Al  Al1  1  0.22712876  0.20079381  0.15256297  1
  Al  Al2  1  0.78651665  0.08270242  0.89944966  1
  Al  Al3  1  0.89386056  0.19695915  0.65687738  1
  Al  Al4  1  0.45083680  0.09096081  0.39166682  1
  Al  Al5  1  0.55555180  0.19710221  0.14053576  1
  Al  Al6  1  0.11354216  0.09328565  0.90318813  1
  Al  Al7  1  0.88855761  0.20692667  0.13818817  1
  Al  Al8  1  0.44626847  0.08259792  0.90546417  1
  Al  Al9  1  0.56582175  0.18405908  0.66269570  1
  Al  Al10  1  0.10983160  0.43605701  0.39908145  1
  Al  Al11  1  0.21430248  0.54769144  0.12354712  1
  Al  Al12  1  0.77701206  0.42949807  0.89053906  1
  Al  Al13  1  0.89092129  0.54018920  0.65049322  1
  Al  Al14  1  0.43367091  0.43283064  0.32283939  1
  Al  Al15  1  0.55507411  0.54584931  0.14716573  1
  Al  Al16  1  0.11052390  0.42299268  0.90209236  1
  Al  Al17  1  0.21249421  0.54343709  0.64202865  1
  Al  Al18  1  0.79563374  0.42379368  0.39970435  1
  Al  Al19  1  0.11457849  0.75616328  0.39458622  1
  Al  Al20  1  0.22050753  0.87485648  0.14537212  1
  Al  Al21  1  0.77312103  0.76972503  0.89038037  1
  Al  Al22  1  0.89276516  0.86851092  0.65437350  1
  Al  Al23  1  0.43704805  0.77789285  0.39020305  1
  Al  Al24  1  0.55362318  0.87774829  0.14521667  1
  Al  Al25  1  0.10497017  0.76943622  0.89917021  1
  Al  Al26  1  0.21417331  0.87599396  0.64441187  1
  Al  Al27  1  0.77958086  0.75831505  0.40520013  1
  Al  Al28  1  0.88734998  0.87484553  0.14515908  1
  Al  Al29  1  0.44609852  0.76648324  0.89390760  1
  Al  Al30  1  0.55954905  0.87278260  0.64525598  1
  Gd  Gd31  1  0.22933726  0.19895212  0.63385914  1
  Gd  Gd32  1  0.78030304  0.09850303  0.39709797  1
  Gd  Gd33  1  0.88211072  0.54480407  0.13996198  1
  Gd  Gd34  1  0.45071486  0.42353867  0.88474569  1
  Gd  Gd35  1  0.54868487  0.53870713  0.61254725  1
  N  N36  1  0.22455593  0.20415835  0.34961589  1
  N  N37  1  0.11295575  0.09387552  0.09088196  1
  N  N38  1  0.89188589  0.20348975  0.84554348  1
  N  N39  1  0.78097707  0.09124708  0.61663795  1
  N  N40  1  0.53198831  0.21407719  0.32391370  1
  N  N41  1  0.44120532  0.09154235  0.09252657  1
  N  N42  1  0.22403767  0.20200762  0.85545898  1
  N  N43  1  0.08993512  0.07855794  0.57494816  1
  N  N44  1  0.90379679  0.22419508  0.32088245  1
  N  N45  1  0.77977980  0.09368915  0.09449232  1
  N  N46  1  0.57458291  0.16239891  0.84982252  1
  N  N47  1  0.48512483  0.07314890  0.57374369  1
  N  N48  1  0.21641932  0.54352046  0.34043199  1
  N  N49  1  0.13644775  0.41011235  0.08907790  1
  N  N50  1  0.88983687  0.53833834  0.84665262  1
  N  N51  1  0.81320472  0.40465205  0.58690177  1
  N  N52  1  0.55851438  0.54251579  0.34681614  1
  N  N53  1  0.44115364  0.43444333  0.12349528  1
  N  N54  1  0.19089465  0.55590317  0.86231694  1
  N  N55  1  0.09573923  0.45448412  0.58469469  1
  N  N56  1  0.88797178  0.54353238  0.35736787  1
  N  N57  1  0.75688060  0.41591905  0.07495159  1
  N  N58  1  0.56857447  0.56030110  0.83209652  1
  N  N59  1  0.42758192  0.40154807  0.64384237  1
  N  N60  1  0.21894273  0.87301742  0.33219469  1
  N  N61  1  0.10627932  0.77073860  0.08811817  1
  N  N62  1  0.89313248  0.86930124  0.84014371  1
  N  N63  1  0.77905011  0.75896210  0.59620335  1
  N  N64  1  0.56097215  0.87019089  0.33304285  1
  N  N65  1  0.44395553  0.76382491  0.08854048  1
  N  N66  1  0.22113286  0.87409591  0.83813977  1
  N  N67  1  0.11308601  0.75944082  0.58801534  1
  N  N68  1  0.90030512  0.84505544  0.33199031  1
  N  N69  1  0.75957274  0.79580051  0.07475146  1
  N  N70  1  0.55139246  0.87388533  0.83443422  1
  N  N71  1  0.42182331  0.80298468  0.57593344  1
