# generated using pymatgen
data_Gd5Al31N36
_symmetry_space_group_name_H-M   'P 1'
_cell_length_a   9.75965745
_cell_length_b   9.75630395
_cell_length_c   10.36020275
_cell_angle_alpha   90.39037675
_cell_angle_beta   90.72585791
_cell_angle_gamma   59.99146701
_symmetry_Int_Tables_number   1
_chemical_formula_structural   Gd5Al31N36
_chemical_formula_sum   'Gd5 Al31 N36'
_cell_volume   854.17433196
_cell_formula_units_Z   1
loop_
 _symmetry_equiv_pos_site_id
 _symmetry_equiv_pos_as_xyz
  1  'x, y, z'
loop_
 _atom_site_type_symbol
 _atom_site_label
 _atom_site_symmetry_multiplicity
 _atom_site_fract_x
 _atom_site_fract_y
 _atom_site_fract_z
 _atom_site_occupancy
  Al  Al0  1  0.12555258  0.09168731  0.31609660  1
  Al  Al1  1  0.22384464  0.20365776  0.07694501  1
  Al  Al2  1  0.78205742  0.08754364  0.89889011  1
  Al  Al3  1  0.88303130  0.20281950  0.66538818  1
  Al  Al4  1  0.45280428  0.08700889  0.39555653  1
  Al  Al5  1  0.54992898  0.19985518  0.14120665  1
  Al  Al6  1  0.11026343  0.08637633  0.84269303  1
  Al  Al7  1  0.88562932  0.20735136  0.13630889  1
  Al  Al8  1  0.45298974  0.08150519  0.90005340  1
  Al  Al9  1  0.56202310  0.18960611  0.66042996  1
  Al  Al10  1  0.12857785  0.41624691  0.33200391  1
  Al  Al11  1  0.21314395  0.54723627  0.08844555  1
  Al  Al12  1  0.76890387  0.43345150  0.89489609  1
  Al  Al13  1  0.88059376  0.54492578  0.65845639  1
  Al  Al14  1  0.43108209  0.42982665  0.32526986  1
  Al  Al15  1  0.55727468  0.53710942  0.15197433  1
  Al  Al16  1  0.10356437  0.43983156  0.83996088  1
  Al  Al17  1  0.21485952  0.54109688  0.58484530  1
  Al  Al18  1  0.80955451  0.41734204  0.39963447  1
  Al  Al19  1  0.11590072  0.75576699  0.33259222  1
  Al  Al20  1  0.22856715  0.86654510  0.07921506  1
  Al  Al21  1  0.76935122  0.77333152  0.89334040  1
  Al  Al22  1  0.88771808  0.87056765  0.64948532  1
  Al  Al23  1  0.43958218  0.76820860  0.33419554  1
  Al  Al24  1  0.55527649  0.88108187  0.15037370  1
  Al  Al25  1  0.11194635  0.76132027  0.83219940  1
  Al  Al26  1  0.20833802  0.87877586  0.57856801  1
  Al  Al27  1  0.78602662  0.75131727  0.40798910  1
  Al  Al28  1  0.88767108  0.87768256  0.12967801  1
  Al  Al29  1  0.43608718  0.77433928  0.81831360  1
  Al  Al30  1  0.56080861  0.87886142  0.64578439  1
  Gd  Gd31  1  0.21689460  0.20610777  0.60423907  1
  Gd  Gd32  1  0.77781106  0.10128171  0.39592686  1
  Gd  Gd33  1  0.88398896  0.54342495  0.12907546  1
  Gd  Gd34  1  0.44587936  0.42992559  0.87441621  1
  Gd  Gd35  1  0.54857023  0.53934893  0.59840269  1
  N  N36  1  0.22646289  0.19872600  0.38086714  1
  N  N37  1  0.12036124  0.08839017  0.12568023  1
  N  N38  1  0.87861211  0.21157630  0.85229294  1
  N  N39  1  0.77855926  0.09459649  0.61370751  1
  N  N40  1  0.52816158  0.21126409  0.32189601  1
  N  N41  1  0.44679226  0.08839289  0.08400162  1
  N  N42  1  0.21596744  0.21011249  0.88271469  1
  N  N43  1  0.09794580  0.07268234  0.65934760  1
  N  N44  1  0.90452963  0.22158303  0.31904188  1
  N  N45  1  0.77643828  0.09640272  0.09195799  1
  N  N46  1  0.57229036  0.16899280  0.84525740  1
  N  N47  1  0.48341153  0.07653813  0.57655402  1
  N  N48  1  0.22468689  0.53880057  0.39333854  1
  N  N49  1  0.14746906  0.40735420  0.14710756  1
  N  N50  1  0.87752178  0.54553746  0.85632807  1
  N  N51  1  0.81994309  0.40178300  0.58447723  1
  N  N52  1  0.56394287  0.53126261  0.35076189  1
  N  N53  1  0.43657243  0.43593359  0.12742191  1
  N  N54  1  0.18400202  0.56204055  0.90916380  1
  N  N55  1  0.09617345  0.46123850  0.65752504  1
  N  N56  1  0.89877683  0.53807515  0.35152564  1
  N  N57  1  0.75418440  0.41662515  0.07679200  1
  N  N58  1  0.56913176  0.55777534  0.82481076  1
  N  N59  1  0.42395930  0.40812912  0.64332139  1
  N  N60  1  0.21817869  0.87580281  0.38786953  1
  N  N61  1  0.11424474  0.76358220  0.14393554  1
  N  N62  1  0.88907425  0.87277191  0.84406021  1
  N  N63  1  0.77689313  0.75639695  0.59619984  1
  N  N64  1  0.56619000  0.86924883  0.33885867  1
  N  N65  1  0.44254591  0.76257605  0.14418017  1
  N  N66  1  0.22656132  0.86534241  0.89468965  1
  N  N67  1  0.11876495  0.75626076  0.64152735  1
  N  N68  1  0.89983521  0.84759028  0.35379453  1
  N  N69  1  0.75855789  0.79750179  0.07655337  1
  N  N70  1  0.55532191  0.87730655  0.83328975  1
  N  N71  1  0.41801586  0.80283075  0.63004786  1
