# generated using pymatgen
data_Gd5Al31N36
_symmetry_space_group_name_H-M   'P 1'
_cell_length_a   9.74168252
_cell_length_b   9.76167206
_cell_length_c   10.24357766
_cell_angle_alpha   89.64868865
_cell_angle_beta   89.83038330
_cell_angle_gamma   60.09019452
_symmetry_Int_Tables_number   1
_chemical_formula_structural   Gd5Al31N36
_chemical_formula_sum   'Gd5 Al31 N36'
_cell_volume   844.35739387
_cell_formula_units_Z   1
loop_
 _symmetry_equiv_pos_site_id
 _symmetry_equiv_pos_as_xyz
  1  'x, y, z'
loop_
 _atom_site_type_symbol
 _atom_site_label
 _atom_site_symmetry_multiplicity
 _atom_site_fract_x
 _atom_site_fract_y
 _atom_site_fract_z
 _atom_site_occupancy
  Al  Al0  1  0.11533441  0.09628774  0.30604546  1
  Al  Al1  1  0.21902319  0.20780090  0.05902701  1
  Al  Al2  1  0.79348132  0.08221429  0.80660057  1
  Al  Al3  1  0.90006593  0.20001211  0.56442773  1
  Al  Al4  1  0.44447074  0.09347856  0.36557088  1
  Al  Al5  1  0.54694261  0.20455387  0.11532820  1
  Al  Al6  1  0.10728026  0.08730450  0.81597540  1
  Al  Al7  1  0.88288294  0.20339851  0.05539485  1
  Al  Al8  1  0.45044508  0.08659961  0.87358036  1
  Al  Al9  1  0.56382196  0.18938599  0.62757671  1
  Al  Al10  1  0.12246442  0.41958209  0.31127989  1
  Al  Al11  1  0.21065119  0.55058189  0.06434663  1
  Al  Al12  1  0.78861744  0.42675134  0.80692825  1
  Al  Al13  1  0.89086266  0.54340453  0.55585282  1
  Al  Al14  1  0.43116306  0.43948945  0.29287563  1
  Al  Al15  1  0.55690695  0.54567661  0.06152266  1
  Al  Al16  1  0.09683508  0.44602572  0.80396612  1
  Al  Al17  1  0.22043984  0.54220990  0.55503039  1
  Al  Al18  1  0.78093442  0.42460474  0.30728391  1
  Al  Al19  1  0.11238040  0.75729959  0.31183928  1
  Al  Al20  1  0.21942414  0.87368333  0.06148867  1
  Al  Al21  1  0.77432198  0.76343006  0.80331174  1
  Al  Al22  1  0.89931541  0.85745750  0.56537164  1
  Al  Al23  1  0.44169512  0.76310823  0.30242062  1
  Al  Al24  1  0.55449100  0.87471477  0.06198109  1
  Al  Al25  1  0.10741116  0.76407936  0.81063489  1
  Al  Al26  1  0.21768822  0.87275289  0.56175791  1
  Al  Al27  1  0.77788263  0.75996934  0.31338150  1
  Al  Al28  1  0.88285561  0.88297353  0.05512087  1
  Al  Al29  1  0.44441087  0.77205144  0.81309887  1
  Al  Al30  1  0.56382258  0.86583203  0.55430126  1
  Gd  Gd31  1  0.22349112  0.20398081  0.58558520  1
  Gd  Gd32  1  0.77736712  0.09262851  0.33206725  1
  Gd  Gd33  1  0.88841288  0.54496364  0.06735269  1
  Gd  Gd34  1  0.44052814  0.42500105  0.84233408  1
  Gd  Gd35  1  0.55496761  0.53823191  0.56233693  1
  N  N36  1  0.22266163  0.20104759  0.35749136  1
  N  N37  1  0.10759386  0.09667148  0.11355779  1
  N  N38  1  0.88700198  0.20631162  0.86760163  1
  N  N39  1  0.79002970  0.08728121  0.60631059  1
  N  N40  1  0.51823315  0.22151335  0.29867565  1
  N  N41  1  0.44043178  0.09805085  0.06156251  1
  N  N42  1  0.21496509  0.21195516  0.85339833  1
  N  N43  1  0.09859536  0.07159370  0.63375074  1
  N  N44  1  0.90814918  0.21915134  0.37842970  1
  N  N45  1  0.77482352  0.09690736  0.10192136  1
  N  N46  1  0.57533983  0.16556344  0.81426132  1
  N  N47  1  0.48166252  0.07968603  0.55271954  1
  N  N48  1  0.22372531  0.54045331  0.36467131  1
  N  N49  1  0.14143048  0.41272914  0.12716293  1
  N  N50  1  0.88500045  0.54430917  0.85099211  1
  N  N51  1  0.81107694  0.41124855  0.62163303  1
  N  N52  1  0.55214978  0.53773899  0.34191500  1
  N  N53  1  0.43645906  0.44086813  0.09410052  1
  N  N54  1  0.18112087  0.56082170  0.88207179  1
  N  N55  1  0.09509926  0.46380369  0.61856904  1
  N  N56  1  0.88987880  0.53720376  0.35819378  1
  N  N57  1  0.76671050  0.41098403  0.12297312  1
  N  N58  1  0.57427917  0.55497957  0.86778670  1
  N  N59  1  0.42934876  0.41038088  0.61547090  1
  N  N60  1  0.22090037  0.87242760  0.36740671  1
  N  N61  1  0.10383473  0.76867201  0.12237297  1
  N  N62  1  0.89045470  0.86981893  0.86389501  1
  N  N63  1  0.77566547  0.75960402  0.61608081  1
  N  N64  1  0.55820693  0.86011818  0.36329955  1
  N  N65  1  0.44163873  0.76698786  0.11542826  1
  N  N66  1  0.22324643  0.86832303  0.87451610  1
  N  N67  1  0.12007372  0.75510543  0.62123837  1
  N  N68  1  0.90720864  0.83614824  0.38213326  1
  N  N69  1  0.76058219  0.79841468  0.12917315  1
  N  N70  1  0.56243609  0.86463409  0.87116375  1
  N  N71  1  0.42913218  0.79468759  0.62603488  1
