# generated using pymatgen
data_Gd5Al31N36
_symmetry_space_group_name_H-M   'P 1'
_cell_length_a   9.72017657
_cell_length_b   9.77312079
_cell_length_c   10.24707002
_cell_angle_alpha   90.57991628
_cell_angle_beta   90.75406956
_cell_angle_gamma   59.97335677
_symmetry_Int_Tables_number   1
_chemical_formula_structural   Gd5Al31N36
_chemical_formula_sum   'Gd5 Al31 N36'
_cell_volume   842.71332449
_cell_formula_units_Z   1
loop_
 _symmetry_equiv_pos_site_id
 _symmetry_equiv_pos_as_xyz
  1  'x, y, z'
loop_
 _atom_site_type_symbol
 _atom_site_label
 _atom_site_symmetry_multiplicity
 _atom_site_fract_x
 _atom_site_fract_y
 _atom_site_fract_z
 _atom_site_occupancy
  Al  Al0  1  0.11049394  0.09324896  0.39108411  1
  Al  Al1  1  0.22704559  0.20003919  0.15339058  1
  Al  Al2  1  0.78661720  0.08237426  0.89974964  1
  Al  Al3  1  0.89372330  0.19701336  0.65672896  1
  Al  Al4  1  0.45084196  0.09100203  0.39182227  1
  Al  Al5  1  0.55443001  0.19802988  0.14083551  1
  Al  Al6  1  0.11338343  0.09323928  0.90386883  1
  Al  Al7  1  0.88822557  0.20697757  0.13845129  1
  Al  Al8  1  0.44667488  0.08229052  0.90603923  1
  Al  Al9  1  0.56610691  0.18362695  0.66245172  1
  Al  Al10  1  0.10745727  0.43159110  0.39891524  1
  Al  Al11  1  0.21410374  0.54806757  0.08785817  1
  Al  Al12  1  0.77708785  0.42942136  0.89085450  1
  Al  Al13  1  0.89137236  0.53995064  0.65131468  1
  Al  Al14  1  0.43073379  0.43435259  0.32102545  1
  Al  Al15  1  0.55395474  0.54613146  0.14726541  1
  Al  Al16  1  0.10957144  0.42117515  0.90368219  1
  Al  Al17  1  0.22246450  0.53805540  0.58932999  1
  Al  Al18  1  0.79461712  0.42407940  0.39957196  1
  Al  Al19  1  0.11300477  0.76093560  0.39478111  1
  Al  Al20  1  0.22032395  0.87542820  0.14606910  1
  Al  Al21  1  0.77336306  0.76977547  0.89077511  1
  Al  Al22  1  0.89370777  0.86782157  0.65453371  1
  Al  Al23  1  0.43756595  0.77769332  0.39033907  1
  Al  Al24  1  0.55377614  0.87788913  0.14530675  1
  Al  Al25  1  0.10440601  0.77203342  0.89944182  1
  Al  Al26  1  0.21391124  0.87630750  0.64471630  1
  Al  Al27  1  0.77981634  0.75818853  0.40547352  1
  Al  Al28  1  0.88730298  0.87534593  0.14549058  1
  Al  Al29  1  0.44633107  0.76656581  0.89415648  1
  Al  Al30  1  0.55979992  0.87287293  0.64527465  1
  Gd  Gd31  1  0.22974107  0.19840456  0.63575553  1
  Gd  Gd32  1  0.77948977  0.09885668  0.39719420  1
  Gd  Gd33  1  0.88070857  0.54542188  0.14031978  1
  Gd  Gd34  1  0.45157118  0.42282224  0.87911012  1
  Gd  Gd35  1  0.54943017  0.53942766  0.61276288  1
  N  N36  1  0.22479323  0.20284604  0.34963411  1
  N  N37  1  0.11272284  0.09392373  0.09099157  1
  N  N38  1  0.89176026  0.20348574  0.84530032  1
  N  N39  1  0.78101892  0.09114905  0.61641544  1
  N  N40  1  0.53127079  0.21463872  0.32369476  1
  N  N41  1  0.44117589  0.09149127  0.09256146  1
  N  N42  1  0.22398447  0.20193997  0.85672036  1
  N  N43  1  0.09003077  0.07898233  0.57513345  1
  N  N44  1  0.90348818  0.22417953  0.32106921  1
  N  N45  1  0.77885426  0.09435024  0.09442126  1
  N  N46  1  0.57499620  0.16143502  0.84941924  1
  N  N47  1  0.48524012  0.07325094  0.57346661  1
  N  N48  1  0.22507353  0.53916376  0.37999835  1
  N  N49  1  0.13467715  0.40870274  0.09444899  1
  N  N50  1  0.89030961  0.53827142  0.84684383  1
  N  N51  1  0.81291976  0.40481210  0.58669529  1
  N  N52  1  0.55845135  0.54274408  0.34640044  1
  N  N53  1  0.43703431  0.43692243  0.12593361  1
  N  N54  1  0.19314239  0.55501164  0.89451047  1
  N  N55  1  0.09454469  0.45130265  0.58578496  1
  N  N56  1  0.88736467  0.54363121  0.35702543  1
  N  N57  1  0.75587890  0.41573679  0.07464828  1
  N  N58  1  0.56912225  0.56093612  0.83161543  1
  N  N59  1  0.42698436  0.40246117  0.64656907  1
  N  N60  1  0.21935532  0.87344800  0.33240680  1
  N  N61  1  0.10462883  0.77493578  0.09080296  1
  N  N62  1  0.89369357  0.86862581  0.83977576  1
  N  N63  1  0.77942343  0.75858207  0.59615137  1
  N  N64  1  0.56120062  0.87026577  0.33297657  1
  N  N65  1  0.44398513  0.76405625  0.08846337  1
  N  N66  1  0.22129221  0.87435609  0.83806678  1
  N  N67  1  0.11097417  0.76314567  0.58851746  1
  N  N68  1  0.90075320  0.84456952  0.33177742  1
  N  N69  1  0.75975785  0.79620099  0.07456017  1
  N  N70  1  0.55142596  0.87398751  0.83428883  1
  N  N71  1  0.42191099  0.80313048  0.57584179  1
