# generated using pymatgen
data_Gd5Al31N36
_symmetry_space_group_name_H-M   'P 1'
_cell_length_a   9.75836420
_cell_length_b   9.72135205
_cell_length_c   10.35979684
_cell_angle_alpha   89.90447788
_cell_angle_beta   89.96915872
_cell_angle_gamma   60.12555368
_symmetry_Int_Tables_number   1
_chemical_formula_structural   Gd5Al31N36
_chemical_formula_sum   'Gd5 Al31 N36'
_cell_volume   852.18326234
_cell_formula_units_Z   1
loop_
 _symmetry_equiv_pos_site_id
 _symmetry_equiv_pos_as_xyz
  1  'x, y, z'
loop_
 _atom_site_type_symbol
 _atom_site_label
 _atom_site_symmetry_multiplicity
 _atom_site_fract_x
 _atom_site_fract_y
 _atom_site_fract_z
 _atom_site_occupancy
  Al  Al0  1  0.11725057  0.09714111  0.30398634  1
  Al  Al1  1  0.22275094  0.20654035  0.05436515  1
  Al  Al2  1  0.77861180  0.09196120  0.87634234  1
  Al  Al3  1  0.89705476  0.19773618  0.57380638  1
  Al  Al4  1  0.44748080  0.09082647  0.37078435  1
  Al  Al5  1  0.54510092  0.20614379  0.11357591  1
  Al  Al6  1  0.10553236  0.08853945  0.81761933  1
  Al  Al7  1  0.88831827  0.20982337  0.06151632  1
  Al  Al8  1  0.45587246  0.07872262  0.87433461  1
  Al  Al9  1  0.57276863  0.18245830  0.62937960  1
  Al  Al10  1  0.12350626  0.41752089  0.31150851  1
  Al  Al11  1  0.21299282  0.54839467  0.06274390  1
  Al  Al12  1  0.78551415  0.42970563  0.80794441  1
  Al  Al13  1  0.89190976  0.54090880  0.55533893  1
  Al  Al14  1  0.43007822  0.43885915  0.28956582  1
  Al  Al15  1  0.55467506  0.54909892  0.05714244  1
  Al  Al16  1  0.09679948  0.44408564  0.80274410  1
  Al  Al17  1  0.22020228  0.53984452  0.55446059  1
  Al  Al18  1  0.77960718  0.42800497  0.30164666  1
  Al  Al19  1  0.11332640  0.75641346  0.31104372  1
  Al  Al20  1  0.22136072  0.87284755  0.05917610  1
  Al  Al21  1  0.78367863  0.76185818  0.80165795  1
  Al  Al22  1  0.89843020  0.85890376  0.56087635  1
  Al  Al23  1  0.43530368  0.76213683  0.30252505  1
  Al  Al24  1  0.54796736  0.88661916  0.13071735  1
  Al  Al25  1  0.10334419  0.76674258  0.80926958  1
  Al  Al26  1  0.21439718  0.87166611  0.55992019  1
  Al  Al27  1  0.78139530  0.75870197  0.31512934  1
  Al  Al28  1  0.89118002  0.87429517  0.06025693  1
  Al  Al29  1  0.43881845  0.76993161  0.80940853  1
  Al  Al30  1  0.56039651  0.87408629  0.62213752  1
  Gd  Gd31  1  0.22643667  0.19971229  0.58570914  1
  Gd  Gd32  1  0.77336179  0.09635669  0.34531662  1
  Gd  Gd33  1  0.89241547  0.54630394  0.06347415  1
  Gd  Gd34  1  0.43552448  0.42868188  0.83590083  1
  Gd  Gd35  1  0.55655810  0.53292382  0.55671463  1
  N  N36  1  0.22432168  0.20079421  0.36240769  1
  N  N37  1  0.11252265  0.09611530  0.11231215  1
  N  N38  1  0.88830546  0.21132646  0.87303191  1
  N  N39  1  0.78398492  0.08990208  0.57691069  1
  N  N40  1  0.51770692  0.21962426  0.29320578  1
  N  N41  1  0.44658407  0.09009865  0.05676622  1
  N  N42  1  0.21671493  0.21137134  0.85524123  1
  N  N43  1  0.09788336  0.07063388  0.63668217  1
  N  N44  1  0.90823664  0.22045381  0.36350689  1
  N  N45  1  0.77115060  0.10072461  0.07542579  1
  N  N46  1  0.57630434  0.16650893  0.81534672  1
  N  N47  1  0.48798875  0.07122174  0.55149620  1
  N  N48  1  0.22487480  0.53915866  0.36518919  1
  N  N49  1  0.14510708  0.40974792  0.12842043  1
  N  N50  1  0.88468002  0.54535043  0.85004126  1
  N  N51  1  0.80973977  0.41106734  0.62418019  1
  N  N52  1  0.55149075  0.53731724  0.33911270  1
  N  N53  1  0.43712436  0.44046706  0.09165375  1
  N  N54  1  0.17818967  0.56170177  0.88242489  1
  N  N55  1  0.09641853  0.45957124  0.61904029  1
  N  N56  1  0.88864113  0.53765525  0.36027037  1
  N  N57  1  0.76432351  0.41968572  0.11936049  1
  N  N58  1  0.57128652  0.55709934  0.86790025  1
  N  N59  1  0.42954431  0.40626976  0.61451318  1
  N  N60  1  0.21858009  0.87332318  0.36755737  1
  N  N61  1  0.10753089  0.76712196  0.12338192  1
  N  N62  1  0.89144206  0.86857981  0.87073542  1
  N  N63  1  0.78399295  0.75567437  0.61440826  1
  N  N64  1  0.54990370  0.87410103  0.31891533  1
  N  N65  1  0.43823896  0.76663943  0.11407551  1
  N  N66  1  0.22163989  0.86824597  0.87414294  1
  N  N67  1  0.11695130  0.75474590  0.62120098  1
  N  N68  1  0.91009148  0.83512214  0.37859115  1
  N  N69  1  0.76913661  0.79513472  0.13048837  1
  N  N70  1  0.55765545  0.87370468  0.81382435  1
  N  N71  1  0.42407018  0.78691343  0.62094768  1
