# generated using pymatgen
data_Gd5Al31N36
_symmetry_space_group_name_H-M   'P 1'
_cell_length_a   9.75767007
_cell_length_b   9.75949410
_cell_length_c   10.38834084
_cell_angle_alpha   90.46024401
_cell_angle_beta   90.71927719
_cell_angle_gamma   59.99390396
_symmetry_Int_Tables_number   1
_chemical_formula_structural   Gd5Al31N36
_chemical_formula_sum   'Gd5 Al31 N36'
_cell_volume   856.62049744
_cell_formula_units_Z   1
loop_
 _symmetry_equiv_pos_site_id
 _symmetry_equiv_pos_as_xyz
  1  'x, y, z'
loop_
 _atom_site_type_symbol
 _atom_site_label
 _atom_site_symmetry_multiplicity
 _atom_site_fract_x
 _atom_site_fract_y
 _atom_site_fract_z
 _atom_site_occupancy
  Al  Al0  1  0.12576911  0.09174898  0.31628706  1
  Al  Al1  1  0.22382153  0.20360650  0.07662077  1
  Al  Al2  1  0.77905828  0.09506932  0.89905524  1
  Al  Al3  1  0.88362580  0.20083025  0.66348721  1
  Al  Al4  1  0.45206753  0.08733781  0.39655679  1
  Al  Al5  1  0.54858177  0.20058276  0.14166366  1
  Al  Al6  1  0.11031299  0.08632247  0.84251276  1
  Al  Al7  1  0.88490108  0.20848382  0.13682825  1
  Al  Al8  1  0.45314158  0.08206633  0.90001364  1
  Al  Al9  1  0.56503011  0.18741808  0.65896228  1
  Al  Al10  1  0.12947718  0.41576162  0.33166943  1
  Al  Al11  1  0.21248294  0.54779280  0.08899794  1
  Al  Al12  1  0.76849419  0.43429554  0.89462945  1
  Al  Al13  1  0.88082818  0.54420629  0.65979709  1
  Al  Al14  1  0.42999954  0.43094998  0.32501961  1
  Al  Al15  1  0.55693347  0.53748531  0.15194261  1
  Al  Al16  1  0.10404668  0.44014749  0.84024401  1
  Al  Al17  1  0.21664005  0.53949457  0.58550720  1
  Al  Al18  1  0.81015098  0.41780889  0.39991891  1
  Al  Al19  1  0.11193432  0.75715915  0.33495426  1
  Al  Al20  1  0.22723483  0.86685746  0.08002505  1
  Al  Al21  1  0.76727508  0.77263964  0.89500184  1
  Al  Al22  1  0.89853929  0.86152887  0.59264951  1
  Al  Al23  1  0.43853020  0.76827184  0.33427132  1
  Al  Al24  1  0.55445862  0.88130533  0.15104662  1
  Al  Al25  1  0.10676026  0.76480443  0.83148096  1
  Al  Al26  1  0.20938167  0.87867270  0.57949602  1
  Al  Al27  1  0.78251389  0.74812188  0.40912705  1
  Al  Al28  1  0.89427454  0.87583796  0.07804695  1
  Al  Al29  1  0.43547239  0.77475033  0.81866909  1
  Al  Al30  1  0.56111845  0.87886830  0.64704867  1
  Gd  Gd31  1  0.21670020  0.20630978  0.60440988  1
  Gd  Gd32  1  0.77610244  0.10346456  0.38785244  1
  Gd  Gd33  1  0.88472792  0.54250005  0.12858797  1
  Gd  Gd34  1  0.44518903  0.43064211  0.87355002  1
  Gd  Gd35  1  0.54984493  0.53915036  0.59869109  1
  N  N36  1  0.22598807  0.19890105  0.38155513  1
  N  N37  1  0.11984841  0.08868308  0.12603687  1
  N  N38  1  0.87797016  0.21323095  0.85047369  1
  N  N39  1  0.78064105  0.09222917  0.60917833  1
  N  N40  1  0.52503562  0.21256955  0.32186246  1
  N  N41  1  0.44672471  0.08838823  0.08349857  1
  N  N42  1  0.21580788  0.21047748  0.88293944  1
  N  N43  1  0.09887007  0.07224203  0.65996184  1
  N  N44  1  0.90517785  0.22299609  0.31883619  1
  N  N45  1  0.77319839  0.10024349  0.09590353  1
  N  N46  1  0.57279049  0.16890185  0.84343414  1
  N  N47  1  0.48334363  0.07599261  0.57678618  1
  N  N48  1  0.22471136  0.53876221  0.39384384  1
  N  N49  1  0.14861682  0.40664817  0.14746043  1
  N  N50  1  0.87778415  0.54595037  0.85650363  1
  N  N51  1  0.82143895  0.40072748  0.58410675  1
  N  N52  1  0.56429484  0.53122759  0.35080818  1
  N  N53  1  0.43558671  0.43713457  0.12790127  1
  N  N54  1  0.18388743  0.56287446  0.90947070  1
  N  N55  1  0.09664208  0.46125599  0.65815282  1
  N  N56  1  0.89892676  0.53849529  0.34983090  1
  N  N57  1  0.75351130  0.41709670  0.07599074  1
  N  N58  1  0.56899520  0.55825113  0.82465161  1
  N  N59  1  0.42569688  0.40720406  0.64313268  1
  N  N60  1  0.21763036  0.87595300  0.38867676  1
  N  N61  1  0.10731359  0.76568807  0.14789938  1
  N  N62  1  0.89626619  0.87352240  0.88692882  1
  N  N63  1  0.77419582  0.75285876  0.59746738  1
  N  N64  1  0.56569712  0.86978540  0.33896314  1
  N  N65  1  0.44068747  0.76309545  0.14526196  1
  N  N66  1  0.22630883  0.86549417  0.89541384  1
  N  N67  1  0.11817059  0.75612177  0.64432895  1
  N  N68  1  0.90948867  0.84244550  0.40319974  1
  N  N69  1  0.75610391  0.79522789  0.08008006  1
  N  N70  1  0.55522852  0.87787897  0.83358282  1
  N  N71  1  0.41817694  0.80255766  0.63102871  1
