# generated using pymatgen
data_Gd5Al31N36
_symmetry_space_group_name_H-M   'P 1'
_cell_length_a   9.73144032
_cell_length_b   9.74917551
_cell_length_c   10.20010410
_cell_angle_alpha   89.87051654
_cell_angle_beta   89.73943170
_cell_angle_gamma   60.02678158
_symmetry_Int_Tables_number   1
_chemical_formula_structural   Gd5Al31N36
_chemical_formula_sum   'Gd5 Al31 N36'
_cell_volume   838.28731880
_cell_formula_units_Z   1
loop_
 _symmetry_equiv_pos_site_id
 _symmetry_equiv_pos_as_xyz
  1  'x, y, z'
loop_
 _atom_site_type_symbol
 _atom_site_label
 _atom_site_symmetry_multiplicity
 _atom_site_fract_x
 _atom_site_fract_y
 _atom_site_fract_z
 _atom_site_occupancy
  Al  Al0  1  0.11311882  0.09691853  0.30405267  1
  Al  Al1  1  0.22459007  0.20413929  0.05560718  1
  Al  Al2  1  0.78426220  0.08820804  0.81497854  1
  Al  Al3  1  0.89782860  0.20065008  0.56588444  1
  Al  Al4  1  0.43711547  0.09493727  0.29639983  1
  Al  Al5  1  0.55884023  0.19708786  0.06475628  1
  Al  Al6  1  0.10934011  0.08804349  0.81522428  1
  Al  Al7  1  0.88731494  0.20311441  0.05361225  1
  Al  Al8  1  0.45586955  0.08119465  0.81914881  1
  Al  Al9  1  0.56120755  0.19510851  0.58390334  1
  Al  Al10  1  0.12052781  0.42227769  0.30881584  1
  Al  Al11  1  0.21228040  0.54823514  0.06464749  1
  Al  Al12  1  0.78788079  0.42710667  0.80707545  1
  Al  Al13  1  0.89067859  0.54226851  0.55608759  1
  Al  Al14  1  0.43540919  0.43323308  0.29272724  1
  Al  Al15  1  0.55681422  0.54426631  0.06388783  1
  Al  Al16  1  0.09974658  0.44088931  0.80428394  1
  Al  Al17  1  0.21804352  0.54178265  0.55362458  1
  Al  Al18  1  0.78050663  0.42502897  0.30803232  1
  Al  Al19  1  0.11282479  0.75724204  0.31240424  1
  Al  Al20  1  0.22020785  0.87298503  0.06157303  1
  Al  Al21  1  0.77527070  0.76151444  0.80339730  1
  Al  Al22  1  0.89730090  0.85923003  0.56707857  1
  Al  Al23  1  0.44091259  0.76646153  0.30438726  1
  Al  Al24  1  0.55301441  0.87765432  0.05991284  1
  Al  Al25  1  0.10585490  0.76481925  0.81064250  1
  Al  Al26  1  0.21698947  0.87304262  0.56201479  1
  Al  Al27  1  0.77553238  0.76384111  0.31627088  1
  Al  Al28  1  0.88639975  0.87835468  0.05383794  1
  Al  Al29  1  0.44419791  0.77160356  0.81468135  1
  Al  Al30  1  0.55955063  0.87233573  0.55996659  1
  Gd  Gd31  1  0.22746788  0.20032358  0.57049591  1
  Gd  Gd32  1  0.78132786  0.09080828  0.31895089  1
  Gd  Gd33  1  0.88743812  0.54498520  0.06794191  1
  Gd  Gd34  1  0.43696005  0.43056006  0.83584206  1
  Gd  Gd35  1  0.55381750  0.53882990  0.56061093  1
  N  N36  1  0.22352915  0.20127143  0.34992452  1
  N  N37  1  0.10852181  0.09577474  0.11224955  1
  N  N38  1  0.88847405  0.20725131  0.86636304  1
  N  N39  1  0.78314173  0.09083593  0.61406841  1
  N  N40  1  0.52403813  0.22081459  0.34147785  1
  N  N41  1  0.43988531  0.09243170  0.10795551  1
  N  N42  1  0.22137326  0.20771620  0.85838807  1
  N  N43  1  0.09915846  0.07459009  0.63223381  1
  N  N44  1  0.90734926  0.21963009  0.37996811  1
  N  N45  1  0.78186494  0.09341831  0.09797487  1
  N  N46  1  0.57307481  0.17468293  0.87551628  1
  N  N47  1  0.47954853  0.07105772  0.63418186  1
  N  N48  1  0.22389039  0.54048780  0.36340740  1
  N  N49  1  0.14076675  0.41233898  0.12475707  1
  N  N50  1  0.88627928  0.54292144  0.85047593  1
  N  N51  1  0.80784457  0.41302872  0.62129157  1
  N  N52  1  0.55141016  0.54092903  0.34096155  1
  N  N53  1  0.43912389  0.43474803  0.09669698  1
  N  N54  1  0.17956664  0.56145291  0.88208991  1
  N  N55  1  0.09689852  0.45807458  0.61776630  1
  N  N56  1  0.88825102  0.53916427  0.35802301  1
  N  N57  1  0.76748421  0.40917798  0.12375872  1
  N  N58  1  0.57431800  0.55585583  0.87010706  1
  N  N59  1  0.42803271  0.40850366  0.61439784  1
  N  N60  1  0.21986707  0.87407295  0.36761493  1
  N  N61  1  0.10529994  0.76726921  0.12239988  1
  N  N62  1  0.88852364  0.87023321  0.86235117  1
  N  N63  1  0.77566016  0.75839488  0.61496165  1
  N  N64  1  0.55145589  0.87506045  0.36897888  1
  N  N65  1  0.44239670  0.76697136  0.11638709  1
  N  N66  1  0.22267113  0.86803219  0.87390092  1
  N  N67  1  0.11927213  0.75503951  0.62102821  1
  N  N68  1  0.90702285  0.83802954  0.38388041  1
  N  N69  1  0.76039608  0.79928085  0.13058489  1
  N  N70  1  0.56093487  0.86748284  0.87348813  1
  N  N71  1  0.42846181  0.79261645  0.62614638  1
