# generated using pymatgen
data_Gd5Al31N36
_symmetry_space_group_name_H-M   'P 1'
_cell_length_a   9.74856515
_cell_length_b   9.75306008
_cell_length_c   10.24752140
_cell_angle_alpha   89.61998430
_cell_angle_beta   89.94938924
_cell_angle_gamma   60.13196966
_symmetry_Int_Tables_number   1
_chemical_formula_structural   Gd5Al31N36
_chemical_formula_sum   'Gd5 Al31 N36'
_cell_volume   844.88153142
_cell_formula_units_Z   1
loop_
 _symmetry_equiv_pos_site_id
 _symmetry_equiv_pos_as_xyz
  1  'x, y, z'
loop_
 _atom_site_type_symbol
 _atom_site_label
 _atom_site_symmetry_multiplicity
 _atom_site_fract_x
 _atom_site_fract_y
 _atom_site_fract_z
 _atom_site_occupancy
  Al  Al0  1  0.11493759  0.09845704  0.30740909  1
  Al  Al1  1  0.21825697  0.20886653  0.05767547  1
  Al  Al2  1  0.79420173  0.08162956  0.80583031  1
  Al  Al3  1  0.90115958  0.20138742  0.56338838  1
  Al  Al4  1  0.44426348  0.09501717  0.36503547  1
  Al  Al5  1  0.54652578  0.20690213  0.11636924  1
  Al  Al6  1  0.10682995  0.08797118  0.81594846  1
  Al  Al7  1  0.88192659  0.20493450  0.05550242  1
  Al  Al8  1  0.45602691  0.08005363  0.87792938  1
  Al  Al9  1  0.56697755  0.18710972  0.62637374  1
  Al  Al10  1  0.12205665  0.41912802  0.31248705  1
  Al  Al11  1  0.20962936  0.55104217  0.06436177  1
  Al  Al12  1  0.78711005  0.42688591  0.80628305  1
  Al  Al13  1  0.89162181  0.54103501  0.55549039  1
  Al  Al14  1  0.42994216  0.44077673  0.29319780  1
  Al  Al15  1  0.55498520  0.54681286  0.05921791  1
  Al  Al16  1  0.09600395  0.44576705  0.80435354  1
  Al  Al17  1  0.21933674  0.54171794  0.55491340  1
  Al  Al18  1  0.77883349  0.42621702  0.30732129  1
  Al  Al19  1  0.11166789  0.75803152  0.31120963  1
  Al  Al20  1  0.21811695  0.87507196  0.06105612  1
  Al  Al21  1  0.77416703  0.76312197  0.80329894  1
  Al  Al22  1  0.90068780  0.85733443  0.56529388  1
  Al  Al23  1  0.43830819  0.76262528  0.30377059  1
  Al  Al24  1  0.55231996  0.87788466  0.08449436  1
  Al  Al25  1  0.10800574  0.76361235  0.81066285  1
  Al  Al26  1  0.21640554  0.87435852  0.56100459  1
  Al  Al27  1  0.78051732  0.75915837  0.31438320  1
  Al  Al28  1  0.88322058  0.88392041  0.05403947  1
  Al  Al29  1  0.44411099  0.77242508  0.81302635  1
  Al  Al30  1  0.56613768  0.86451386  0.55669501  1
  Gd  Gd31  1  0.23261982  0.20042443  0.59138451  1
  Gd  Gd32  1  0.77719769  0.09289084  0.33171978  1
  Gd  Gd33  1  0.88740942  0.54571112  0.06678005  1
  Gd  Gd34  1  0.43954048  0.42133100  0.84229278  1
  Gd  Gd35  1  0.55233054  0.53750480  0.56409250  1
  N  N36  1  0.22219086  0.20222885  0.36229708  1
  N  N37  1  0.10720485  0.09817096  0.11422205  1
  N  N38  1  0.88691279  0.20648746  0.86755142  1
  N  N39  1  0.79243818  0.08718307  0.60624126  1
  N  N40  1  0.51808849  0.22328306  0.29867178  1
  N  N41  1  0.44052824  0.09843357  0.06461212  1
  N  N42  1  0.21683748  0.21089961  0.85494453  1
  N  N43  1  0.09981923  0.07383147  0.63305079  1
  N  N44  1  0.90703331  0.22029715  0.37747029  1
  N  N45  1  0.77391975  0.09809172  0.10130153  1
  N  N46  1  0.57651203  0.16191807  0.81272538  1
  N  N47  1  0.48953131  0.07606481  0.54716150  1
  N  N48  1  0.22283162  0.54122833  0.36469571  1
  N  N49  1  0.14056834  0.41287434  0.12792477  1
  N  N50  1  0.88463436  0.54330509  0.85060685  1
  N  N51  1  0.80836109  0.41236996  0.62113158  1
  N  N52  1  0.55089121  0.53830074  0.34392221  1
  N  N53  1  0.43519159  0.44185393  0.09382388  1
  N  N54  1  0.18054807  0.56039733  0.88214906  1
  N  N55  1  0.09556131  0.46142699  0.61873579  1
  N  N56  1  0.88944376  0.53713501  0.35875326  1
  N  N57  1  0.76405732  0.41315925  0.12272256  1
  N  N58  1  0.57188413  0.55353187  0.86554033  1
  N  N59  1  0.42776512  0.40737121  0.61541353  1
  N  N60  1  0.21875009  0.87384499  0.36760442  1
  N  N61  1  0.10346813  0.76950563  0.12182972  1
  N  N62  1  0.89144555  0.86928518  0.86336164  1
  N  N63  1  0.77848685  0.75751774  0.61490212  1
  N  N64  1  0.55624504  0.86359967  0.35175575  1
  N  N65  1  0.43878369  0.76638142  0.11662651  1
  N  N66  1  0.22267033  0.86900663  0.87406876  1
  N  N67  1  0.12112017  0.75463198  0.62147060  1
  N  N68  1  0.90814946  0.83658563  0.38267508  1
  N  N69  1  0.76499836  0.79757480  0.13075147  1
  N  N70  1  0.56357750  0.86258960  0.86818320  1
  N  N71  1  0.42843312  0.79567990  0.62385222  1
