# generated using pymatgen
data_Gd5Al31N36
_symmetry_space_group_name_H-M   'P 1'
_cell_length_a   9.75608735
_cell_length_b   9.73123965
_cell_length_c   10.35544933
_cell_angle_alpha   89.75678485
_cell_angle_beta   89.96554682
_cell_angle_gamma   59.92043848
_symmetry_Int_Tables_number   1
_chemical_formula_structural   Gd5Al31N36
_chemical_formula_sum   'Gd5 Al31 N36'
_cell_volume   850.72677268
_cell_formula_units_Z   1
loop_
 _symmetry_equiv_pos_site_id
 _symmetry_equiv_pos_as_xyz
  1  'x, y, z'
loop_
 _atom_site_type_symbol
 _atom_site_label
 _atom_site_symmetry_multiplicity
 _atom_site_fract_x
 _atom_site_fract_y
 _atom_site_fract_z
 _atom_site_occupancy
  Al  Al0  1  0.11857206  0.09802741  0.30695462  1
  Al  Al1  1  0.22067263  0.20643816  0.05425500  1
  Al  Al2  1  0.77881132  0.09100992  0.87420537  1
  Al  Al3  1  0.89747423  0.20159869  0.55962638  1
  Al  Al4  1  0.44986780  0.08959975  0.37168687  1
  Al  Al5  1  0.54360927  0.20595409  0.11325542  1
  Al  Al6  1  0.10300498  0.08928372  0.81317400  1
  Al  Al7  1  0.88818660  0.20855785  0.05843098  1
  Al  Al8  1  0.45533344  0.07904186  0.87351307  1
  Al  Al9  1  0.57458658  0.18304812  0.62542046  1
  Al  Al10  1  0.12381126  0.41806197  0.31109466  1
  Al  Al11  1  0.21217371  0.54807464  0.06222935  1
  Al  Al12  1  0.78632437  0.42873108  0.80491480  1
  Al  Al13  1  0.89127626  0.54336946  0.55556946  1
  Al  Al14  1  0.43202219  0.43708762  0.29127499  1
  Al  Al15  1  0.55494967  0.54635626  0.05935907  1
  Al  Al16  1  0.09715823  0.44412442  0.80319675  1
  Al  Al17  1  0.21927703  0.54129048  0.55476019  1
  Al  Al18  1  0.78070626  0.42734904  0.30652524  1
  Al  Al19  1  0.11445151  0.75493766  0.31065817  1
  Al  Al20  1  0.21989762  0.87365951  0.05946250  1
  Al  Al21  1  0.78462159  0.76099592  0.80174926  1
  Al  Al22  1  0.89594601  0.86332438  0.55871731  1
  Al  Al23  1  0.43527714  0.76219791  0.30249734  1
  Al  Al24  1  0.54734311  0.88619803  0.12966410  1
  Al  Al25  1  0.10397130  0.76652529  0.80813416  1
  Al  Al26  1  0.21328552  0.87356486  0.56028616  1
  Al  Al27  1  0.78154671  0.75825169  0.31393105  1
  Al  Al28  1  0.89168421  0.87159675  0.05804051  1
  Al  Al29  1  0.43893559  0.77005400  0.81167852  1
  Al  Al30  1  0.55990527  0.87502410  0.62395989  1
  Gd  Gd31  1  0.22657823  0.20132733  0.58624183  1
  Gd  Gd32  1  0.78100499  0.09325594  0.33354092  1
  Gd  Gd33  1  0.88867774  0.54330521  0.06428317  1
  Gd  Gd34  1  0.43736699  0.42732982  0.83540803  1
  Gd  Gd35  1  0.55406157  0.53577466  0.55805301  1
  N  N36  1  0.22619416  0.20128093  0.36208956  1
  N  N37  1  0.11006850  0.09678747  0.11535814  1
  N  N38  1  0.88741716  0.21135457  0.87232821  1
  N  N39  1  0.78327147  0.09323507  0.56844818  1
  N  N40  1  0.52189643  0.21694400  0.29398480  1
  N  N41  1  0.44511901  0.09076001  0.05640149  1
  N  N42  1  0.21538778  0.21079409  0.85448180  1
  N  N43  1  0.09507452  0.07416473  0.63283325  1
  N  N44  1  0.91142170  0.22207310  0.37373237  1
  N  N45  1  0.77153614  0.09877714  0.07471685  1
  N  N46  1  0.57690993  0.16513515  0.81275777  1
  N  N47  1  0.48785149  0.07137234  0.55218713  1
  N  N48  1  0.22579022  0.53809561  0.36506351  1
  N  N49  1  0.14280538  0.41054660  0.12738584  1
  N  N50  1  0.88496625  0.54401809  0.85039132  1
  N  N51  1  0.80872062  0.41328192  0.62149199  1
  N  N52  1  0.55135711  0.53759291  0.34074067  1
  N  N53  1  0.43653913  0.43936386  0.09284034  1
  N  N54  1  0.17960581  0.56115730  0.88162028  1
  N  N55  1  0.09596703  0.46124290  0.61955776  1
  N  N56  1  0.88957033  0.53781844  0.36001048  1
  N  N57  1  0.76421546  0.41366385  0.12490160  1
  N  N58  1  0.57284679  0.55577841  0.86971982  1
  N  N59  1  0.42893446  0.40727036  0.61443363  1
  N  N60  1  0.21817144  0.87337055  0.36762395  1
  N  N61  1  0.10752390  0.76672149  0.12297506  1
  N  N62  1  0.89208083  0.86782904  0.86953332  1
  N  N63  1  0.78378674  0.75791751  0.61459254  1
  N  N64  1  0.55001686  0.87365427  0.31805143  1
  N  N65  1  0.43813284  0.76569591  0.11394604  1
  N  N66  1  0.21986197  0.87012400  0.87397690  1
  N  N67  1  0.11595484  0.75658620  0.62028954  1
  N  N68  1  0.91015199  0.83424135  0.37688821  1
  N  N69  1  0.76928487  0.79321846  0.12872311  1
  N  N70  1  0.55838047  0.87281709  0.81581984  1
  N  N71  1  0.42272391  0.78932531  0.62312512  1
