# generated using pymatgen
data_Gd5Al31N36
_symmetry_space_group_name_H-M   'P 1'
_cell_length_a   9.74514303
_cell_length_b   9.72297514
_cell_length_c   10.45681248
_cell_angle_alpha   89.78911587
_cell_angle_beta   90.34708631
_cell_angle_gamma   60.26065244
_symmetry_Int_Tables_number   1
_chemical_formula_structural   Gd5Al31N36
_chemical_formula_sum   'Gd5 Al31 N36'
_cell_volume   860.26290585
_cell_formula_units_Z   1
loop_
 _symmetry_equiv_pos_site_id
 _symmetry_equiv_pos_as_xyz
  1  'x, y, z'
loop_
 _atom_site_type_symbol
 _atom_site_label
 _atom_site_symmetry_multiplicity
 _atom_site_fract_x
 _atom_site_fract_y
 _atom_site_fract_z
 _atom_site_occupancy
  Al  Al0  1  0.12680270  0.09082461  0.29475579  1
  Al  Al1  1  0.22528593  0.20394470  0.05200424  1
  Al  Al2  1  0.77737515  0.09513299  0.87710831  1
  Al  Al3  1  0.88638311  0.19851853  0.63359626  1
  Al  Al4  1  0.44951025  0.08864982  0.36984134  1
  Al  Al5  1  0.54901585  0.20471825  0.11479492  1
  Al  Al6  1  0.10883957  0.08738259  0.81504740  1
  Al  Al7  1  0.88658750  0.21078241  0.11709645  1
  Al  Al8  1  0.45498147  0.07819886  0.87574179  1
  Al  Al9  1  0.57026164  0.18127036  0.63031849  1
  Al  Al10  1  0.12726266  0.41767156  0.30338199  1
  Al  Al11  1  0.21528906  0.54831569  0.06376334  1
  Al  Al12  1  0.77361530  0.42597462  0.87245077  1
  Al  Al13  1  0.88739230  0.54112475  0.61929054  1
  Al  Al14  1  0.43638776  0.43701603  0.29235294  1
  Al  Al15  1  0.54741249  0.55154635  0.05232301  1
  Al  Al16  1  0.10027762  0.43793330  0.81180291  1
  Al  Al17  1  0.21849924  0.54023217  0.55468849  1
  Al  Al18  1  0.80257326  0.42449523  0.36618021  1
  Al  Al19  1  0.11361507  0.75668781  0.31048838  1
  Al  Al20  1  0.22215200  0.87155724  0.05694880  1
  Al  Al21  1  0.77711928  0.76900091  0.80875845  1
  Al  Al22  1  0.89851424  0.85756199  0.56132931  1
  Al  Al23  1  0.44255353  0.75607166  0.30276107  1
  Al  Al24  1  0.54738922  0.88767154  0.12963842  1
  Al  Al25  1  0.10081611  0.76712608  0.80895933  1
  Al  Al26  1  0.21315072  0.87426366  0.55675645  1
  Al  Al27  1  0.78441630  0.76038121  0.30886951  1
  Al  Al28  1  0.89123454  0.87789255  0.05892457  1
  Al  Al29  1  0.43054881  0.77424286  0.80557777  1
  Al  Al30  1  0.55635753  0.87826091  0.62476321  1
  Gd  Gd31  1  0.21901941  0.20592354  0.57671660  1
  Gd  Gd32  1  0.77276633  0.10410717  0.36093401  1
  Gd  Gd33  1  0.89448620  0.54679466  0.07953154  1
  Gd  Gd34  1  0.42898003  0.42486161  0.83366196  1
  Gd  Gd35  1  0.55286665  0.53595512  0.56560826  1
  N  N36  1  0.22422381  0.20111736  0.35811477  1
  N  N37  1  0.12103145  0.08999243  0.10523738  1
  N  N38  1  0.87599918  0.21179618  0.81919892  1
  N  N39  1  0.78337836  0.09057770  0.57932352  1
  N  N40  1  0.52262527  0.21619102  0.29313833  1
  N  N41  1  0.44855429  0.09054904  0.05594841  1
  N  N42  1  0.21564141  0.21012662  0.85773114  1
  N  N43  1  0.10234064  0.07022212  0.63375670  1
  N  N44  1  0.90553392  0.22106947  0.29753131  1
  N  N45  1  0.77384828  0.10455194  0.06818397  1
  N  N46  1  0.57532834  0.16332595  0.81368405  1
  N  N47  1  0.48465861  0.07253052  0.54995704  1
  N  N48  1  0.22814523  0.53799677  0.36558484  1
  N  N49  1  0.15359255  0.40453547  0.12283734  1
  N  N50  1  0.87783203  0.54055981  0.83270472  1
  N  N51  1  0.82158127  0.40245529  0.55636541  1
  N  N52  1  0.56229511  0.53181382  0.34572525  1
  N  N53  1  0.43856277  0.44035401  0.09558767  1
  N  N54  1  0.17400090  0.56381417  0.88605745  1
  N  N55  1  0.10055486  0.45979976  0.63086070  1
  N  N56  1  0.89939801  0.53868561  0.31787178  1
  N  N57  1  0.76614560  0.41531905  0.05370350  1
  N  N58  1  0.55266553  0.56291584  0.85850752  1
  N  N59  1  0.42859158  0.40427392  0.61426929  1
  N  N60  1  0.22163976  0.87193167  0.36582940  1
  N  N61  1  0.10773291  0.76668897  0.12391663  1
  N  N62  1  0.89045477  0.87018047  0.87154366  1
  N  N63  1  0.78046927  0.76193630  0.62157952  1
  N  N64  1  0.55230880  0.87335887  0.31642301  1
  N  N65  1  0.43995777  0.76369596  0.11456252  1
  N  N66  1  0.21732213  0.87013111  0.87315206  1
  N  N67  1  0.11705254  0.75523776  0.62078006  1
  N  N68  1  0.90900018  0.83962017  0.37909532  1
  N  N69  1  0.76593969  0.80238944  0.12484858  1
  N  N70  1  0.55262144  0.87458332  0.81551015  1
  N  N71  1  0.42149985  0.79127800  0.61984404  1
