# generated using pymatgen
data_Gd5Al31N36
_symmetry_space_group_name_H-M   'P 1'
_cell_length_a   9.72330609
_cell_length_b   9.76949026
_cell_length_c   10.22420105
_cell_angle_alpha   90.55974754
_cell_angle_beta   90.73916516
_cell_angle_gamma   59.99647014
_symmetry_Int_Tables_number   1
_chemical_formula_structural   Gd5Al31N36
_chemical_formula_sum   'Gd5 Al31 N36'
_cell_volume   840.99051044
_cell_formula_units_Z   1
loop_
 _symmetry_equiv_pos_site_id
 _symmetry_equiv_pos_as_xyz
  1  'x, y, z'
loop_
 _atom_site_type_symbol
 _atom_site_label
 _atom_site_symmetry_multiplicity
 _atom_site_fract_x
 _atom_site_fract_y
 _atom_site_fract_z
 _atom_site_occupancy
  Al  Al0  1  0.11064180  0.09316082  0.39052459  1
  Al  Al1  1  0.22709708  0.20043020  0.15309634  1
  Al  Al2  1  0.78659450  0.08252667  0.89963145  1
  Al  Al3  1  0.89383152  0.19697128  0.65688132  1
  Al  Al4  1  0.45085512  0.09104281  0.39163741  1
  Al  Al5  1  0.55530204  0.19728474  0.14063420  1
  Al  Al6  1  0.11353397  0.09328103  0.90345604  1
  Al  Al7  1  0.88853382  0.20694211  0.13822477  1
  Al  Al8  1  0.44639290  0.08246489  0.90567000  1
  Al  Al9  1  0.56603266  0.18355323  0.66277995  1
  Al  Al10  1  0.10941481  0.43502970  0.39862429  1
  Al  Al11  1  0.21462858  0.54761942  0.10562200  1
  Al  Al12  1  0.77711675  0.42954754  0.89064167  1
  Al  Al13  1  0.89060288  0.54028478  0.65086120  1
  Al  Al14  1  0.43183284  0.43364046  0.32138092  1
  Al  Al15  1  0.55488313  0.54586083  0.14724165  1
  Al  Al16  1  0.11003356  0.42185713  0.90300060  1
  Al  Al17  1  0.21573831  0.54198725  0.62394061  1
  Al  Al18  1  0.79532025  0.42386398  0.39955442  1
  Al  Al19  1  0.11429651  0.75708365  0.39381480  1
  Al  Al20  1  0.22040355  0.87513522  0.14574815  1
  Al  Al21  1  0.77323773  0.76970207  0.89056169  1
  Al  Al22  1  0.89260359  0.86859756  0.65448755  1
  Al  Al23  1  0.43718515  0.77776699  0.39012253  1
  Al  Al24  1  0.55369177  0.87777183  0.14524409  1
  Al  Al25  1  0.10456328  0.77100101  0.89965325  1
  Al  Al26  1  0.21423980  0.87624255  0.64463812  1
  Al  Al27  1  0.77962891  0.75829348  0.40522894  1
  Al  Al28  1  0.88729133  0.87508723  0.14541109  1
  Al  Al29  1  0.44622186  0.76649483  0.89400952  1
  Al  Al30  1  0.55961149  0.87281458  0.64530726  1
  Gd  Gd31  1  0.22942293  0.19855428  0.63427415  1
  Gd  Gd32  1  0.78004228  0.09872038  0.39697915  1
  Gd  Gd33  1  0.88170910  0.54506511  0.14039260  1
  Gd  Gd34  1  0.45190666  0.42294588  0.88297461  1
  Gd  Gd35  1  0.54905585  0.53895308  0.61235728  1
  N  N36  1  0.22465800  0.20365855  0.34991899  1
  N  N37  1  0.11295822  0.09384118  0.09093272  1
  N  N38  1  0.89182898  0.20350316  0.84548824  1
  N  N39  1  0.78088459  0.09135713  0.61656824  1
  N  N40  1  0.53183632  0.21426069  0.32384238  1
  N  N41  1  0.44118610  0.09149168  0.09256316  1
  N  N42  1  0.22407643  0.20184286  0.85563439  1
  N  N43  1  0.08991587  0.07859833  0.57506335  1
  N  N44  1  0.90376762  0.22419637  0.32093145  1
  N  N45  1  0.77949186  0.09393046  0.09444581  1
  N  N46  1  0.57482957  0.16182507  0.84964700  1
  N  N47  1  0.48508444  0.07321298  0.57374196  1
  N  N48  1  0.21862201  0.54228883  0.35262798  1
  N  N49  1  0.13536427  0.40885491  0.09108074  1
  N  N50  1  0.89006397  0.53831696  0.84651463  1
  N  N51  1  0.81310099  0.40467700  0.58687324  1
  N  N52  1  0.55853695  0.54253373  0.34661778  1
  N  N53  1  0.44044578  0.43479490  0.12382220  1
  N  N54  1  0.19238867  0.55531962  0.87978741  1
  N  N55  1  0.09486888  0.45348067  0.58533436  1
  N  N56  1  0.88775211  0.54354259  0.35756408  1
  N  N57  1  0.75669873  0.41588526  0.07481622  1
  N  N58  1  0.56890928  0.56068597  0.83169798  1
  N  N59  1  0.42744608  0.40174922  0.64532574  1
  N  N60  1  0.21906100  0.87327299  0.33240513  1
  N  N61  1  0.10517913  0.77326698  0.08928917  1
  N  N62  1  0.89336751  0.86902402  0.83991532  1
  N  N63  1  0.77912586  0.75890078  0.59623058  1
  N  N64  1  0.56099113  0.87022383  0.33307585  1
  N  N65  1  0.44397248  0.76384159  0.08851271  1
  N  N66  1  0.22119886  0.87425797  0.83807007  1
  N  N67  1  0.11222263  0.76093299  0.58848672  1
  N  N68  1  0.90008367  0.84519927  0.33208358  1
  N  N69  1  0.75965855  0.79595183  0.07468732  1
  N  N70  1  0.55140060  0.87392116  0.83440346  1
  N  N71  1  0.42192018  0.80290977  0.57596286  1
