# generated using pymatgen
data_Gd5Al31N36
_symmetry_space_group_name_H-M   'P 1'
_cell_length_a   9.70646070
_cell_length_b   9.71787763
_cell_length_c   10.23470536
_cell_angle_alpha   89.87805721
_cell_angle_beta   90.04291079
_cell_angle_gamma   60.03813557
_symmetry_Int_Tables_number   1
_chemical_formula_structural   Gd5Al31N36
_chemical_formula_sum   'Gd5 Al31 N36'
_cell_volume   836.37902272
_cell_formula_units_Z   1
loop_
 _symmetry_equiv_pos_site_id
 _symmetry_equiv_pos_as_xyz
  1  'x, y, z'
loop_
 _atom_site_type_symbol
 _atom_site_label
 _atom_site_symmetry_multiplicity
 _atom_site_fract_x
 _atom_site_fract_y
 _atom_site_fract_z
 _atom_site_occupancy
  Al  Al0  1  0.11486704  0.09524830  0.28944042  1
  Al  Al1  1  0.22758065  0.20302847  0.04350307  1
  Al  Al2  1  0.78047812  0.08955840  0.79279828  1
  Al  Al3  1  0.89474538  0.20081348  0.55140012  1
  Al  Al4  1  0.43956287  0.09396758  0.28882576  1
  Al  Al5  1  0.56104846  0.19528529  0.04329553  1
  Al  Al6  1  0.10803426  0.08834113  0.80187640  1
  Al  Al7  1  0.88765703  0.20201495  0.03815849  1
  Al  Al8  1  0.45582943  0.08274687  0.79924131  1
  Al  Al9  1  0.55308701  0.20191802  0.54374407  1
  Al  Al10  1  0.11888657  0.42234994  0.29438235  1
  Al  Al11  1  0.21679700  0.54394408  0.05143594  1
  Al  Al12  1  0.78689441  0.42703486  0.79301177  1
  Al  Al13  1  0.89060260  0.54339422  0.54369357  1
  Al  Al14  1  0.43762266  0.42831313  0.28572680  1
  Al  Al15  1  0.55678857  0.54028648  0.05151290  1
  Al  Al16  1  0.10025497  0.44058507  0.79166416  1
  Al  Al17  1  0.21624160  0.54445863  0.53883507  1
  Al  Al18  1  0.78193109  0.42342409  0.29411319  1
  Al  Al19  1  0.11425981  0.75572343  0.29735269  1
  Al  Al20  1  0.22116179  0.87178912  0.04733659  1
  Al  Al21  1  0.77450961  0.76267417  0.78930422  1
  Al  Al22  1  0.89472838  0.86274865  0.55252485  1
  Al  Al23  1  0.44194379  0.76499316  0.28952518  1
  Al  Al24  1  0.55341477  0.87947247  0.04726179  1
  Al  Al25  1  0.10568510  0.76488876  0.79682720  1
  Al  Al26  1  0.21548599  0.87401542  0.54923606  1
  Al  Al27  1  0.77664573  0.76272558  0.30243963  1
  Al  Al28  1  0.88744885  0.87769257  0.03823460  1
  Al  Al29  1  0.44311852  0.77276902  0.80288178  1
  Al  Al30  1  0.55756542  0.87612239  0.54700513  1
  Gd  Gd31  1  0.22205897  0.20165991  0.55646805  1
  Gd  Gd32  1  0.78300502  0.08942031  0.30248255  1
  Gd  Gd33  1  0.88632882  0.54487737  0.05275421  1
  Gd  Gd34  1  0.43746967  0.42897943  0.81254594  1
  Gd  Gd35  1  0.55413987  0.54507249  0.54557079  1
  N  N36  1  0.22430281  0.20097736  0.33629093  1
  N  N37  1  0.11008896  0.09457552  0.09825546  1
  N  N38  1  0.88641290  0.20706070  0.85152987  1
  N  N39  1  0.77672575  0.09451054  0.59538941  1
  N  N40  1  0.52601041  0.21742139  0.35503846  1
  N  N41  1  0.44392002  0.09412975  0.10098446  1
  N  N42  1  0.22243833  0.20703831  0.84552268  1
  N  N43  1  0.09562420  0.07479244  0.61988544  1
  N  N44  1  0.90937581  0.21702236  0.36594808  1
  N  N45  1  0.78193286  0.09268827  0.08421919  1
  N  N46  1  0.57252591  0.17454246  0.86050336  1
  N  N47  1  0.47648105  0.07809234  0.61573160  1
  N  N48  1  0.22343134  0.53881978  0.34912669  1
  N  N49  1  0.13972996  0.41205716  0.11103260  1
  N  N50  1  0.88588090  0.54340388  0.83622205  1
  N  N51  1  0.80824725  0.41316457  0.60767609  1
  N  N52  1  0.55310769  0.53861529  0.32697916  1
  N  N53  1  0.44334097  0.42661202  0.08958694  1
  N  N54  1  0.18294289  0.55994479  0.86911915  1
  N  N55  1  0.09738592  0.45913934  0.60580869  1
  N  N56  1  0.88877209  0.53834379  0.34557673  1
  N  N57  1  0.76897875  0.40708608  0.11060238  1
  N  N58  1  0.57296908  0.55500243  0.85794086  1
  N  N59  1  0.42845645  0.41498928  0.59428935  1
  N  N60  1  0.22159287  0.87233251  0.35436231  1
  N  N61  1  0.10731929  0.76515646  0.10800204  1
  N  N62  1  0.88769210  0.87156887  0.84698395  1
  N  N63  1  0.77428250  0.76023528  0.60139440  1
  N  N64  1  0.55292104  0.87282014  0.35626504  1
  N  N65  1  0.44388334  0.76567161  0.10242175  1
  N  N66  1  0.22196886  0.86837962  0.86080540  1
  N  N67  1  0.11703808  0.75678021  0.60756974  1
  N  N68  1  0.90835519  0.83806803  0.36965940  1
  N  N69  1  0.76197120  0.79869389  0.11729187  1
  N  N70  1  0.55989952  0.87025365  0.86040425  1
  N  N71  1  0.42611388  0.79767265  0.61516980  1
