# generated using pymatgen
data_Gd5Al31N36
_symmetry_space_group_name_H-M   'P 1'
_cell_length_a   9.77683900
_cell_length_b   9.74844108
_cell_length_c   10.35476283
_cell_angle_alpha   90.00774641
_cell_angle_beta   90.46816865
_cell_angle_gamma   59.99365690
_symmetry_Int_Tables_number   1
_chemical_formula_structural   Gd5Al31N36
_chemical_formula_sum   'Gd5 Al31 N36'
_cell_volume   854.58967337
_cell_formula_units_Z   1
loop_
 _symmetry_equiv_pos_site_id
 _symmetry_equiv_pos_as_xyz
  1  'x, y, z'
loop_
 _atom_site_type_symbol
 _atom_site_label
 _atom_site_symmetry_multiplicity
 _atom_site_fract_x
 _atom_site_fract_y
 _atom_site_fract_z
 _atom_site_occupancy
  Al  Al0  1  0.11865740  0.09473407  0.36613613  1
  Al  Al1  1  0.22506681  0.20682500  0.07891064  1
  Al  Al2  1  0.78505914  0.08333102  0.90400504  1
  Al  Al3  1  0.88686748  0.20167480  0.66403736  1
  Al  Al4  1  0.45268627  0.08747908  0.39831021  1
  Al  Al5  1  0.55159953  0.19944078  0.14232206  1
  Al  Al6  1  0.10466440  0.09532207  0.88655989  1
  Al  Al7  1  0.88871672  0.20464065  0.13703836  1
  Al  Al8  1  0.45650290  0.08019684  0.90182518  1
  Al  Al9  1  0.56535124  0.18821828  0.66275609  1
  Al  Al10  1  0.12712599  0.41598913  0.33560152  1
  Al  Al11  1  0.21253050  0.54842352  0.08923389  1
  Al  Al12  1  0.76776661  0.43300317  0.89432708  1
  Al  Al13  1  0.87968685  0.54550204  0.65588828  1
  Al  Al14  1  0.42959942  0.43020485  0.32502470  1
  Al  Al15  1  0.55649758  0.53733495  0.15052670  1
  Al  Al16  1  0.10132307  0.44396377  0.83935764  1
  Al  Al17  1  0.21372180  0.54045179  0.58608529  1
  Al  Al18  1  0.80638078  0.41929925  0.40025312  1
  Al  Al19  1  0.11784215  0.75366605  0.33084212  1
  Al  Al20  1  0.22737920  0.86556090  0.07838503  1
  Al  Al21  1  0.77063829  0.77352212  0.89643467  1
  Al  Al22  1  0.88626483  0.87260653  0.65585460  1
  Al  Al23  1  0.43948986  0.76782204  0.33258364  1
  Al  Al24  1  0.55526239  0.88067649  0.15047303  1
  Al  Al25  1  0.11237288  0.76147345  0.83266052  1
  Al  Al26  1  0.21038652  0.87457158  0.58032647  1
  Al  Al27  1  0.78471112  0.75222796  0.40470892  1
  Al  Al28  1  0.88425498  0.87626138  0.14941676  1
  Al  Al29  1  0.43622325  0.77487800  0.81833308  1
  Al  Al30  1  0.56553014  0.87617297  0.64548317  1
  Gd  Gd31  1  0.22870155  0.20008045  0.62298077  1
  Gd  Gd32  1  0.77690559  0.10044136  0.39810045  1
  Gd  Gd33  1  0.88546173  0.54046068  0.12752164  1
  Gd  Gd34  1  0.44501640  0.42861198  0.87563645  1
  Gd  Gd35  1  0.54513703  0.53993607  0.59914555  1
  N  N36  1  0.22815939  0.20032316  0.38844307  1
  N  N37  1  0.10897600  0.09660085  0.08812794  1
  N  N38  1  0.88089048  0.20924652  0.85000426  1
  N  N39  1  0.77904623  0.09497939  0.61430115  1
  N  N40  1  0.52898652  0.21134723  0.32323323  1
  N  N41  1  0.44671478  0.08899026  0.08550983  1
  N  N42  1  0.22053871  0.21329959  0.87987474  1
  N  N43  1  0.09208429  0.07999179  0.62373080  1
  N  N44  1  0.90797017  0.21944724  0.31985563  1
  N  N45  1  0.77804709  0.09358591  0.09621762  1
  N  N46  1  0.57640666  0.16716866  0.84826500  1
  N  N47  1  0.49093441  0.07353901  0.57697142  1
  N  N48  1  0.22327867  0.53926480  0.39470408  1
  N  N49  1  0.14843616  0.40774203  0.15054280  1
  N  N50  1  0.87643984  0.54600885  0.85710239  1
  N  N51  1  0.81271317  0.40708150  0.58512269  1
  N  N52  1  0.56327025  0.53074228  0.35001352  1
  N  N53  1  0.43598587  0.43607929  0.12765259  1
  N  N54  1  0.18299127  0.56277233  0.91014659  1
  N  N55  1  0.09410150  0.46134288  0.65694879  1
  N  N56  1  0.89728957  0.53837283  0.35094365  1
  N  N57  1  0.75368244  0.41498105  0.07697980  1
  N  N58  1  0.56762951  0.55721444  0.82573336  1
  N  N59  1  0.42202137  0.40624765  0.64594581  1
  N  N60  1  0.22086053  0.86958075  0.38835346  1
  N  N61  1  0.11587331  0.76342534  0.14417711  1
  N  N62  1  0.88895278  0.87177033  0.84198767  1
  N  N63  1  0.78044196  0.75770033  0.59285499  1
  N  N64  1  0.56451718  0.86983344  0.33893272  1
  N  N65  1  0.44100219  0.76411894  0.14329442  1
  N  N66  1  0.22712540  0.86412941  0.89151346  1
  N  N67  1  0.11812115  0.75556943  0.64213990  1
  N  N68  1  0.89552210  0.84851368  0.33595360  1
  N  N69  1  0.75939662  0.79677724  0.07919899  1
  N  N70  1  0.55735269  0.87626461  0.83405138  1
  N  N71  1  0.41919110  0.80414354  0.63104746  1
