# generated using pymatgen
data_Gd5Al31N36
_symmetry_space_group_name_H-M   'P 1'
_cell_length_a   9.73606338
_cell_length_b   9.74530009
_cell_length_c   10.34772888
_cell_angle_alpha   90.49350987
_cell_angle_beta   90.56165506
_cell_angle_gamma   60.00312752
_symmetry_Int_Tables_number   1
_chemical_formula_structural   Gd5Al31N36
_chemical_formula_sum   'Gd5 Al31 N36'
_cell_volume   850.24309046
_cell_formula_units_Z   1
loop_
 _symmetry_equiv_pos_site_id
 _symmetry_equiv_pos_as_xyz
  1  'x, y, z'
loop_
 _atom_site_type_symbol
 _atom_site_label
 _atom_site_symmetry_multiplicity
 _atom_site_fract_x
 _atom_site_fract_y
 _atom_site_fract_z
 _atom_site_occupancy
  Al  Al0  1  0.10547375  0.09881847  0.38758568  1
  Al  Al1  1  0.23014132  0.19936793  0.15996025  1
  Al  Al2  1  0.78802605  0.08155255  0.90158234  1
  Al  Al3  1  0.89142021  0.19832309  0.65824986  1
  Al  Al4  1  0.45370564  0.08840755  0.39441220  1
  Al  Al5  1  0.55421942  0.19874036  0.14249311  1
  Al  Al6  1  0.10927879  0.10202741  0.90831381  1
  Al  Al7  1  0.88774581  0.20741711  0.14036038  1
  Al  Al8  1  0.44591113  0.08453812  0.90716136  1
  Al  Al9  1  0.56399453  0.18583555  0.66465284  1
  Al  Al10  1  0.11060359  0.43002652  0.38916744  1
  Al  Al11  1  0.21262060  0.54854600  0.08806780  1
  Al  Al12  1  0.77637434  0.42955022  0.89221024  1
  Al  Al13  1  0.88930670  0.53999345  0.64513072  1
  Al  Al14  1  0.43177255  0.43405421  0.32180842  1
  Al  Al15  1  0.55700514  0.54333802  0.14826458  1
  Al  Al16  1  0.10444004  0.43018287  0.88188220  1
  Al  Al17  1  0.22094865  0.54066775  0.58221593  1
  Al  Al18  1  0.79170132  0.42513096  0.40104905  1
  Al  Al19  1  0.11792913  0.75284605  0.32357011  1
  Al  Al20  1  0.22144994  0.87056542  0.08559383  1
  Al  Al21  1  0.77261005  0.77165025  0.89205503  1
  Al  Al22  1  0.88616977  0.87134220  0.65729642  1
  Al  Al23  1  0.44400794  0.77285572  0.38706929  1
  Al  Al24  1  0.55561526  0.87767749  0.14691500  1
  Al  Al25  1  0.11585723  0.76309847  0.83339762  1
  Al  Al26  1  0.20865740  0.87047484  0.56618023  1
  Al  Al27  1  0.77949672  0.75781834  0.40634771  1
  Al  Al28  1  0.88269867  0.87656793  0.14480839  1
  Al  Al29  1  0.45194258  0.76453266  0.89884036  1
  Al  Al30  1  0.55995558  0.87303662  0.64622979  1
  Gd  Gd31  1  0.22992306  0.19415744  0.63277326  1
  Gd  Gd32  1  0.78039718  0.09740907  0.40045388  1
  Gd  Gd33  1  0.88256212  0.54384071  0.14280196  1
  Gd  Gd34  1  0.44920064  0.42290866  0.88139285  1
  Gd  Gd35  1  0.54565046  0.54148993  0.61780546  1
  N  N36  1  0.22921792  0.19716771  0.35412130  1
  N  N37  1  0.11087480  0.10052619  0.09560575  1
  N  N38  1  0.89221122  0.20412722  0.84507781  1
  N  N39  1  0.77908884  0.09233840  0.61801713  1
  N  N40  1  0.53217985  0.21366873  0.32438182  1
  N  N41  1  0.44141695  0.09159790  0.09220761  1
  N  N42  1  0.22185362  0.20835439  0.85651294  1
  N  N43  1  0.08169537  0.08642312  0.57170869  1
  N  N44  1  0.89975889  0.22603958  0.32055950  1
  N  N45  1  0.77989003  0.09386009  0.09366911  1
  N  N46  1  0.57593117  0.16216456  0.85063775  1
  N  N47  1  0.48675015  0.07335778  0.57454129  1
  N  N48  1  0.22779893  0.54386190  0.39106885  1
  N  N49  1  0.13908473  0.41398012  0.13005943  1
  N  N50  1  0.88588397  0.54140350  0.84277957  1
  N  N51  1  0.80750315  0.40675772  0.58658573  1
  N  N52  1  0.55994012  0.54076189  0.34519868  1
  N  N53  1  0.43778709  0.43680604  0.12701035  1
  N  N54  1  0.18717958  0.56154556  0.90482694  1
  N  N55  1  0.09542244  0.44935786  0.58674400  1
  N  N56  1  0.88685595  0.54292664  0.35951209  1
  N  N57  1  0.75774516  0.41435885  0.07388772  1
  N  N58  1  0.56813711  0.55975310  0.83423817  1
  N  N59  1  0.42241799  0.40438625  0.65130554  1
  N  N60  1  0.21631903  0.86991377  0.37243715  1
  N  N61  1  0.11354112  0.76320000  0.13876624  1
  N  N62  1  0.89153147  0.86958180  0.84168829  1
  N  N63  1  0.77862597  0.75969811  0.59521324  1
  N  N64  1  0.56286866  0.86995595  0.33240163  1
  N  N65  1  0.45325976  0.75985490  0.09258907  1
  N  N66  1  0.22148521  0.87222075  0.89433109  1
  N  N67  1  0.12089325  0.75564445  0.64292635  1
  N  N68  1  0.89402857  0.84636320  0.33173337  1
  N  N69  1  0.76011937  0.79503708  0.07368095  1
  N  N70  1  0.55033431  0.87565024  0.83430839  1
  N  N71  1  0.42793527  0.80171138  0.57295037  1
