# generated using pymatgen
data_Gd5Al31N36
_symmetry_space_group_name_H-M   'P 1'
_cell_length_a   9.70823815
_cell_length_b   9.71434616
_cell_length_c   10.23503108
_cell_angle_alpha   90.05006016
_cell_angle_beta   90.08568035
_cell_angle_gamma   59.97742019
_symmetry_Int_Tables_number   1
_chemical_formula_structural   Gd5Al31N36
_chemical_formula_sum   'Gd5 Al31 N36'
_cell_volume   835.74626357
_cell_formula_units_Z   1
loop_
 _symmetry_equiv_pos_site_id
 _symmetry_equiv_pos_as_xyz
  1  'x, y, z'
loop_
 _atom_site_type_symbol
 _atom_site_label
 _atom_site_symmetry_multiplicity
 _atom_site_fract_x
 _atom_site_fract_y
 _atom_site_fract_z
 _atom_site_occupancy
  Al  Al0  1  0.11094260  0.09251793  0.39756058  1
  Al  Al1  1  0.22934531  0.20197441  0.15718887  1
  Al  Al2  1  0.78152596  0.08752385  0.90677717  1
  Al  Al3  1  0.89268936  0.19774092  0.66538319  1
  Al  Al4  1  0.45011935  0.08899694  0.40091825  1
  Al  Al5  1  0.55237710  0.20584549  0.15842304  1
  Al  Al6  1  0.11296755  0.09298065  0.91225616  1
  Al  Al7  1  0.88895999  0.20581682  0.14804241  1
  Al  Al8  1  0.44630581  0.08715015  0.91319992  1
  Al  Al9  1  0.56166970  0.19246328  0.66134760  1
  Al  Al10  1  0.10759980  0.43462914  0.40918772  1
  Al  Al11  1  0.22541244  0.54036604  0.16402520  1
  Al  Al12  1  0.77684155  0.42831153  0.90472085  1
  Al  Al13  1  0.89263805  0.54039177  0.66007588  1
  Al  Al14  1  0.43424494  0.42341640  0.40299672  1
  Al  Al15  1  0.55400293  0.53907368  0.16772274  1
  Al  Al16  1  0.11289249  0.42692929  0.90647705  1
  Al  Al17  1  0.20946542  0.54590831  0.65219632  1
  Al  Al18  1  0.79363578  0.42360566  0.41048984  1
  Al  Al19  1  0.11352026  0.75590271  0.40456388  1
  Al  Al20  1  0.22177042  0.87113413  0.15341675  1
  Al  Al21  1  0.77187371  0.76955281  0.90039441  1
  Al  Al22  1  0.89104734  0.86993282  0.66362926  1
  Al  Al23  1  0.43705184  0.77556609  0.40064380  1
  Al  Al24  1  0.55397293  0.87744204  0.15473157  1
  Al  Al25  1  0.10590373  0.76416602  0.90498216  1
  Al  Al26  1  0.21220666  0.87589314  0.65284391  1
  Al  Al27  1  0.77925564  0.75688036  0.41278833  1
  Al  Al28  1  0.88963398  0.87137196  0.15039129  1
  Al  Al29  1  0.44531227  0.76715343  0.90825445  1
  Al  Al30  1  0.55857552  0.87567119  0.65542158  1
  Gd  Gd31  1  0.22618177  0.19722703  0.64304970  1
  Gd  Gd32  1  0.78503665  0.09230902  0.40441720  1
  Gd  Gd33  1  0.88823010  0.54141588  0.14772090  1
  Gd  Gd34  1  0.44089089  0.43051721  0.90872438  1
  Gd  Gd35  1  0.55327782  0.54559505  0.63258159  1
  N  N36  1  0.22432751  0.20435071  0.35556417  1
  N  N37  1  0.11390844  0.09313895  0.09933030  1
  N  N38  1  0.89166313  0.20384173  0.85419864  1
  N  N39  1  0.77972123  0.09300503  0.62362227  1
  N  N40  1  0.53338384  0.21394282  0.34027933  1
  N  N41  1  0.44505663  0.09339357  0.10097830  1
  N  N42  1  0.22377061  0.20314214  0.86432501  1
  N  N43  1  0.08834780  0.07843672  0.58224651  1
  N  N44  1  0.90384730  0.22349872  0.33032375  1
  N  N45  1  0.77855113  0.09366364  0.10288519  1
  N  N46  1  0.56710592  0.17637782  0.84843201  1
  N  N47  1  0.48164901  0.07560586  0.58319833  1
  N  N48  1  0.21849681  0.54062173  0.35007090  1
  N  N49  1  0.14534361  0.41392776  0.09258519  1
  N  N50  1  0.88955265  0.53875645  0.85690758  1
  N  N51  1  0.81450842  0.40609450  0.59738650  1
  N  N52  1  0.55752974  0.53989717  0.36597076  1
  N  N53  1  0.44436907  0.43185504  0.12699095  1
  N  N54  1  0.19104212  0.55594354  0.83667343  1
  N  N55  1  0.09643630  0.45327692  0.59213641  1
  N  N56  1  0.88782362  0.54210164  0.36507861  1
  N  N57  1  0.75809295  0.41638074  0.08881448  1
  N  N58  1  0.56635903  0.55764805  0.84889133  1
  N  N59  1  0.42697882  0.40782317  0.59739833  1
  N  N60  1  0.21880421  0.87098915  0.34060346  1
  N  N61  1  0.11331673  0.75874816  0.09452910  1
  N  N62  1  0.89080669  0.87123415  0.85000614  1
  N  N63  1  0.77810100  0.75992726  0.60464274  1
  N  N64  1  0.56088186  0.86911043  0.34243500  1
  N  N65  1  0.44526400  0.76169604  0.10141180  1
  N  N66  1  0.22133262  0.87259776  0.84708097  1
  N  N67  1  0.10945744  0.76223468  0.59425901  1
  N  N68  1  0.90311012  0.83981613  0.33688418  1
  N  N69  1  0.75998160  0.79336653  0.08360591  1
  N  N70  1  0.55097370  0.87534125  0.84477703  1
  N  N71  1  0.42044654  0.80641074  0.58588214  1
