# generated using pymatgen
data_Gd5Al31N36
_symmetry_space_group_name_H-M   'P 1'
_cell_length_a   9.75964287
_cell_length_b   9.71929450
_cell_length_c   10.37922653
_cell_angle_alpha   90.00398483
_cell_angle_beta   90.03344429
_cell_angle_gamma   60.20434905
_symmetry_Int_Tables_number   1
_chemical_formula_structural   Gd5Al31N36
_chemical_formula_sum   'Gd5 Al31 N36'
_cell_volume   854.38734006
_cell_formula_units_Z   1
loop_
 _symmetry_equiv_pos_site_id
 _symmetry_equiv_pos_as_xyz
  1  'x, y, z'
loop_
 _atom_site_type_symbol
 _atom_site_label
 _atom_site_symmetry_multiplicity
 _atom_site_fract_x
 _atom_site_fract_y
 _atom_site_fract_z
 _atom_site_occupancy
  Al  Al0  1  0.12151639  0.09405256  0.29892421  1
  Al  Al1  1  0.22431359  0.20649096  0.05300339  1
  Al  Al2  1  0.77831920  0.09324713  0.87997145  1
  Al  Al3  1  0.89039104  0.19311893  0.62913473  1
  Al  Al4  1  0.44741896  0.09092267  0.37067278  1
  Al  Al5  1  0.54625925  0.20558210  0.11404026  1
  Al  Al6  1  0.11075123  0.08623951  0.82195284  1
  Al  Al7  1  0.88880435  0.20812208  0.09291634  1
  Al  Al8  1  0.45670917  0.07845459  0.87450219  1
  Al  Al9  1  0.57111459  0.18238738  0.63107258  1
  Al  Al10  1  0.12300930  0.41706482  0.31104998  1
  Al  Al11  1  0.21330436  0.54805431  0.06274222  1
  Al  Al12  1  0.78242662  0.43428872  0.81027015  1
  Al  Al13  1  0.89177075  0.54039283  0.55511917  1
  Al  Al14  1  0.42971624  0.43876067  0.28878673  1
  Al  Al15  1  0.55282235  0.55134462  0.05470928  1
  Al  Al16  1  0.09674617  0.44412956  0.80223847  1
  Al  Al17  1  0.22030118  0.53947316  0.55417740  1
  Al  Al18  1  0.77660900  0.43258157  0.29570114  1
  Al  Al19  1  0.11269739  0.75703730  0.31069999  1
  Al  Al20  1  0.22290015  0.87123876  0.05785736  1
  Al  Al21  1  0.78348103  0.76286422  0.80140311  1
  Al  Al22  1  0.89949108  0.85708558  0.56117977  1
  Al  Al23  1  0.43547832  0.76177239  0.30209471  1
  Al  Al24  1  0.54804240  0.88664029  0.13079076  1
  Al  Al25  1  0.10311200  0.76659411  0.80941821  1
  Al  Al26  1  0.21475626  0.87132431  0.55913808  1
  Al  Al27  1  0.78118133  0.75951327  0.31503646  1
  Al  Al28  1  0.89111907  0.87480456  0.06065652  1
  Al  Al29  1  0.43847234  0.76999138  0.80787298  1
  Al  Al30  1  0.56035313  0.87404053  0.62174439  1
  Gd  Gd31  1  0.22530388  0.19943156  0.58492005  1
  Gd  Gd32  1  0.77203685  0.10105847  0.35472553  1
  Gd  Gd33  1  0.89394568  0.54788980  0.06191214  1
  Gd  Gd34  1  0.43498969  0.42851323  0.83586589  1
  Gd  Gd35  1  0.55715423  0.53220259  0.55595069  1
  N  N36  1  0.22336833  0.20049366  0.36275376  1
  N  N37  1  0.11934740  0.09233563  0.10585521  1
  N  N38  1  0.88592363  0.20967365  0.85357366  1
  N  N39  1  0.78432696  0.08970878  0.58064551  1
  N  N40  1  0.51837905  0.21917657  0.29306837  1
  N  N41  1  0.44777488  0.08973052  0.05652966  1
  N  N42  1  0.21770458  0.21199626  0.85524932  1
  N  N43  1  0.10239025  0.06752340  0.63904718  1
  N  N44  1  0.90632873  0.21721450  0.31353805  1
  N  N45  1  0.77099908  0.10167414  0.07282327  1
  N  N46  1  0.57648288  0.16640687  0.81581129  1
  N  N47  1  0.48792108  0.07126835  0.55113593  1
  N  N48  1  0.22458508  0.53925550  0.36510210  1
  N  N49  1  0.14598867  0.40888238  0.12864470  1
  N  N50  1  0.88464069  0.54653785  0.84929182  1
  N  N51  1  0.80897322  0.41186060  0.62430500  1
  N  N52  1  0.55177220  0.53675521  0.33852206  1
  N  N53  1  0.43714022  0.44055722  0.09139317  1
  N  N54  1  0.17789695  0.56162855  0.88253817  1
  N  N55  1  0.09624733  0.45934522  0.61882302  1
  N  N56  1  0.88803011  0.53739662  0.36072962  1
  N  N57  1  0.76047114  0.42813971  0.11210649  1
  N  N58  1  0.56882391  0.55864422  0.86629210  1
  N  N59  1  0.42973011  0.40590556  0.61446046  1
  N  N60  1  0.21899901  0.87312804  0.36713573  1
  N  N61  1  0.10757249  0.76703221  0.12329657  1
  N  N62  1  0.89136022  0.86883056  0.87111977  1
  N  N63  1  0.78397902  0.75546845  0.61423991  1
  N  N64  1  0.54967523  0.87416451  0.31881654  1
  N  N65  1  0.43812158  0.76672966  0.11417014  1
  N  N66  1  0.22305553  0.86597078  0.87377228  1
  N  N67  1  0.11705229  0.75452271  0.62107612  1
  N  N68  1  0.90939748  0.83698449  0.37875250  1
  N  N69  1  0.76899028  0.79581777  0.13092158  1
  N  N70  1  0.55746265  0.87382833  0.81308578  1
  N  N71  1  0.42454938  0.78637195  0.61987059  1
