# generated using pymatgen
data_Gd5Al31N36
_symmetry_space_group_name_H-M   'P 1'
_cell_length_a   9.70891486
_cell_length_b   9.72060337
_cell_length_c   10.49636408
_cell_angle_alpha   90.13961511
_cell_angle_beta   90.39470116
_cell_angle_gamma   60.23377015
_symmetry_Int_Tables_number   1
_chemical_formula_structural   Gd5Al31N36
_chemical_formula_sum   'Gd5 Al31 N36'
_cell_volume   859.88638371
_cell_formula_units_Z   1
loop_
 _symmetry_equiv_pos_site_id
 _symmetry_equiv_pos_as_xyz
  1  'x, y, z'
loop_
 _atom_site_type_symbol
 _atom_site_label
 _atom_site_symmetry_multiplicity
 _atom_site_fract_x
 _atom_site_fract_y
 _atom_site_fract_z
 _atom_site_occupancy
  Al  Al0  1  0.12926322  0.08895640  0.30260527  1
  Al  Al1  1  0.22199803  0.20606624  0.06126505  1
  Al  Al2  1  0.77669442  0.09813669  0.88450725  1
  Al  Al3  1  0.88598709  0.19797253  0.64512461  1
  Al  Al4  1  0.45371349  0.08632501  0.37777282  1
  Al  Al5  1  0.54715957  0.20583647  0.12340935  1
  Al  Al6  1  0.10889349  0.08849576  0.82430887  1
  Al  Al7  1  0.88628124  0.20858542  0.12612206  1
  Al  Al8  1  0.45214237  0.08197179  0.88467791  1
  Al  Al9  1  0.56921147  0.18112517  0.63973998  1
  Al  Al10  1  0.13513513  0.41468614  0.31553891  1
  Al  Al11  1  0.21168219  0.54916746  0.07204024  1
  Al  Al12  1  0.77499927  0.42947192  0.88251278  1
  Al  Al13  1  0.88228541  0.54445761  0.64079505  1
  Al  Al14  1  0.43925969  0.43751321  0.30094656  1
  Al  Al15  1  0.54589908  0.55144303  0.05922046  1
  Al  Al16  1  0.09685548  0.44235937  0.82329020  1
  Al  Al17  1  0.21787679  0.53981355  0.56443470  1
  Al  Al18  1  0.80757756  0.41782442  0.38528057  1
  Al  Al19  1  0.11498832  0.75657278  0.31847289  1
  Al  Al20  1  0.22272286  0.87131633  0.06516037  1
  Al  Al21  1  0.76632730  0.77213589  0.88003665  1
  Al  Al22  1  0.90069894  0.85966401  0.57323177  1
  Al  Al23  1  0.44786180  0.75495802  0.30970239  1
  Al  Al24  1  0.55377238  0.88386885  0.13299707  1
  Al  Al25  1  0.10193122  0.76845355  0.81580000  1
  Al  Al26  1  0.21507507  0.87430922  0.56516680  1
  Al  Al27  1  0.78250151  0.74761220  0.39394773  1
  Al  Al28  1  0.89342420  0.87665822  0.06034631  1
  Al  Al29  1  0.43124973  0.77605385  0.81303995  1
  Al  Al30  1  0.56094122  0.87597559  0.63472921  1
  Gd  Gd31  1  0.21717379  0.20801189  0.58488800  1
  Gd  Gd32  1  0.77440352  0.10205009  0.36987938  1
  Gd  Gd33  1  0.88210305  0.54531406  0.12403391  1
  Gd  Gd34  1  0.42744849  0.42843102  0.84046305  1
  Gd  Gd35  1  0.55195362  0.53662032  0.57437506  1
  N  N36  1  0.22790564  0.19856550  0.36600128  1
  N  N37  1  0.12061231  0.08935255  0.11453803  1
  N  N38  1  0.87585564  0.21432180  0.82915958  1
  N  N39  1  0.78311425  0.08979609  0.58921928  1
  N  N40  1  0.52329412  0.21691493  0.30170875  1
  N  N41  1  0.44600098  0.09140475  0.06567006  1
  N  N42  1  0.21286459  0.21344880  0.86858261  1
  N  N43  1  0.10309244  0.06999936  0.64338937  1
  N  N44  1  0.90697458  0.22066599  0.30661785  1
  N  N45  1  0.77329884  0.10176809  0.07867053  1
  N  N46  1  0.57277255  0.16713350  0.82352475  1
  N  N47  1  0.48484925  0.07115596  0.55801217  1
  N  N48  1  0.23083682  0.53816824  0.37516405  1
  N  N49  1  0.14759973  0.40807913  0.13301932  1
  N  N50  1  0.87086496  0.54886222  0.83204011  1
  N  N51  1  0.82187775  0.40013607  0.57077578  1
  N  N52  1  0.56677767  0.53157234  0.35551946  1
  N  N53  1  0.43683684  0.44113925  0.10531525  1
  N  N54  1  0.17305137  0.56685977  0.89549886  1
  N  N55  1  0.09916451  0.46146740  0.64232381  1
  N  N56  1  0.90309549  0.53601845  0.33996316  1
  N  N57  1  0.76597079  0.41209038  0.06099985  1
  N  N58  1  0.55208403  0.56605967  0.86901914  1
  N  N59  1  0.42882203  0.40368884  0.62252600  1
  N  N60  1  0.22588049  0.87110999  0.37405311  1
  N  N61  1  0.10574250  0.76731682  0.13254394  1
  N  N62  1  0.89299661  0.87665886  0.87179256  1
  N  N63  1  0.77290929  0.75307343  0.57986211  1
  N  N64  1  0.56780248  0.86803868  0.31864630  1
  N  N65  1  0.44077586  0.76311691  0.12409099  1
  N  N66  1  0.21884907  0.87153238  0.88210793  1
  N  N67  1  0.11928073  0.75458576  0.62920034  1
  N  N68  1  0.91263138  0.84015024  0.38773761  1
  N  N69  1  0.75544965  0.79437484  0.06190613  1
  N  N70  1  0.55399368  0.87813939  0.81909351  1
  N  N71  1  0.42239395  0.79111538  0.62906978  1
