# generated using pymatgen
data_Gd5Al31N36
_symmetry_space_group_name_H-M   'P 1'
_cell_length_a   9.76079505
_cell_length_b   9.72080969
_cell_length_c   10.37258350
_cell_angle_alpha   89.97268484
_cell_angle_beta   90.00706500
_cell_angle_gamma   60.18012374
_symmetry_Int_Tables_number   1
_chemical_formula_structural   Gd5Al31N36
_chemical_formula_sum   'Gd5 Al31 N36'
_cell_volume   853.86758324
_cell_formula_units_Z   1
loop_
 _symmetry_equiv_pos_site_id
 _symmetry_equiv_pos_as_xyz
  1  'x, y, z'
loop_
 _atom_site_type_symbol
 _atom_site_label
 _atom_site_symmetry_multiplicity
 _atom_site_fract_x
 _atom_site_fract_y
 _atom_site_fract_z
 _atom_site_occupancy
  Al  Al0  1  0.11939139  0.09559436  0.29993906  1
  Al  Al1  1  0.22396451  0.20649086  0.05356087  1
  Al  Al2  1  0.77805952  0.09241953  0.87895235  1
  Al  Al3  1  0.89246389  0.19415789  0.61015834  1
  Al  Al4  1  0.44753103  0.09097577  0.37057940  1
  Al  Al5  1  0.54590014  0.20574258  0.11405913  1
  Al  Al6  1  0.10921392  0.08707323  0.82147784  1
  Al  Al7  1  0.88845284  0.20931552  0.07353146  1
  Al  Al8  1  0.45641869  0.07854120  0.87448437  1
  Al  Al9  1  0.57109888  0.18259546  0.63066498  1
  Al  Al10  1  0.12312232  0.41705977  0.31123308  1
  Al  Al11  1  0.21323888  0.54816421  0.06279543  1
  Al  Al12  1  0.78353610  0.43271395  0.81045228  1
  Al  Al13  1  0.89200450  0.54051300  0.55494180  1
  Al  Al14  1  0.42979100  0.43886006  0.28900035  1
  Al  Al15  1  0.55338312  0.55076228  0.05554381  1
  Al  Al16  1  0.09681347  0.44406825  0.80242788  1
  Al  Al17  1  0.22027087  0.53958237  0.55411868  1
  Al  Al18  1  0.77787857  0.43044924  0.29684569  1
  Al  Al19  1  0.11290275  0.75691612  0.31085270  1
  Al  Al20  1  0.22245530  0.87175683  0.05837250  1
  Al  Al21  1  0.78351173  0.76251901  0.80150170  1
  Al  Al22  1  0.89930806  0.85712279  0.56092545  1
  Al  Al23  1  0.43539702  0.76193914  0.30225346  1
  Al  Al24  1  0.54802590  0.88666685  0.13085329  1
  Al  Al25  1  0.10321403  0.76662002  0.80941162  1
  Al  Al26  1  0.21470759  0.87119334  0.55919641  1
  Al  Al27  1  0.78124092  0.75938551  0.31517298  1
  Al  Al28  1  0.89109391  0.87468137  0.06074968  1
  Al  Al29  1  0.43858007  0.76995813  0.80834170  1
  Al  Al30  1  0.56032823  0.87406107  0.62182102  1
  Gd  Gd31  1  0.22561527  0.19946357  0.58480017  1
  Gd  Gd32  1  0.77266317  0.09986020  0.35131924  1
  Gd  Gd33  1  0.89361886  0.54759617  0.06253905  1
  Gd  Gd34  1  0.43506062  0.42868540  0.83601791  1
  Gd  Gd35  1  0.55706760  0.53240178  0.55592933  1
  N  N36  1  0.22396790  0.20040940  0.36261947  1
  N  N37  1  0.11696576  0.09377212  0.10759203  1
  N  N38  1  0.88754720  0.21067973  0.86667961  1
  N  N39  1  0.78388205  0.08918224  0.58034192  1
  N  N40  1  0.51785282  0.21964885  0.29309304  1
  N  N41  1  0.44745585  0.08981253  0.05657865  1
  N  N42  1  0.21753365  0.21183323  0.85522243  1
  N  N43  1  0.10107619  0.06815852  0.63949685  1
  N  N44  1  0.90703331  0.21868697  0.33098907  1
  N  N45  1  0.77065053  0.10111606  0.07375676  1
  N  N46  1  0.57633286  0.16655383  0.81559348  1
  N  N47  1  0.48779044  0.07131599  0.55133876  1
  N  N48  1  0.22463856  0.53923924  0.36513027  1
  N  N49  1  0.14580101  0.40914527  0.12858435  1
  N  N50  1  0.88469805  0.54624864  0.84957171  1
  N  N51  1  0.80939408  0.41126088  0.62543142  1
  N  N52  1  0.55158485  0.53706018  0.33856734  1
  N  N53  1  0.43713166  0.44059450  0.09130872  1
  N  N54  1  0.17796186  0.56166443  0.88246928  1
  N  N55  1  0.09638129  0.45925342  0.61885943  1
  N  N56  1  0.88795715  0.53775258  0.36071844  1
  N  N57  1  0.76185606  0.42547901  0.11390969  1
  N  N58  1  0.56955690  0.55816684  0.86670634  1
  N  N59  1  0.42972990  0.40616961  0.61440382  1
  N  N60  1  0.21896544  0.87318061  0.36731135  1
  N  N61  1  0.10756770  0.76704355  0.12329918  1
  N  N62  1  0.89142276  0.86866934  0.87093505  1
  N  N63  1  0.78393304  0.75532172  0.61430371  1
  N  N64  1  0.54976410  0.87418175  0.31890750  1
  N  N65  1  0.43815362  0.76679402  0.11410948  1
  N  N66  1  0.22273420  0.86653664  0.87393116  1
  N  N67  1  0.11698897  0.75459789  0.62114279  1
  N  N68  1  0.90982516  0.83626049  0.37881624  1
  N  N69  1  0.76899230  0.79563305  0.13083668  1
  N  N70  1  0.55749808  0.87381510  0.81323271  1
  N  N71  1  0.42433023  0.78652586  0.62013565  1
