# generated using pymatgen
data_Gd5Al31N36
_symmetry_space_group_name_H-M   'P 1'
_cell_length_a   9.70912496
_cell_length_b   9.72069281
_cell_length_c   10.49580679
_cell_angle_alpha   90.13880482
_cell_angle_beta   90.39408837
_cell_angle_gamma   60.23451206
_symmetry_Int_Tables_number   1
_chemical_formula_structural   Gd5Al31N36
_chemical_formula_sum   'Gd5 Al31 N36'
_cell_volume   859.87366826
_cell_formula_units_Z   1
loop_
 _symmetry_equiv_pos_site_id
 _symmetry_equiv_pos_as_xyz
  1  'x, y, z'
loop_
 _atom_site_type_symbol
 _atom_site_label
 _atom_site_symmetry_multiplicity
 _atom_site_fract_x
 _atom_site_fract_y
 _atom_site_fract_z
 _atom_site_occupancy
  Al  Al0  1  0.12923468  0.08898481  0.29428167  1
  Al  Al1  1  0.22199248  0.20607591  0.05293255  1
  Al  Al2  1  0.77668604  0.09814692  0.87617243  1
  Al  Al3  1  0.88597185  0.19799443  0.63678103  1
  Al  Al4  1  0.45368557  0.08634964  0.36943978  1
  Al  Al5  1  0.54713972  0.20585478  0.11507683  1
  Al  Al6  1  0.10887595  0.08851089  0.81597551  1
  Al  Al7  1  0.88626341  0.20860572  0.11778700  1
  Al  Al8  1  0.45213615  0.08197904  0.87634174  1
  Al  Al9  1  0.56919885  0.18114653  0.63140558  1
  Al  Al10  1  0.13510260  0.41470816  0.30721055  1
  Al  Al11  1  0.21166853  0.54918581  0.06371229  1
  Al  Al12  1  0.77497820  0.42948565  0.87417272  1
  Al  Al13  1  0.88226610  0.54447625  0.63245864  1
  Al  Al14  1  0.43923206  0.43753483  0.29262305  1
  Al  Al15  1  0.54588206  0.55146476  0.05089194  1
  Al  Al16  1  0.09684126  0.44237885  0.81495631  1
  Al  Al17  1  0.21785534  0.53983604  0.55610425  1
  Al  Al18  1  0.80753868  0.41785649  0.37693893  1
  Al  Al19  1  0.11496517  0.75659293  0.31014052  1
  Al  Al20  1  0.22270406  0.87133686  0.05683094  1
  Al  Al21  1  0.76631330  0.77215681  0.87170140  1
  Al  Al22  1  0.90067800  0.85968506  0.56489630  1
  Al  Al23  1  0.44783326  0.75498227  0.30137640  1
  Al  Al24  1  0.55375849  0.88387956  0.12466612  1
  Al  Al25  1  0.10191840  0.76846915  0.80746596  1
  Al  Al26  1  0.21505262  0.87433410  0.55682886  1
  Al  Al27  1  0.78247814  0.74763191  0.38560064  1
  Al  Al28  1  0.89340814  0.87667483  0.05202226  1
  Al  Al29  1  0.43123118  0.77607351  0.80470639  1
  Al  Al30  1  0.56092780  0.87599102  0.62638825  1
  Gd  Gd31  1  0.21717857  0.20802489  0.57658082  1
  Gd  Gd32  1  0.77438065  0.10206453  0.36152938  1
  Gd  Gd33  1  0.88211090  0.54531572  0.11566077  1
  Gd  Gd34  1  0.42743761  0.42843352  0.83215332  1
  Gd  Gd35  1  0.55193008  0.53664164  0.56606442  1
  N  N36  1  0.22788098  0.19858826  0.35767880  1
  N  N37  1  0.12059037  0.08937596  0.10620145  1
  N  N38  1  0.87584585  0.21433456  0.82082986  1
  N  N39  1  0.78309734  0.08981810  0.58088185  1
  N  N40  1  0.52326657  0.21694176  0.29338209  1
  N  N41  1  0.44598767  0.09141639  0.05734093  1
  N  N42  1  0.21286051  0.21345988  0.86023647  1
  N  N43  1  0.10306983  0.07002468  0.63504605  1
  N  N44  1  0.90695189  0.22068900  0.29829107  1
  N  N45  1  0.77328370  0.10178176  0.07034982  1
  N  N46  1  0.57276813  0.16714140  0.81519754  1
  N  N47  1  0.48484018  0.07117457  0.54968313  1
  N  N48  1  0.23080733  0.53819048  0.36682872  1
  N  N49  1  0.14759939  0.40808527  0.12468389  1
  N  N50  1  0.87085635  0.54887522  0.82372366  1
  N  N51  1  0.82184413  0.40016828  0.56244630  1
  N  N52  1  0.56674282  0.53159842  0.34719247  1
  N  N53  1  0.43681973  0.44115779  0.09697550  1
  N  N54  1  0.17303778  0.56687680  0.88716194  1
  N  N55  1  0.09913624  0.46149125  0.63398210  1
  N  N56  1  0.90306070  0.53604374  0.33160670  1
  N  N57  1  0.76594237  0.41211119  0.05267015  1
  N  N58  1  0.55206968  0.56607099  0.86066676  1
  N  N59  1  0.42879372  0.40370719  0.61420064  1
  N  N60  1  0.22585242  0.87113350  0.36571426  1
  N  N61  1  0.10572709  0.76733338  0.12420745  1
  N  N62  1  0.89298565  0.87667328  0.86345819  1
  N  N63  1  0.77289301  0.75309130  0.57152897  1
  N  N64  1  0.56777147  0.86806319  0.31032055  1
  N  N65  1  0.44075477  0.76313773  0.11575340  1
  N  N66  1  0.21883417  0.87154862  0.87377135  1
  N  N67  1  0.11925885  0.75460939  0.62086116  1
  N  N68  1  0.91260637  0.84016924  0.37939322  1
  N  N69  1  0.75543496  0.79439343  0.05358239  1
  N  N70  1  0.55398326  0.87814761  0.81076309  1
  N  N71  1  0.42236946  0.79114672  0.62072698  1
