# generated using pymatgen
data_Gd5Al31N36
_symmetry_space_group_name_H-M   'P 1'
_cell_length_a   9.73556567
_cell_length_b   9.73752933
_cell_length_c   10.43302685
_cell_angle_alpha   90.19295035
_cell_angle_beta   90.42409070
_cell_angle_gamma   60.19542996
_symmetry_Int_Tables_number   1
_chemical_formula_structural   Gd5Al31N36
_chemical_formula_sum   'Gd5 Al31 N36'
_cell_volume   858.20469365
_cell_formula_units_Z   1
loop_
 _symmetry_equiv_pos_site_id
 _symmetry_equiv_pos_as_xyz
  1  'x, y, z'
loop_
 _atom_site_type_symbol
 _atom_site_label
 _atom_site_symmetry_multiplicity
 _atom_site_fract_x
 _atom_site_fract_y
 _atom_site_fract_z
 _atom_site_occupancy
  Al  Al0  1  0.12796102  0.09028614  0.31906289  1
  Al  Al1  1  0.22303187  0.20515422  0.07750218  1
  Al  Al2  1  0.77805878  0.09684890  0.90040109  1
  Al  Al3  1  0.88612383  0.19854000  0.66119861  1
  Al  Al4  1  0.45298007  0.08686739  0.39449571  1
  Al  Al5  1  0.54737324  0.20461711  0.14037933  1
  Al  Al6  1  0.10941893  0.08784726  0.84097841  1
  Al  Al7  1  0.88612696  0.20864299  0.14135172  1
  Al  Al8  1  0.45341815  0.08084999  0.90069410  1
  Al  Al9  1  0.56925204  0.18216239  0.65623476  1
  Al  Al10  1  0.13310627  0.41514323  0.33238550  1
  Al  Al11  1  0.21146460  0.54915771  0.08901075  1
  Al  Al12  1  0.77412850  0.42962304  0.89710734  1
  Al  Al13  1  0.88246227  0.54454267  0.65731600  1
  Al  Al14  1  0.43791914  0.43699589  0.32006388  1
  Al  Al15  1  0.54655123  0.54990771  0.08181651  1
  Al  Al16  1  0.09822298  0.44214771  0.83979401  1
  Al  Al17  1  0.21770491  0.53996936  0.58171107  1
  Al  Al18  1  0.80527573  0.41948797  0.40111237  1
  Al  Al19  1  0.11422529  0.75677500  0.33502321  1
  Al  Al20  1  0.22318430  0.87083339  0.08136006  1
  Al  Al21  1  0.76701434  0.77225966  0.89600203  1
  Al  Al22  1  0.90041316  0.86024778  0.58978704  1
  Al  Al23  1  0.44637275  0.75613784  0.32834687  1
  Al  Al24  1  0.55423772  0.88283745  0.15002269  1
  Al  Al25  1  0.10323140  0.76769253  0.83190229  1
  Al  Al26  1  0.21398776  0.87555392  0.58050313  1
  Al  Al27  1  0.78218249  0.74784695  0.40936079  1
  Al  Al28  1  0.89372527  0.87636503  0.07759397  1
  Al  Al29  1  0.43180544  0.77614431  0.82753886  1
  Al  Al30  1  0.56151712  0.87653927  0.64985348  1
  Gd  Gd31  1  0.21866830  0.20730142  0.60345573  1
  Gd  Gd32  1  0.77476193  0.10221741  0.38518752  1
  Gd  Gd33  1  0.88376061  0.54386092  0.13634187  1
  Gd  Gd34  1  0.42969091  0.42633769  0.86084609  1
  Gd  Gd35  1  0.55170182  0.53710379  0.59536249  1
  N  N36  1  0.22738488  0.19883576  0.38270822  1
  N  N37  1  0.12020005  0.08962901  0.12954970  1
  N  N38  1  0.87722726  0.21328354  0.84668092  1
  N  N39  1  0.78307547  0.09053439  0.60582703  1
  N  N40  1  0.52316368  0.21682669  0.31940436  1
  N  N41  1  0.44638865  0.09032814  0.08274352  1
  N  N42  1  0.21455972  0.21246509  0.88369447  1
  N  N43  1  0.10232847  0.07085179  0.65895173  1
  N  N44  1  0.90632423  0.22190501  0.32265675  1
  N  N45  1  0.77345647  0.10124502  0.09612478  1
  N  N46  1  0.57437687  0.16555598  0.84064729  1
  N  N47  1  0.48529101  0.07211759  0.57500176  1
  N  N48  1  0.22908174  0.53844770  0.39170870  1
  N  N49  1  0.14838682  0.40729958  0.14886097  1
  N  N50  1  0.87279332  0.54792247  0.85077006  1
  N  N51  1  0.82097005  0.40127493  0.58771747  1
  N  N52  1  0.56501003  0.53204180  0.37200218  1
  N  N53  1  0.43648500  0.44020247  0.12194208  1
  N  N54  1  0.17440966  0.56655337  0.91135592  1
  N  N55  1  0.09849581  0.46172576  0.65797863  1
  N  N56  1  0.90115456  0.53675882  0.35428201  1
  N  N57  1  0.76407643  0.41256303  0.07687851  1
  N  N58  1  0.55402386  0.56400006  0.87649623  1
  N  N59  1  0.42785347  0.40416823  0.64027582  1
  N  N60  1  0.22376364  0.87240188  0.38947596  1
  N  N61  1  0.10620865  0.76710523  0.14853600  1
  N  N62  1  0.89424472  0.87569991  0.88796817  1
  N  N63  1  0.77360743  0.75321162  0.59668755  1
  N  N64  1  0.56656305  0.86841942  0.33629488  1
  N  N65  1  0.44070881  0.76294679  0.14078859  1
  N  N66  1  0.22034789  0.87046130  0.89753028  1
  N  N67  1  0.11917334  0.75524045  0.64478572  1
  N  N68  1  0.91156000  0.84064694  0.40306707  1
  N  N69  1  0.75588732  0.79453036  0.07934166  1
  N  N70  1  0.55493298  0.87710328  0.83533162  1
  N  N71  1  0.42157111  0.79427755  0.64214280  1
