# generated using pymatgen
data_Gd5Al31N36
_symmetry_space_group_name_H-M   'P 1'
_cell_length_a   9.76206009
_cell_length_b   9.75984480
_cell_length_c   10.35722293
_cell_angle_alpha   90.41152782
_cell_angle_beta   90.73438745
_cell_angle_gamma   59.99135968
_symmetry_Int_Tables_number   1
_chemical_formula_structural   Gd5Al31N36
_chemical_formula_sum   'Gd5 Al31 N36'
_cell_volume   854.44611075
_cell_formula_units_Z   1
loop_
 _symmetry_equiv_pos_site_id
 _symmetry_equiv_pos_as_xyz
  1  'x, y, z'
loop_
 _atom_site_type_symbol
 _atom_site_label
 _atom_site_symmetry_multiplicity
 _atom_site_fract_x
 _atom_site_fract_y
 _atom_site_fract_z
 _atom_site_occupancy
  Al  Al0  1  0.12562136  0.09160272  0.31619944  1
  Al  Al1  1  0.22387303  0.20359462  0.07697670  1
  Al  Al2  1  0.78122444  0.08938628  0.89750638  1
  Al  Al3  1  0.88313775  0.20283451  0.66519267  1
  Al  Al4  1  0.45284715  0.08696612  0.39556969  1
  Al  Al5  1  0.54972462  0.19988144  0.14128570  1
  Al  Al6  1  0.11031747  0.08634038  0.84270215  1
  Al  Al7  1  0.88568659  0.20759033  0.13642880  1
  Al  Al8  1  0.45285616  0.08161758  0.90006594  1
  Al  Al9  1  0.56197357  0.18961635  0.66029375  1
  Al  Al10  1  0.12868639  0.41624143  0.33212138  1
  Al  Al11  1  0.21322344  0.54690529  0.08862868  1
  Al  Al12  1  0.76882941  0.43361542  0.89494062  1
  Al  Al13  1  0.88061240  0.54452218  0.65875202  1
  Al  Al14  1  0.43115527  0.42972082  0.32536799  1
  Al  Al15  1  0.55727586  0.53710985  0.15206864  1
  Al  Al16  1  0.10363941  0.43982415  0.84002183  1
  Al  Al17  1  0.21497818  0.54093833  0.58468443  1
  Al  Al18  1  0.80961597  0.41728199  0.39955556  1
  Al  Al19  1  0.11431658  0.75649294  0.33336723  1
  Al  Al20  1  0.22869893  0.86668147  0.07935739  1
  Al  Al21  1  0.76877531  0.77289302  0.89270330  1
  Al  Al22  1  0.88904240  0.86950401  0.64299517  1
  Al  Al23  1  0.43953390  0.76819192  0.33432902  1
  Al  Al24  1  0.55520090  0.88116916  0.15068274  1
  Al  Al25  1  0.11166414  0.76154736  0.83198937  1
  Al  Al26  1  0.20840760  0.87874650  0.57847652  1
  Al  Al27  1  0.78600654  0.75085199  0.40903147  1
  Al  Al28  1  0.88957641  0.87772569  0.11477924  1
  Al  Al29  1  0.43593235  0.77434823  0.81838332  1
  Al  Al30  1  0.56050688  0.87891528  0.64602363  1
  Gd  Gd31  1  0.21689734  0.20609404  0.60423714  1
  Gd  Gd32  1  0.77787676  0.10117861  0.39544316  1
  Gd  Gd33  1  0.88404236  0.54332537  0.12927528  1
  Gd  Gd34  1  0.44562575  0.43021759  0.87432421  1
  Gd  Gd35  1  0.54867446  0.53931779  0.59836192  1
  N  N36  1  0.22649188  0.19869983  0.38087963  1
  N  N37  1  0.12036234  0.08833057  0.12559563  1
  N  N38  1  0.87866957  0.21205525  0.85209244  1
  N  N39  1  0.77846750  0.09474426  0.61425700  1
  N  N40  1  0.52783521  0.21126235  0.32177627  1
  N  N41  1  0.44683692  0.08829447  0.08401925  1
  N  N42  1  0.21594955  0.21013213  0.88271717  1
  N  N43  1  0.09800979  0.07260138  0.65931976  1
  N  N44  1  0.90483224  0.22163928  0.31894877  1
  N  N45  1  0.77583147  0.09754301  0.09152126  1
  N  N46  1  0.57178724  0.16934741  0.84510613  1
  N  N47  1  0.48340664  0.07642338  0.57662633  1
  N  N48  1  0.22498904  0.53861820  0.39313663  1
  N  N49  1  0.14746878  0.40723547  0.14710390  1
  N  N50  1  0.87764632  0.54535146  0.85641399  1
  N  N51  1  0.82002336  0.40163794  0.58443375  1
  N  N52  1  0.56403017  0.53123150  0.35075060  1
  N  N53  1  0.43646380  0.43608880  0.12742061  1
  N  N54  1  0.18393607  0.56213135  0.90931234  1
  N  N55  1  0.09617685  0.46125660  0.65750947  1
  N  N56  1  0.89874769  0.53808015  0.35143087  1
  N  N57  1  0.75415079  0.41670538  0.07683792  1
  N  N58  1  0.56910783  0.55786617  0.82489771  1
  N  N59  1  0.42401766  0.40814898  0.64322502  1
  N  N60  1  0.21835828  0.87569236  0.38771782  1
  N  N61  1  0.11270464  0.76406532  0.14422650  1
  N  N62  1  0.88990967  0.87290885  0.84911915  1
  N  N63  1  0.77609658  0.75559472  0.59748578  1
  N  N64  1  0.56632544  0.86911537  0.33898937  1
  N  N65  1  0.44243154  0.76255734  0.14424255  1
  N  N66  1  0.22653998  0.86532888  0.89484958  1
  N  N67  1  0.11922092  0.75594071  0.64227600  1
  N  N68  1  0.90241023  0.84663184  0.36732956  1
  N  N69  1  0.75804855  0.79706796  0.07650371  1
  N  N70  1  0.55493230  0.87751036  0.83343053  1
  N  N71  1  0.41790350  0.80275980  0.63012403  1
