# generated using pymatgen
data_Gd5Al31N36
_symmetry_space_group_name_H-M   'P 1'
_cell_length_a   9.73947653
_cell_length_b   9.70880070
_cell_length_c   10.44126704
_cell_angle_alpha   90.15888728
_cell_angle_beta   90.30624158
_cell_angle_gamma   60.22576119
_symmetry_Int_Tables_number   1
_chemical_formula_structural   Gd5Al31N36
_chemical_formula_sum   'Gd5 Al31 N36'
_cell_volume   856.96350063
_cell_formula_units_Z   1
loop_
 _symmetry_equiv_pos_site_id
 _symmetry_equiv_pos_as_xyz
  1  'x, y, z'
loop_
 _atom_site_type_symbol
 _atom_site_label
 _atom_site_symmetry_multiplicity
 _atom_site_fract_x
 _atom_site_fract_y
 _atom_site_fract_z
 _atom_site_occupancy
  Al  Al0  1  0.12596259  0.09169240  0.29656999  1
  Al  Al1  1  0.22456891  0.20624699  0.05195895  1
  Al  Al2  1  0.77756239  0.09339013  0.87858110  1
  Al  Al3  1  0.88848794  0.19334730  0.64430719  1
  Al  Al4  1  0.44842423  0.09104434  0.37131310  1
  Al  Al5  1  0.55018929  0.20361491  0.11448112  1
  Al  Al6  1  0.11250326  0.08401005  0.82035020  1
  Al  Al7  1  0.88982465  0.20658342  0.11408137  1
  Al  Al8  1  0.45615397  0.07708757  0.87524722  1
  Al  Al9  1  0.56993644  0.18048369  0.63400922  1
  Al  Al10  1  0.12498704  0.41784182  0.30911489  1
  Al  Al11  1  0.21462148  0.54748104  0.06278793  1
  Al  Al12  1  0.77818019  0.43398367  0.81868389  1
  Al  Al13  1  0.89176087  0.53974080  0.55246302  1
  Al  Al14  1  0.43087299  0.43813259  0.28773749  1
  Al  Al15  1  0.55185662  0.55154434  0.05548366  1
  Al  Al16  1  0.09450904  0.44247822  0.80208049  1
  Al  Al17  1  0.22095385  0.53833671  0.55453375  1
  Al  Al18  1  0.77755806  0.43707480  0.29293516  1
  Al  Al19  1  0.11181374  0.75910912  0.31072758  1
  Al  Al20  1  0.22326624  0.87053449  0.05692965  1
  Al  Al21  1  0.78276561  0.76084251  0.80073618  1
  Al  Al22  1  0.89953484  0.85644342  0.56360936  1
  Al  Al23  1  0.43645858  0.76156126  0.30170223  1
  Al  Al24  1  0.54724292  0.88806463  0.13148274  1
  Al  Al25  1  0.10175657  0.76542751  0.80969270  1
  Al  Al26  1  0.21494112  0.87039395  0.55951683  1
  Al  Al27  1  0.78123114  0.76453290  0.31380182  1
  Al  Al28  1  0.89048835  0.87810388  0.06007503  1
  Al  Al29  1  0.43715748  0.76920896  0.80659822  1
  Al  Al30  1  0.55936861  0.87345686  0.62191335  1
  Gd  Gd31  1  0.22143262  0.20020028  0.58186528  1
  Gd  Gd32  1  0.77069779  0.10930030  0.36893664  1
  Gd  Gd33  1  0.89599221  0.55210840  0.06265058  1
  Gd  Gd34  1  0.43172192  0.42827309  0.83416798  1
  Gd  Gd35  1  0.55793885  0.53068320  0.55435401  1
  N  N36  1  0.22342383  0.20160174  0.36145677  1
  N  N37  1  0.12198120  0.09029766  0.10453003  1
  N  N38  1  0.88213202  0.20747787  0.83437304  1
  N  N39  1  0.78474278  0.08785698  0.58777514  1
  N  N40  1  0.52269149  0.21688522  0.29332295  1
  N  N41  1  0.44845991  0.08999733  0.05622746  1
  N  N42  1  0.21642277  0.21110449  0.85591619  1
  N  N43  1  0.10335979  0.06574914  0.63834496  1
  N  N44  1  0.90694720  0.21705664  0.29977472  1
  N  N45  1  0.77286117  0.10494875  0.06788863  1
  N  N46  1  0.57389757  0.16630456  0.81686073  1
  N  N47  1  0.48619008  0.07098671  0.55125519  1
  N  N48  1  0.22570533  0.54020709  0.36550631  1
  N  N49  1  0.14847797  0.40773433  0.12854932  1
  N  N50  1  0.88265304  0.54478921  0.85052241  1
  N  N51  1  0.81038329  0.40974705  0.61423448  1
  N  N52  1  0.55487448  0.53553266  0.33663992  1
  N  N53  1  0.43801109  0.43976862  0.09308740  1
  N  N54  1  0.17531033  0.56073987  0.88383665  1
  N  N55  1  0.09569651  0.45979064  0.61970753  1
  N  N56  1  0.89098232  0.54012735  0.35625768  1
  N  N57  1  0.76308293  0.42990116  0.10671199  1
  N  N58  1  0.56415873  0.55916939  0.86816713  1
  N  N59  1  0.43085213  0.40382331  0.61438149  1
  N  N60  1  0.21995870  0.87342676  0.36741794  1
  N  N61  1  0.10742069  0.76699850  0.12369450  1
  N  N62  1  0.89006171  0.86780165  0.87116758  1
  N  N63  1  0.78370510  0.75426488  0.61406865  1
  N  N64  1  0.54972470  0.87489210  0.31854133  1
  N  N65  1  0.43810075  0.76676963  0.11501769  1
  N  N66  1  0.22229905  0.86476918  0.87374141  1
  N  N67  1  0.11783553  0.75287939  0.62189616  1
  N  N68  1  0.90755257  0.84391021  0.38026177  1
  N  N69  1  0.76787227  0.80088303  0.13165634  1
  N  N70  1  0.55669181  0.87285012  0.81245142  1
  N  N71  1  0.42503695  0.78426823  0.62002011  1
