# generated using pymatgen
data_Gd5Al31N36
_symmetry_space_group_name_H-M   'P 1'
_cell_length_a   9.74300361
_cell_length_b   9.76366246
_cell_length_c   10.19797087
_cell_angle_alpha   89.82419986
_cell_angle_beta   89.66615427
_cell_angle_gamma   60.02871053
_symmetry_Int_Tables_number   1
_chemical_formula_structural   Gd5Al31N36
_chemical_formula_sum   'Gd5 Al31 N36'
_cell_volume   840.36549334
_cell_formula_units_Z   1
loop_
 _symmetry_equiv_pos_site_id
 _symmetry_equiv_pos_as_xyz
  1  'x, y, z'
loop_
 _atom_site_type_symbol
 _atom_site_label
 _atom_site_symmetry_multiplicity
 _atom_site_fract_x
 _atom_site_fract_y
 _atom_site_fract_z
 _atom_site_occupancy
  Al  Al0  1  0.11307619  0.09694181  0.30399838  1
  Al  Al1  1  0.22343705  0.20429189  0.05442517  1
  Al  Al2  1  0.79009916  0.08569218  0.81800046  1
  Al  Al3  1  0.89879973  0.20038879  0.56592413  1
  Al  Al4  1  0.43550171  0.09358467  0.29301254  1
  Al  Al5  1  0.55412040  0.20265656  0.08946768  1
  Al  Al6  1  0.10998311  0.08783672  0.81499767  1
  Al  Al7  1  0.88699884  0.20307041  0.05418085  1
  Al  Al8  1  0.45386878  0.07905750  0.82082830  1
  Al  Al9  1  0.56532875  0.19232822  0.62459028  1
  Al  Al10  1  0.12115213  0.42209275  0.30857165  1
  Al  Al11  1  0.21019142  0.55012606  0.06423240  1
  Al  Al12  1  0.78837965  0.42700973  0.80697541  1
  Al  Al13  1  0.89071848  0.54229349  0.55606026  1
  Al  Al14  1  0.43322539  0.43776213  0.29039700  1
  Al  Al15  1  0.55718426  0.54591066  0.06319630  1
  Al  Al16  1  0.09955817  0.44111829  0.80390250  1
  Al  Al17  1  0.21887490  0.54115027  0.55436817  1
  Al  Al18  1  0.78059471  0.42514207  0.30791587  1
  Al  Al19  1  0.11253371  0.75757153  0.31257217  1
  Al  Al20  1  0.22012443  0.87311051  0.06167848  1
  Al  Al21  1  0.77554563  0.76136567  0.80322747  1
  Al  Al22  1  0.89795597  0.85838943  0.56683807  1
  Al  Al23  1  0.44089691  0.76653239  0.30446225  1
  Al  Al24  1  0.55334904  0.87655680  0.05893649  1
  Al  Al25  1  0.10614149  0.76432148  0.81057222  1
  Al  Al26  1  0.21739102  0.87274854  0.56204096  1
  Al  Al27  1  0.77575145  0.76360514  0.31587571  1
  Al  Al28  1  0.88571990  0.87892421  0.05453971  1
  Al  Al29  1  0.44473434  0.77097814  0.81398832  1
  Al  Al30  1  0.55953019  0.87161527  0.55921900  1
  Gd  Gd31  1  0.22764612  0.20089491  0.57027406  1
  Gd  Gd32  1  0.77915328  0.09215438  0.32291522  1
  Gd  Gd33  1  0.88775522  0.54485438  0.06775701  1
  Gd  Gd34  1  0.43635003  0.43271380  0.84132556  1
  Gd  Gd35  1  0.55406727  0.53709689  0.56115171  1
  N  N36  1  0.22406158  0.20112611  0.34978217  1
  N  N37  1  0.10810159  0.09590927  0.11235266  1
  N  N38  1  0.88991924  0.20722255  0.86679383  1
  N  N39  1  0.78685029  0.08837899  0.61349855  1
  N  N40  1  0.52309010  0.22249949  0.30488163  1
  N  N41  1  0.43787227  0.09035510  0.10265584  1
  N  N42  1  0.22059989  0.20799212  0.85793516  1
  N  N43  1  0.09993435  0.07431196  0.63199267  1
  N  N44  1  0.90736274  0.21988528  0.37966080  1
  N  N45  1  0.78131527  0.09365793  0.09700422  1
  N  N46  1  0.57443029  0.17511655  0.85609553  1
  N  N47  1  0.47723484  0.06854049  0.63374119  1
  N  N48  1  0.22418112  0.54047919  0.36392709  1
  N  N49  1  0.14115565  0.41222317  0.12450980  1
  N  N50  1  0.88634735  0.54282699  0.85026390  1
  N  N51  1  0.80825881  0.41256142  0.62117418  1
  N  N52  1  0.55134372  0.54115265  0.34114892  1
  N  N53  1  0.43621745  0.44102152  0.09323176  1
  N  N54  1  0.17799381  0.56184343  0.88189565  1
  N  N55  1  0.09669604  0.45847553  0.61752466  1
  N  N56  1  0.88839803  0.53905524  0.35784404  1
  N  N57  1  0.76715958  0.40954944  0.12361119  1
  N  N58  1  0.57550206  0.55618324  0.86963895  1
  N  N59  1  0.42851236  0.40706898  0.61528659  1
  N  N60  1  0.21984003  0.87414666  0.36751104  1
  N  N61  1  0.10467793  0.76790390  0.12267408  1
  N  N62  1  0.88963382  0.86903074  0.86317321  1
  N  N63  1  0.77564514  0.75843786  0.61466740  1
  N  N64  1  0.55145103  0.87546181  0.36817701  1
  N  N65  1  0.44230046  0.76715729  0.11649936  1
  N  N66  1  0.22308608  0.86766929  0.87377440  1
  N  N67  1  0.11963198  0.75471105  0.62087991  1
  N  N68  1  0.90684054  0.83784045  0.38340765  1
  N  N69  1  0.76015815  0.79894456  0.13030367  1
  N  N70  1  0.56174765  0.86592747  0.87308587  1
  N  N71  1  0.42894076  0.79116815  0.62549266  1
