# generated using pymatgen
data_Gd5Al31N36
_symmetry_space_group_name_H-M   'P 1'
_cell_length_a   9.70972405
_cell_length_b   9.71720812
_cell_length_c   10.22104686
_cell_angle_alpha   90.24588491
_cell_angle_beta   90.21068895
_cell_angle_gamma   60.12296934
_symmetry_Int_Tables_number   1
_chemical_formula_structural   Gd5Al31N36
_chemical_formula_sum   'Gd5 Al31 N36'
_cell_volume   836.19300368
_cell_formula_units_Z   1
loop_
 _symmetry_equiv_pos_site_id
 _symmetry_equiv_pos_as_xyz
  1  'x, y, z'
loop_
 _atom_site_type_symbol
 _atom_site_label
 _atom_site_symmetry_multiplicity
 _atom_site_fract_x
 _atom_site_fract_y
 _atom_site_fract_z
 _atom_site_occupancy
  Al  Al0  1  0.11130474  0.09305840  0.38865762  1
  Al  Al1  1  0.22923749  0.20223932  0.14848004  1
  Al  Al2  1  0.78273344  0.08658956  0.89752330  1
  Al  Al3  1  0.89358784  0.19750297  0.65648521  1
  Al  Al4  1  0.45105256  0.08919970  0.39185884  1
  Al  Al5  1  0.55461460  0.20255818  0.14640092  1
  Al  Al6  1  0.11321923  0.09321685  0.90256945  1
  Al  Al7  1  0.88925731  0.20593321  0.13854969  1
  Al  Al8  1  0.44612783  0.08559248  0.90407706  1
  Al  Al9  1  0.56240327  0.19107946  0.65532106  1
  Al  Al10  1  0.10813039  0.43562883  0.40008204  1
  Al  Al11  1  0.22172307  0.54322142  0.15211175  1
  Al  Al12  1  0.77586104  0.42817721  0.89395428  1
  Al  Al13  1  0.89146849  0.54026980  0.65028464  1
  Al  Al14  1  0.43692660  0.42669697  0.37050935  1
  Al  Al15  1  0.55479773  0.54160220  0.15443073  1
  Al  Al16  1  0.11133640  0.42683729  0.89710794  1
  Al  Al17  1  0.20940320  0.54550329  0.64546090  1
  Al  Al18  1  0.79512919  0.42346278  0.40070958  1
  Al  Al19  1  0.11353663  0.75671592  0.39617710  1
  Al  Al20  1  0.22145849  0.87213008  0.14391174  1
  Al  Al21  1  0.77144574  0.76957164  0.89084569  1
  Al  Al22  1  0.89144724  0.86908487  0.65460825  1
  Al  Al23  1  0.43689127  0.77684292  0.39124116  1
  Al  Al24  1  0.55383166  0.87740928  0.14522615  1
  Al  Al25  1  0.10487337  0.76515619  0.89593738  1
  Al  Al26  1  0.21246960  0.87623850  0.64365618  1
  Al  Al27  1  0.77947084  0.75717344  0.40368704  1
  Al  Al28  1  0.88922561  0.87218324  0.14192990  1
  Al  Al29  1  0.44485928  0.76648746  0.89714286  1
  Al  Al30  1  0.55876170  0.87421226  0.64554921  1
  Gd  Gd31  1  0.22810619  0.19893383  0.63287594  1
  Gd  Gd32  1  0.78462629  0.09346206  0.39711211  1
  Gd  Gd33  1  0.88773345  0.54192351  0.13768936  1
  Gd  Gd34  1  0.43954441  0.42953833  0.89826332  1
  Gd  Gd35  1  0.55131957  0.54289555  0.62048190  1
  N  N36  1  0.22504594  0.20499499  0.34693549  1
  N  N37  1  0.11394447  0.09354036  0.09008354  1
  N  N38  1  0.89222193  0.20364360  0.84521130  1
  N  N39  1  0.78042851  0.09207552  0.61641117  1
  N  N40  1  0.53511287  0.21210374  0.32863839  1
  N  N41  1  0.44429061  0.09260965  0.09167026  1
  N  N42  1  0.22400819  0.20318348  0.85453539  1
  N  N43  1  0.08944769  0.07903138  0.57357804  1
  N  N44  1  0.90435419  0.22334117  0.32105412  1
  N  N45  1  0.77966957  0.09314999  0.09336793  1
  N  N46  1  0.56842124  0.17383501  0.84303077  1
  N  N47  1  0.48396004  0.07368271  0.57388312  1
  N  N48  1  0.21709595  0.54256657  0.33882899  1
  N  N49  1  0.14449554  0.41362205  0.08325049  1
  N  N50  1  0.88838085  0.53872037  0.84738504  1
  N  N51  1  0.81363737  0.40530539  0.58752445  1
  N  N52  1  0.55885980  0.54147221  0.35334258  1
  N  N53  1  0.44366702  0.43251169  0.12247499  1
  N  N54  1  0.18835647  0.55708515  0.83040400  1
  N  N55  1  0.09495727  0.45476583  0.58292240  1
  N  N56  1  0.88847975  0.54250662  0.35527904  1
  N  N57  1  0.75823398  0.41604670  0.07840197  1
  N  N58  1  0.56517337  0.55659698  0.83878358  1
  N  N59  1  0.42600321  0.40540828  0.60105685  1
  N  N60  1  0.21907489  0.87159200  0.33130199  1
  N  N61  1  0.11202412  0.76049587  0.08539895  1
  N  N62  1  0.89063630  0.87082493  0.84096098  1
  N  N63  1  0.77806271  0.75928105  0.59536596  1
  N  N64  1  0.56113519  0.86937132  0.33298427  1
  N  N65  1  0.44467421  0.76240337  0.09068371  1
  N  N66  1  0.22083836  0.87292120  0.83789737  1
  N  N67  1  0.11001976  0.76166382  0.58586157  1
  N  N68  1  0.90286032  0.84128402  0.32875743  1
  N  N69  1  0.75967792  0.79376971  0.07461123  1
  N  N70  1  0.55087950  0.87436693  0.83503069  1
  N  N71  1  0.42036975  0.80502006  0.57644762  1
