# generated using pymatgen
data_Gd5Al31N36
_symmetry_space_group_name_H-M   'P 1'
_cell_length_a   9.74226852
_cell_length_b   9.71363532
_cell_length_c   10.43442164
_cell_angle_alpha   90.16009583
_cell_angle_beta   90.33838319
_cell_angle_gamma   60.22213951
_symmetry_Int_Tables_number   1
_chemical_formula_structural   Gd5Al31N36
_chemical_formula_sum   'Gd5 Al31 N36'
_cell_volume   857.04004435
_cell_formula_units_Z   1
loop_
 _symmetry_equiv_pos_site_id
 _symmetry_equiv_pos_as_xyz
  1  'x, y, z'
loop_
 _atom_site_type_symbol
 _atom_site_label
 _atom_site_symmetry_multiplicity
 _atom_site_fract_x
 _atom_site_fract_y
 _atom_site_fract_z
 _atom_site_occupancy
  Al  Al0  1  0.12603317  0.09184648  0.29593700  1
  Al  Al1  1  0.22477041  0.20608831  0.05167883  1
  Al  Al2  1  0.77725936  0.09257780  0.87753784  1
  Al  Al3  1  0.88754630  0.19650009  0.64336436  1
  Al  Al4  1  0.44848013  0.09109045  0.37158210  1
  Al  Al5  1  0.55053664  0.20322901  0.11455940  1
  Al  Al6  1  0.11267771  0.08375179  0.82005080  1
  Al  Al7  1  0.89037764  0.20560954  0.11345243  1
  Al  Al8  1  0.45615579  0.07683926  0.87518566  1
  Al  Al9  1  0.56987544  0.18033312  0.63394716  1
  Al  Al10  1  0.12606640  0.41776079  0.30879128  1
  Al  Al11  1  0.21511720  0.54733398  0.06284243  1
  Al  Al12  1  0.77689379  0.43136435  0.84377297  1
  Al  Al13  1  0.89254460  0.53910659  0.55074686  1
  Al  Al14  1  0.43118073  0.43783621  0.28809524  1
  Al  Al15  1  0.54925335  0.55266442  0.05722728  1
  Al  Al16  1  0.09366651  0.44216400  0.80226692  1
  Al  Al17  1  0.22130887  0.53827327  0.55480171  1
  Al  Al18  1  0.77912683  0.43648166  0.29602007  1
  Al  Al19  1  0.11167657  0.75938595  0.31096705  1
  Al  Al20  1  0.22309390  0.87060858  0.05685182  1
  Al  Al21  1  0.78255471  0.75964456  0.80070250  1
  Al  Al22  1  0.89939417  0.85668229  0.56418792  1
  Al  Al23  1  0.43640391  0.76190700  0.30209045  1
  Al  Al24  1  0.54685945  0.88852718  0.13152246  1
  Al  Al25  1  0.10160996  0.76529782  0.80955925  1
  Al  Al26  1  0.21483677  0.87056786  0.55986714  1
  Al  Al27  1  0.78097448  0.76611943  0.31361656  1
  Al  Al28  1  0.89027470  0.87873230  0.05984809  1
  Al  Al29  1  0.43651725  0.76977850  0.80627024  1
  Al  Al30  1  0.55927124  0.87350681  0.62180209  1
  Gd  Gd31  1  0.21981799  0.20077631  0.58147837  1
  Gd  Gd32  1  0.77092584  0.11075833  0.37043049  1
  Gd  Gd33  1  0.89785617  0.55390994  0.06574055  1
  Gd  Gd34  1  0.43052847  0.42812425  0.83343825  1
  Gd  Gd35  1  0.55940048  0.53021337  0.55498765  1
  N  N36  1  0.22339642  0.20166474  0.36103484  1
  N  N37  1  0.12238344  0.08998762  0.10393003  1
  N  N38  1  0.88145903  0.20806095  0.83411395  1
  N  N39  1  0.78508929  0.08749931  0.58921590  1
  N  N40  1  0.52339184  0.21648055  0.29363215  1
  N  N41  1  0.44839693  0.09011367  0.05621084  1
  N  N42  1  0.21621630  0.21099093  0.85589812  1
  N  N43  1  0.10288065  0.06556920  0.63900738  1
  N  N44  1  0.90677171  0.21738702  0.29709959  1
  N  N45  1  0.77286350  0.10497896  0.06697505  1
  N  N46  1  0.57337545  0.16642832  0.81696993  1
  N  N47  1  0.48553425  0.07123781  0.55151100  1
  N  N48  1  0.22605067  0.54036332  0.36561509  1
  N  N49  1  0.15012199  0.40691963  0.12843642  1
  N  N50  1  0.88196078  0.54354401  0.85183333  1
  N  N51  1  0.81443850  0.40452677  0.59537106  1
  N  N52  1  0.55577779  0.53539064  0.33526268  1
  N  N53  1  0.43789661  0.43955135  0.09378918  1
  N  N54  1  0.17453700  0.56069254  0.88402963  1
  N  N55  1  0.09571412  0.46028354  0.62017781  1
  N  N56  1  0.89257846  0.54152524  0.35253676  1
  N  N57  1  0.76463801  0.42850277  0.09860495  1
  N  N58  1  0.56059979  0.56052608  0.86962001  1
  N  N59  1  0.43128632  0.40337958  0.61411101  1
  N  N60  1  0.21973023  0.87383986  0.36738502  1
  N  N61  1  0.10724922  0.76689256  0.12368939  1
  N  N62  1  0.88994599  0.86722999  0.87086174  1
  N  N63  1  0.78384241  0.75356788  0.61390754  1
  N  N64  1  0.54970905  0.87503349  0.31869187  1
  N  N65  1  0.43766365  0.76732200  0.11543921  1
  N  N66  1  0.22192541  0.86480068  0.87377457  1
  N  N67  1  0.11804399  0.75272503  0.62193024  1
  N  N68  1  0.90727524  0.84513731  0.38049588  1
  N  N69  1  0.76694153  0.80281164  0.13160437  1
  N  N70  1  0.55680771  0.87249157  0.81274965  1
  N  N71  1  0.42491998  0.78482284  0.62000552  1
