# generated using pymatgen
data_Gd5Al31N36
_symmetry_space_group_name_H-M   'P 1'
_cell_length_a   9.74368860
_cell_length_b   9.71639711
_cell_length_c   10.43064981
_cell_angle_alpha   90.14433200
_cell_angle_beta   90.35151996
_cell_angle_gamma   60.21928956
_symmetry_Int_Tables_number   1
_chemical_formula_structural   Gd5Al31N36
_chemical_formula_sum   'Gd5 Al31 N36'
_cell_volume   857.07301963
_cell_formula_units_Z   1
loop_
 _symmetry_equiv_pos_site_id
 _symmetry_equiv_pos_as_xyz
  1  'x, y, z'
loop_
 _atom_site_type_symbol
 _atom_site_label
 _atom_site_symmetry_multiplicity
 _atom_site_fract_x
 _atom_site_fract_y
 _atom_site_fract_z
 _atom_site_occupancy
  Al  Al0  1  0.12618554  0.09196185  0.29535589  1
  Al  Al1  1  0.22487186  0.20597106  0.05137197  1
  Al  Al2  1  0.77732127  0.09234005  0.87667423  1
  Al  Al3  1  0.88668269  0.19884527  0.64271786  1
  Al  Al4  1  0.44851186  0.09107005  0.37174233  1
  Al  Al5  1  0.55084000  0.20290101  0.11453063  1
  Al  Al6  1  0.11218538  0.08400810  0.81977203  1
  Al  Al7  1  0.89045531  0.20534128  0.11288092  1
  Al  Al8  1  0.45617587  0.07671250  0.87509142  1
  Al  Al9  1  0.56989258  0.18020481  0.63392419  1
  Al  Al10  1  0.12718810  0.41755946  0.30855600  1
  Al  Al11  1  0.21536940  0.54728806  0.06280415  1
  Al  Al12  1  0.77646606  0.42917899  0.86643507  1
  Al  Al13  1  0.89316613  0.53906609  0.55026887  1
  Al  Al14  1  0.43147717  0.43755015  0.28827586  1
  Al  Al15  1  0.54704264  0.55358090  0.05762813  1
  Al  Al16  1  0.09270142  0.44218884  0.80274945  1
  Al  Al17  1  0.22136983  0.53826734  0.55504392  1
  Al  Al18  1  0.78151363  0.43507246  0.30700602  1
  Al  Al19  1  0.11161886  0.75952172  0.31102749  1
  Al  Al20  1  0.22292981  0.87071093  0.05668714  1
  Al  Al21  1  0.78249438  0.75847176  0.80097100  1
  Al  Al22  1  0.89925595  0.85694045  0.56458295  1
  Al  Al23  1  0.43641965  0.76216529  0.30228189  1
  Al  Al24  1  0.54666353  0.88878030  0.13144306  1
  Al  Al25  1  0.10150074  0.76529411  0.80958622  1
  Al  Al26  1  0.21460375  0.87091776  0.56003344  1
  Al  Al27  1  0.78068869  0.76737970  0.31342045  1
  Al  Al28  1  0.89011813  0.87906459  0.05953466  1
  Al  Al29  1  0.43614223  0.76999604  0.80609482  1
  Al  Al30  1  0.55917639  0.87365777  0.62186464  1
  Gd  Gd31  1  0.21919217  0.20102901  0.58143274  1
  Gd  Gd32  1  0.77109058  0.11143059  0.37110887  1
  Gd  Gd33  1  0.89900892  0.55486403  0.06801660  1
  Gd  Gd34  1  0.43000703  0.42799064  0.83305252  1
  Gd  Gd35  1  0.55984311  0.53018976  0.55630157  1
  N  N36  1  0.22331629  0.20171413  0.36082623  1
  N  N37  1  0.12261952  0.08977356  0.10370265  1
  N  N38  1  0.88047939  0.20925728  0.83282861  1
  N  N39  1  0.78520112  0.08746315  0.58968399  1
  N  N40  1  0.52384862  0.21616807  0.29382475  1
  N  N41  1  0.44835601  0.09018870  0.05621088  1
  N  N42  1  0.21610961  0.21089903  0.85589609  1
  N  N43  1  0.10240437  0.06586787  0.63908392  1
  N  N44  1  0.90629085  0.21820930  0.29472551  1
  N  N45  1  0.77298406  0.10480186  0.06655979  1
  N  N46  1  0.57320418  0.16638179  0.81697370  1
  N  N47  1  0.48535131  0.07132863  0.55152734  1
  N  N48  1  0.22638572  0.54044351  0.36570837  1
  N  N49  1  0.15116121  0.40637328  0.12839651  1
  N  N50  1  0.88113397  0.54253549  0.85248823  1
  N  N51  1  0.81703835  0.40056553  0.57930038  1
  N  N52  1  0.55665151  0.53521385  0.33456380  1
  N  N53  1  0.43782119  0.43943544  0.09443806  1
  N  N54  1  0.17413675  0.56072061  0.88418823  1
  N  N55  1  0.09563014  0.46045300  0.62062087  1
  N  N56  1  0.89404950  0.54289886  0.35040741  1
  N  N57  1  0.76629385  0.42576236  0.08496696  1
  N  N58  1  0.55812595  0.56148498  0.86937819  1
  N  N59  1  0.43138880  0.40311356  0.61383164  1
  N  N60  1  0.21950748  0.87414612  0.36726166  1
  N  N61  1  0.10715395  0.76680000  0.12370157  1
  N  N62  1  0.88982928  0.86697232  0.87064567  1
  N  N63  1  0.78384315  0.75319781  0.61381443  1
  N  N64  1  0.54970200  0.87510314  0.31873649  1
  N  N65  1  0.43752027  0.76749459  0.11573440  1
  N  N66  1  0.22147517  0.86513566  0.87373648  1
  N  N67  1  0.11813663  0.75268313  0.62191634  1
  N  N68  1  0.90715112  0.84581841  0.38063776  1
  N  N69  1  0.76637778  0.80390233  0.13158881  1
  N  N70  1  0.55674548  0.87239813  0.81281805  1
  N  N71  1  0.42468496  0.78545278  0.61975020  1
