# generated using pymatgen
data_Gd5Al31N36
_symmetry_space_group_name_H-M   'P 1'
_cell_length_a   9.70891055
_cell_length_b   9.72059671
_cell_length_c   10.49638285
_cell_angle_alpha   90.13965621
_cell_angle_beta   90.39473629
_cell_angle_gamma   60.23379713
_symmetry_Int_Tables_number   1
_chemical_formula_structural   Gd5Al31N36
_chemical_formula_sum   'Gd5 Al31 N36'
_cell_volume   859.88717870
_cell_formula_units_Z   1
loop_
 _symmetry_equiv_pos_site_id
 _symmetry_equiv_pos_as_xyz
  1  'x, y, z'
loop_
 _atom_site_type_symbol
 _atom_site_label
 _atom_site_symmetry_multiplicity
 _atom_site_fract_x
 _atom_site_fract_y
 _atom_site_fract_z
 _atom_site_occupancy
  Al  Al0  1  0.12925879  0.08896022  0.30094357  1
  Al  Al1  1  0.22199505  0.20606971  0.05960409  1
  Al  Al2  1  0.77669046  0.09814090  0.88284276  1
  Al  Al3  1  0.88598441  0.19797672  0.64346344  1
  Al  Al4  1  0.45370932  0.08632921  0.37610930  1
  Al  Al5  1  0.54715686  0.20584006  0.12174861  1
  Al  Al6  1  0.10888966  0.08849969  0.82264906  1
  Al  Al7  1  0.88627722  0.20858835  0.12446093  1
  Al  Al8  1  0.45213816  0.08197549  0.88301642  1
  Al  Al9  1  0.56920698  0.18112879  0.63808148  1
  Al  Al10  1  0.13513066  0.41469014  0.31387985  1
  Al  Al11  1  0.21167954  0.54917048  0.07038270  1
  Al  Al12  1  0.77499472  0.42947659  0.88085503  1
  Al  Al13  1  0.88228279  0.54445954  0.63913212  1
  Al  Al14  1  0.43925575  0.43751637  0.29928794  1
  Al  Al15  1  0.54589541  0.55144713  0.05756353  1
  Al  Al16  1  0.09685112  0.44236317  0.82163135  1
  Al  Al17  1  0.21787332  0.53981746  0.56277540  1
  Al  Al18  1  0.80757281  0.41782856  0.38361500  1
  Al  Al19  1  0.11498377  0.75657736  0.31681122  1
  Al  Al20  1  0.22271916  0.87132021  0.06350168  1
  Al  Al21  1  0.76632218  0.77213991  0.87837381  1
  Al  Al22  1  0.90069524  0.85966666  0.57157442  1
  Al  Al23  1  0.44785748  0.75496252  0.30804178  1
  Al  Al24  1  0.55376869  0.88387257  0.13133613  1
  Al  Al25  1  0.10192831  0.76845671  0.81414249  1
  Al  Al26  1  0.21507089  0.87431214  0.56350719  1
  Al  Al27  1  0.78249845  0.74761652  0.39228453  1
  Al  Al28  1  0.89341903  0.87666326  0.05868292  1
  Al  Al29  1  0.43124636  0.77605748  0.81137812  1
  Al  Al30  1  0.56093721  0.87597874  0.63306412  1
  Gd  Gd31  1  0.21717059  0.20801502  0.58322639  1
  Gd  Gd32  1  0.77439936  0.10205403  0.36822233  1
  Gd  Gd33  1  0.88210221  0.54531827  0.12237055  1
  Gd  Gd34  1  0.42744388  0.42843667  0.83880315  1
  Gd  Gd35  1  0.55195218  0.53662224  0.57271326  1
  N  N36  1  0.22790129  0.19856912  0.36434018  1
  N  N37  1  0.12060854  0.08935662  0.11287728  1
  N  N38  1  0.87585141  0.21432740  0.82749846  1
  N  N39  1  0.78311066  0.08979927  0.58756162  1
  N  N40  1  0.52329142  0.21691807  0.30004763  1
  N  N41  1  0.44599787  0.09140809  0.06400848  1
  N  N42  1  0.21286038  0.21345280  0.86692271  1
  N  N43  1  0.10308979  0.07000251  0.64172974  1
  N  N44  1  0.90697007  0.22066823  0.30495599  1
  N  N45  1  0.77329465  0.10177259  0.07700649  1
  N  N46  1  0.57276706  0.16713891  0.82186458  1
  N  N47  1  0.48484616  0.07116010  0.55634893  1
  N  N48  1  0.23083256  0.53817241  0.37350429  1
  N  N49  1  0.14759821  0.40808134  0.13136069  1
  N  N50  1  0.87086038  0.54886589  0.83037849  1
  N  N51  1  0.82187634  0.40013801  0.56911091  1
  N  N52  1  0.56677367  0.53157635  0.35385806  1
  N  N53  1  0.43683350  0.44114323  0.10365666  1
  N  N54  1  0.17304711  0.56686317  0.89384139  1
  N  N55  1  0.09916191  0.46147014  0.64066471  1
  N  N56  1  0.90309111  0.53602296  0.33829959  1
  N  N57  1  0.76596753  0.41209494  0.05934162  1
  N  N58  1  0.55207986  0.56606467  0.86736159  1
  N  N59  1  0.42881898  0.40369282  0.62086592  1
  N  N60  1  0.22587635  0.87111398  0.37239239  1
  N  N61  1  0.10573713  0.76732140  0.13088303  1
  N  N62  1  0.89299203  0.87666280  0.87012985  1
  N  N63  1  0.77290582  0.75307540  0.57819916  1
  N  N64  1  0.56779914  0.86804268  0.31698444  1
  N  N65  1  0.44077141  0.76312140  0.12243159  1
  N  N66  1  0.21884589  0.87153619  0.88044873  1
  N  N67  1  0.11927727  0.75458882  0.62754227  1
  N  N68  1  0.91262844  0.84015446  0.38607889  1
  N  N69  1  0.75544478  0.79437936  0.06024325  1
  N  N70  1  0.55398939  0.87814437  0.81742883  1
  N  N71  1  0.42239069  0.79111733  0.62740756  1
