# generated using pymatgen
data_Gd5Al31N36
_symmetry_space_group_name_H-M   'P 1'
_cell_length_a   9.70668349
_cell_length_b   9.71799394
_cell_length_c   10.23408796
_cell_angle_alpha   89.87848073
_cell_angle_beta   90.03946195
_cell_angle_gamma   60.03959999
_symmetry_Int_Tables_number   1
_chemical_formula_structural   Gd5Al31N36
_chemical_formula_sum   'Gd5 Al31 N36'
_cell_volume   836.37023708
_cell_formula_units_Z   1
loop_
 _symmetry_equiv_pos_site_id
 _symmetry_equiv_pos_as_xyz
  1  'x, y, z'
loop_
 _atom_site_type_symbol
 _atom_site_label
 _atom_site_symmetry_multiplicity
 _atom_site_fract_x
 _atom_site_fract_y
 _atom_site_fract_z
 _atom_site_occupancy
  Al  Al0  1  0.11489744  0.09525064  0.30232402  1
  Al  Al1  1  0.22763005  0.20299632  0.05636226  1
  Al  Al2  1  0.78052648  0.08951195  0.80566434  1
  Al  Al3  1  0.89480054  0.20080604  0.56427196  1
  Al  Al4  1  0.43958866  0.09394232  0.30170708  1
  Al  Al5  1  0.56110338  0.19522017  0.05620276  1
  Al  Al6  1  0.10806675  0.08832092  0.81474612  1
  Al  Al7  1  0.88768275  0.20199201  0.05104373  1
  Al  Al8  1  0.45590348  0.08267379  0.81212371  1
  Al  Al9  1  0.55312672  0.20186941  0.55663831  1
  Al  Al10  1  0.11893866  0.42231569  0.30727892  1
  Al  Al11  1  0.21682046  0.54392849  0.06432156  1
  Al  Al12  1  0.78691562  0.42700624  0.80589939  1
  Al  Al13  1  0.89061383  0.54336498  0.55654153  1
  Al  Al14  1  0.43764483  0.42829569  0.29859704  1
  Al  Al15  1  0.55681268  0.54026866  0.06436392  1
  Al  Al16  1  0.10025665  0.44058184  0.80453806  1
  Al  Al17  1  0.21625089  0.54444075  0.55173002  1
  Al  Al18  1  0.78193498  0.42342158  0.30698656  1
  Al  Al19  1  0.11428135  0.75570937  0.31022613  1
  Al  Al20  1  0.22117735  0.87177779  0.06020952  1
  Al  Al21  1  0.77454082  0.76262543  0.80218886  1
  Al  Al22  1  0.89475957  0.86270668  0.56539734  1
  Al  Al23  1  0.44196417  0.76496599  0.30240745  1
  Al  Al24  1  0.55344066  0.87942322  0.06012958  1
  Al  Al25  1  0.10570856  0.76486546  0.80970103  1
  Al  Al26  1  0.21551420  0.87400525  0.56209041  1
  Al  Al27  1  0.77666309  0.76271483  0.31529793  1
  Al  Al28  1  0.88746751  0.87767235  0.05111797  1
  Al  Al29  1  0.44313218  0.77273061  0.81574061  1
  Al  Al30  1  0.55761473  0.87605547  0.55986970  1
  Gd  Gd31  1  0.22215073  0.20164788  0.56939466  1
  Gd  Gd32  1  0.78303314  0.08941361  0.31541075  1
  Gd  Gd33  1  0.88640833  0.54482577  0.06567399  1
  Gd  Gd34  1  0.43749297  0.42888848  0.82548806  1
  Gd  Gd35  1  0.55413995  0.54499135  0.55849739  1
  N  N36  1  0.22433950  0.20095547  0.34920264  1
  N  N37  1  0.11011751  0.09456785  0.11112549  1
  N  N38  1  0.88644710  0.20702420  0.86440151  1
  N  N39  1  0.77677723  0.09448616  0.60824082  1
  N  N40  1  0.52602506  0.21741231  0.36791546  1
  N  N41  1  0.44395114  0.09407885  0.11385995  1
  N  N42  1  0.22248773  0.20701338  0.85837284  1
  N  N43  1  0.09567924  0.07478644  0.63273570  1
  N  N44  1  0.90940045  0.21703357  0.37881021  1
  N  N45  1  0.78197341  0.09265921  0.09713698  1
  N  N46  1  0.57260217  0.17445233  0.87340249  1
  N  N47  1  0.47657875  0.07799753  0.62861007  1
  N  N48  1  0.22346152  0.53881359  0.36200916  1
  N  N49  1  0.13980863  0.41200382  0.12392100  1
  N  N50  1  0.88589484  0.54336866  0.84913056  1
  N  N51  1  0.80825360  0.41315328  0.62054830  1
  N  N52  1  0.55312207  0.53859806  0.33988175  1
  N  N53  1  0.44337150  0.42658614  0.10244532  1
  N  N54  1  0.18294672  0.55993544  0.88199656  1
  N  N55  1  0.09736693  0.45914530  0.61867445  1
  N  N56  1  0.88879551  0.53833177  0.35841575  1
  N  N57  1  0.76898392  0.40708203  0.12346001  1
  N  N58  1  0.57296648  0.55496373  0.87077333  1
  N  N59  1  0.42843233  0.41491768  0.60722094  1
  N  N60  1  0.22160481  0.87232923  0.36722029  1
  N  N61  1  0.10733732  0.76513935  0.12087213  1
  N  N62  1  0.88772269  0.87153442  0.85985614  1
  N  N63  1  0.77431764  0.76018891  0.61426359  1
  N  N64  1  0.55294849  0.87279357  0.36912478  1
  N  N65  1  0.44389458  0.76563763  0.11529043  1
  N  N66  1  0.22198597  0.86836559  0.87366749  1
  N  N67  1  0.11705935  0.75677431  0.62043326  1
  N  N68  1  0.90837660  0.83804358  0.38251868  1
  N  N69  1  0.76198773  0.79866199  0.13014396  1
  N  N70  1  0.55992351  0.87019047  0.87326924  1
  N  N71  1  0.42614357  0.79761703  0.62801545  1
