# generated using pymatgen
data_Gd5Al31N36
_symmetry_space_group_name_H-M   'P 1'
_cell_length_a   9.75615946
_cell_length_b   9.77764923
_cell_length_c   10.20115272
_cell_angle_alpha   89.62135431
_cell_angle_beta   89.73400757
_cell_angle_gamma   60.06082072
_symmetry_Int_Tables_number   1
_chemical_formula_structural   Gd5Al31N36
_chemical_formula_sum   'Gd5 Al31 N36'
_cell_volume   843.23584157
_cell_formula_units_Z   1
loop_
 _symmetry_equiv_pos_site_id
 _symmetry_equiv_pos_as_xyz
  1  'x, y, z'
loop_
 _atom_site_type_symbol
 _atom_site_label
 _atom_site_symmetry_multiplicity
 _atom_site_fract_x
 _atom_site_fract_y
 _atom_site_fract_z
 _atom_site_occupancy
  Al  Al0  1  0.11367978  0.09565849  0.30449431  1
  Al  Al1  1  0.21926226  0.20752772  0.05752290  1
  Al  Al2  1  0.79439099  0.08300860  0.80913706  1
  Al  Al3  1  0.90064822  0.19941025  0.56561961  1
  Al  Al4  1  0.43953124  0.09132142  0.33755699  1
  Al  Al5  1  0.54924483  0.20511960  0.11142670  1
  Al  Al6  1  0.10871684  0.08718541  0.81592508  1
  Al  Al7  1  0.88385949  0.20299906  0.05556027  1
  Al  Al8  1  0.45004066  0.08606531  0.86466803  1
  Al  Al9  1  0.56339528  0.19015522  0.63209896  1
  Al  Al10  1  0.12135804  0.42147489  0.31011365  1
  Al  Al11  1  0.21025774  0.55086985  0.06442369  1
  Al  Al12  1  0.78944044  0.42649393  0.80734603  1
  Al  Al13  1  0.89149325  0.54290180  0.55655729  1
  Al  Al14  1  0.43105987  0.43996596  0.29271054  1
  Al  Al15  1  0.55746018  0.54585177  0.06207948  1
  Al  Al16  1  0.09783070  0.44495552  0.80372364  1
  Al  Al17  1  0.22082671  0.54186082  0.55550403  1
  Al  Al18  1  0.78128555  0.42449236  0.30736438  1
  Al  Al19  1  0.11229368  0.75759622  0.31196720  1
  Al  Al20  1  0.21980394  0.87334387  0.06145786  1
  Al  Al21  1  0.77477925  0.76300582  0.80266505  1
  Al  Al22  1  0.89887657  0.85722318  0.56608055  1
  Al  Al23  1  0.44126431  0.76341295  0.30302355  1
  Al  Al24  1  0.55482327  0.87435265  0.06055965  1
  Al  Al25  1  0.10709869  0.76422844  0.81065174  1
  Al  Al26  1  0.21812797  0.87181546  0.56222603  1
  Al  Al27  1  0.77800746  0.76072637  0.31388814  1
  Al  Al28  1  0.88328394  0.88251496  0.05553368  1
  Al  Al29  1  0.44487269  0.77147688  0.81257264  1
  Al  Al30  1  0.56126330  0.86804949  0.55640892  1
  Gd  Gd31  1  0.22226432  0.20411598  0.57902445  1
  Gd  Gd32  1  0.77656980  0.09333600  0.33359864  1
  Gd  Gd33  1  0.88837798  0.54500071  0.06736626  1
  Gd  Gd34  1  0.43916005  0.42879810  0.84252617  1
  Gd  Gd35  1  0.55672066  0.53612528  0.56257713  1
  N  N36  1  0.22205330  0.20088362  0.35219717  1
  N  N37  1  0.10755294  0.09617856  0.11271752  1
  N  N38  1  0.88867817  0.20622761  0.86759896  1
  N  N39  1  0.78908886  0.08767751  0.60722184  1
  N  N40  1  0.51866942  0.22217225  0.29881297  1
  N  N41  1  0.44020571  0.09584114  0.06951431  1
  N  N42  1  0.21553277  0.21183069  0.85575196  1
  N  N43  1  0.09947140  0.07078990  0.63365166  1
  N  N44  1  0.90826383  0.21917740  0.37864561  1
  N  N45  1  0.77655268  0.09615064  0.10247869  1
  N  N46  1  0.57700571  0.17016242  0.82352274  1
  N  N47  1  0.47649649  0.07632182  0.58120955  1
  N  N48  1  0.22359107  0.54062271  0.36429792  1
  N  N49  1  0.14124062  0.41300967  0.12612491  1
  N  N50  1  0.88554075  0.54420571  0.85049551  1
  N  N51  1  0.81232219  0.41046240  0.62171102  1
  N  N52  1  0.55222870  0.53843373  0.34150937  1
  N  N53  1  0.43640174  0.44148990  0.09409983  1
  N  N54  1  0.18008198  0.56138954  0.88199713  1
  N  N55  1  0.09587074  0.46330013  0.61821576  1
  N  N56  1  0.88938830  0.53774941  0.35789401  1
  N  N57  1  0.76713327  0.41051338  0.12287441  1
  N  N58  1  0.57545367  0.55547271  0.86828501  1
  N  N59  1  0.42970500  0.41011676  0.61556683  1
  N  N60  1  0.22069683  0.87275701  0.36706567  1
  N  N61  1  0.10407489  0.76861014  0.12226068  1
  N  N62  1  0.89030400  0.86987282  0.86364131  1
  N  N63  1  0.77572351  0.75849956  0.61470071  1
  N  N64  1  0.55612854  0.86499924  0.36360211  1
  N  N65  1  0.44206055  0.76695751  0.11562288  1
  N  N66  1  0.22390000  0.86767613  0.87412716  1
  N  N67  1  0.11959880  0.75505849  0.62088189  1
  N  N68  1  0.90705464  0.83681379  0.38189308  1
  N  N69  1  0.76057375  0.79828750  0.12912622  1
  N  N70  1  0.56254546  0.86480386  0.87079193  1
  N  N71  1  0.42967643  0.79076004  0.62489291  1
