# generated using pymatgen
data_Gd5Al31N36
_symmetry_space_group_name_H-M   'P 1'
_cell_length_a   9.72279675
_cell_length_b   9.76979980
_cell_length_c   10.27093475
_cell_angle_alpha   90.57102290
_cell_angle_beta   90.84887813
_cell_angle_gamma   59.95909450
_symmetry_Int_Tables_number   1
_chemical_formula_structural   Gd5Al31N36
_chemical_formula_sum   'Gd5 Al31 N36'
_cell_volume   844.47882202
_cell_formula_units_Z   1
loop_
 _symmetry_equiv_pos_site_id
 _symmetry_equiv_pos_as_xyz
  1  'x, y, z'
loop_
 _atom_site_type_symbol
 _atom_site_label
 _atom_site_symmetry_multiplicity
 _atom_site_fract_x
 _atom_site_fract_y
 _atom_site_fract_z
 _atom_site_occupancy
  Al  Al0  1  0.11114907  0.09337088  0.39230274  1
  Al  Al1  1  0.22687323  0.20032111  0.15392830  1
  Al  Al2  1  0.78549359  0.08405328  0.89979908  1
  Al  Al3  1  0.89441959  0.19688757  0.65713297  1
  Al  Al4  1  0.45127682  0.09064513  0.39236237  1
  Al  Al5  1  0.55419524  0.19862155  0.14169767  1
  Al  Al6  1  0.11287055  0.09488973  0.90466521  1
  Al  Al7  1  0.88781171  0.20685555  0.13942634  1
  Al  Al8  1  0.44678458  0.08273737  0.90674265  1
  Al  Al9  1  0.56586176  0.18455491  0.66174844  1
  Al  Al10  1  0.10703881  0.42974681  0.39896265  1
  Al  Al11  1  0.21433080  0.54770504  0.08701692  1
  Al  Al12  1  0.77693401  0.42943561  0.89149269  1
  Al  Al13  1  0.89292352  0.53928372  0.65083548  1
  Al  Al14  1  0.43327163  0.43263534  0.32182324  1
  Al  Al15  1  0.55375602  0.54560529  0.14704758  1
  Al  Al16  1  0.10816599  0.42185865  0.90591483  1
  Al  Al17  1  0.22117789  0.54235838  0.58169178  1
  Al  Al18  1  0.79429499  0.42316576  0.40034885  1
  Al  Al19  1  0.11512953  0.75726100  0.35919879  1
  Al  Al20  1  0.22233392  0.87682896  0.14341961  1
  Al  Al21  1  0.77217013  0.76964058  0.89092237  1
  Al  Al22  1  0.89461736  0.86678066  0.65640149  1
  Al  Al23  1  0.43848421  0.77724331  0.39113694  1
  Al  Al24  1  0.55321106  0.87813050  0.14614588  1
  Al  Al25  1  0.10630912  0.77026195  0.88645776  1
  Al  Al26  1  0.21388814  0.87601210  0.64445214  1
  Al  Al27  1  0.77955162  0.75712566  0.40663088  1
  Al  Al28  1  0.88305742  0.87676047  0.14219781  1
  Al  Al29  1  0.44716854  0.76681342  0.89483122  1
  Al  Al30  1  0.55972473  0.87310045  0.64537369  1
  Gd  Gd31  1  0.23071699  0.19969781  0.63757944  1
  Gd  Gd32  1  0.78191512  0.09559211  0.39933769  1
  Gd  Gd33  1  0.87972668  0.54606169  0.14161079  1
  Gd  Gd34  1  0.44951868  0.42331738  0.87680657  1
  Gd  Gd35  1  0.54941673  0.53980914  0.61392048  1
  N  N36  1  0.22535692  0.20247795  0.34926154  1
  N  N37  1  0.11181647  0.09514733  0.09094499  1
  N  N38  1  0.89174822  0.20395186  0.84540545  1
  N  N39  1  0.78144629  0.09087174  0.61783224  1
  N  N40  1  0.53333991  0.21320933  0.32461928  1
  N  N41  1  0.44103110  0.09186433  0.09311022  1
  N  N42  1  0.22367799  0.20349768  0.85820844  1
  N  N43  1  0.09108729  0.07974816  0.57575813  1
  N  N44  1  0.90350220  0.22280859  0.32194991  1
  N  N45  1  0.77779747  0.09532437  0.09349017  1
  N  N46  1  0.57405634  0.16237348  0.84874844  1
  N  N47  1  0.48546694  0.07333459  0.57337632  1
  N  N48  1  0.22686753  0.53864990  0.38203179  1
  N  N49  1  0.13363291  0.40923722  0.09637428  1
  N  N50  1  0.89021335  0.53833065  0.84668902  1
  N  N51  1  0.81291309  0.40481416  0.58702123  1
  N  N52  1  0.55860672  0.54250356  0.34652047  1
  N  N53  1  0.43698925  0.43626594  0.12692619  1
  N  N54  1  0.19189202  0.55600509  0.89927669  1
  N  N55  1  0.09552567  0.45113384  0.58396967  1
  N  N56  1  0.88699314  0.54276050  0.35755201  1
  N  N57  1  0.75598288  0.41561855  0.07515794  1
  N  N58  1  0.56859999  0.56084050  0.83262123  1
  N  N59  1  0.42539790  0.40358411  0.64510824  1
  N  N60  1  0.22187598  0.87531607  0.33008258  1
  N  N61  1  0.10622983  0.77111395  0.10549691  1
  N  N62  1  0.89122765  0.87005276  0.84278940  1
  N  N63  1  0.77935883  0.75838930  0.59666063  1
  N  N64  1  0.56137332  0.86988060  0.33341630  1
  N  N65  1  0.44495308  0.76373644  0.08815133  1
  N  N66  1  0.22259432  0.87641963  0.84059621  1
  N  N67  1  0.11214308  0.76077269  0.60583748  1
  N  N68  1  0.89676832  0.84406561  0.32839117  1
  N  N69  1  0.75738452  0.79594249  0.07362072  1
  N  N70  1  0.55082112  0.87479608  0.83392962  1
  N  N71  1  0.42215286  0.80312320  0.57580017  1
