# generated using pymatgen
data_Gd5Al31N36
_symmetry_space_group_name_H-M   'P 1'
_cell_length_a   9.71047304
_cell_length_b   9.71835728
_cell_length_c   10.22226475
_cell_angle_alpha   90.27480588
_cell_angle_beta   90.23122830
_cell_angle_gamma   60.13749125
_symmetry_Int_Tables_number   1
_chemical_formula_structural   Gd5Al31N36
_chemical_formula_sum   'Gd5 Al31 N36'
_cell_volume   836.57571695
_cell_formula_units_Z   1
loop_
 _symmetry_equiv_pos_site_id
 _symmetry_equiv_pos_as_xyz
  1  'x, y, z'
loop_
 _atom_site_type_symbol
 _atom_site_label
 _atom_site_symmetry_multiplicity
 _atom_site_fract_x
 _atom_site_fract_y
 _atom_site_fract_z
 _atom_site_occupancy
  Al  Al0  1  0.11132594  0.09311454  0.38881658  1
  Al  Al1  1  0.22919445  0.20220200  0.14863915  1
  Al  Al2  1  0.78306858  0.08634727  0.89763514  1
  Al  Al3  1  0.89365804  0.19748864  0.65655999  1
  Al  Al4  1  0.45110065  0.08930991  0.39202962  1
  Al  Al5  1  0.55549270  0.20101725  0.14561903  1
  Al  Al6  1  0.11324027  0.09326904  0.90252268  1
  Al  Al7  1  0.88934674  0.20590039  0.13860578  1
  Al  Al8  1  0.44614537  0.08524441  0.90419426  1
  Al  Al9  1  0.56255081  0.19061404  0.65672168  1
  Al  Al10  1  0.10839424  0.43568899  0.40020612  1
  Al  Al11  1  0.22011505  0.54428009  0.15124261  1
  Al  Al12  1  0.77572628  0.42822060  0.89360285  1
  Al  Al13  1  0.89125753  0.54025464  0.65017319  1
  Al  Al14  1  0.43796014  0.42792006  0.35839916  1
  Al  Al15  1  0.55538060  0.54261127  0.15318810  1
  Al  Al16  1  0.11097224  0.42689202  0.89717109  1
  Al  Al17  1  0.20925986  0.54539254  0.64668537  1
  Al  Al18  1  0.79546975  0.42339682  0.40073654  1
  Al  Al19  1  0.11364266  0.75668788  0.39646464  1
  Al  Al20  1  0.22139010  0.87234637  0.14395237  1
  Al  Al21  1  0.77141822  0.76959574  0.89078338  1
  Al  Al22  1  0.89152652  0.86898073  0.65468614  1
  Al  Al23  1  0.43684590  0.77713390  0.39133419  1
  Al  Al24  1  0.55385558  0.87737891  0.14527824  1
  Al  Al25  1  0.10458148  0.76550263  0.89602956  1
  Al  Al26  1  0.21251615  0.87626924  0.64366858  1
  Al  Al27  1  0.77954561  0.75718457  0.40378206  1
  Al  Al28  1  0.88917025  0.87228889  0.14216165  1
  Al  Al29  1  0.44484155  0.76642166  0.89671248  1
  Al  Al30  1  0.55876986  0.87396188  0.64543483  1
  Gd  Gd31  1  0.22845811  0.19927256  0.63295233  1
  Gd  Gd32  1  0.78443389  0.09367555  0.39763281  1
  Gd  Gd33  1  0.88768908  0.54195048  0.13768043  1
  Gd  Gd34  1  0.43923916  0.42931629  0.89719658  1
  Gd  Gd35  1  0.55054216  0.54194555  0.61968478  1
  N  N36  1  0.22512231  0.20505339  0.34698503  1
  N  N37  1  0.11392914  0.09359931  0.09010933  1
  N  N38  1  0.89231317  0.20361905  0.84527495  1
  N  N39  1  0.78045361  0.09195654  0.61680932  1
  N  N40  1  0.53548302  0.21150575  0.32805834  1
  N  N41  1  0.44409695  0.09238569  0.09170729  1
  N  N42  1  0.22404579  0.20321635  0.85460560  1
  N  N43  1  0.08956198  0.07912376  0.57366194  1
  N  N44  1  0.90433571  0.22329944  0.32107931  1
  N  N45  1  0.78001047  0.09297860  0.09340323  1
  N  N46  1  0.56905218  0.17282688  0.84450808  1
  N  N47  1  0.48431051  0.07349916  0.57388360  1
  N  N48  1  0.21681356  0.54286285  0.33830581  1
  N  N49  1  0.14437592  0.41349645  0.08327127  1
  N  N50  1  0.88819756  0.53871054  0.84732599  1
  N  N51  1  0.81343090  0.40520077  0.58745265  1
  N  N52  1  0.55930831  0.54192332  0.35237360  1
  N  N53  1  0.44356883  0.43279396  0.12513316  1
  N  N54  1  0.18724377  0.55771306  0.83163117  1
  N  N55  1  0.09480449  0.45501390  0.58289990  1
  N  N56  1  0.88865867  0.54251041  0.35523073  1
  N  N57  1  0.75838149  0.41593279  0.07813000  1
  N  N58  1  0.56506185  0.55655141  0.83875413  1
  N  N59  1  0.42571765  0.40482866  0.61003445  1
  N  N60  1  0.21914990  0.87159711  0.33129963  1
  N  N61  1  0.11174630  0.76097553  0.08543212  1
  N  N62  1  0.89059822  0.87082508  0.84099506  1
  N  N63  1  0.77808325  0.75923015  0.59535898  1
  N  N64  1  0.56116356  0.86943350  0.33298044  1
  N  N65  1  0.44456105  0.76266703  0.09037401  1
  N  N66  1  0.22075002  0.87301898  0.83793955  1
  N  N67  1  0.11019462  0.76143247  0.58606447  1
  N  N68  1  0.90287044  0.84145542  0.32895476  1
  N  N69  1  0.75968109  0.79378682  0.07468523  1
  N  N70  1  0.55087145  0.87424653  0.83493138  1
  N  N71  1  0.42034142  0.80477467  0.57643571  1
