# generated using pymatgen
data_Gd5Al31N36
_symmetry_space_group_name_H-M   'P 1'
_cell_length_a   9.70658194
_cell_length_b   9.71793651
_cell_length_c   10.23432112
_cell_angle_alpha   89.87802507
_cell_angle_beta   90.04260283
_cell_angle_gamma   60.03908906
_symmetry_Int_Tables_number   1
_chemical_formula_structural   Gd5Al31N36
_chemical_formula_sum   'Gd5 Al31 N36'
_cell_volume   836.37116902
_cell_formula_units_Z   1
loop_
 _symmetry_equiv_pos_site_id
 _symmetry_equiv_pos_as_xyz
  1  'x, y, z'
loop_
 _atom_site_type_symbol
 _atom_site_label
 _atom_site_symmetry_multiplicity
 _atom_site_fract_x
 _atom_site_fract_y
 _atom_site_fract_z
 _atom_site_occupancy
  Al  Al0  1  0.11488367  0.09525601  0.29228182  1
  Al  Al1  1  0.22760913  0.20301061  0.04632045  1
  Al  Al2  1  0.78049189  0.08954039  0.79561752  1
  Al  Al3  1  0.89475773  0.20083041  0.55422858  1
  Al  Al4  1  0.43956964  0.09396004  0.29166802  1
  Al  Al5  1  0.56107702  0.19524512  0.04614697  1
  Al  Al6  1  0.10803466  0.08834270  0.80470881  1
  Al  Al7  1  0.88766498  0.20200282  0.04100053  1
  Al  Al8  1  0.45586144  0.08271348  0.80207037  1
  Al  Al9  1  0.55308727  0.20191630  0.54658008  1
  Al  Al10  1  0.11891943  0.42233277  0.29723028  1
  Al  Al11  1  0.21680897  0.54393545  0.05427374  1
  Al  Al12  1  0.78689185  0.42703055  0.79585039  1
  Al  Al13  1  0.89059245  0.54339943  0.54650457  1
  Al  Al14  1  0.43762637  0.42831382  0.28855460  1
  Al  Al15  1  0.55679751  0.54027707  0.05432685  1
  Al  Al16  1  0.10023829  0.44060076  0.79449661  1
  Al  Al17  1  0.21622790  0.54447248  0.54168326  1
  Al  Al18  1  0.78192780  0.42343056  0.29694626  1
  Al  Al19  1  0.11426346  0.75572455  0.30018384  1
  Al  Al20  1  0.22116240  0.87178780  0.05016963  1
  Al  Al21  1  0.77451380  0.76265674  0.79214738  1
  Al  Al22  1  0.89472858  0.86274095  0.55535528  1
  Al  Al23  1  0.44195142  0.76498222  0.29235829  1
  Al  Al24  1  0.55342319  0.87944712  0.05008934  1
  Al  Al25  1  0.10568261  0.76488891  0.79966406  1
  Al  Al26  1  0.21548166  0.87403265  0.55205963  1
  Al  Al27  1  0.77664966  0.76272727  0.30525704  1
  Al  Al28  1  0.88745259  0.87768410  0.04107654  1
  Al  Al29  1  0.44310797  0.77276284  0.80570907  1
  Al  Al30  1  0.55757464  0.87610756  0.54983224  1
  Gd  Gd31  1  0.22208333  0.20167952  0.55934206  1
  Gd  Gd32  1  0.78300850  0.08943446  0.30535423  1
  Gd  Gd33  1  0.88637679  0.54484266  0.05561893  1
  Gd  Gd34  1  0.43747210  0.42893005  0.81541601  1
  Gd  Gd35  1  0.55411765  0.54505782  0.54843568  1
  N  N36  1  0.22432154  0.20096885  0.33915604  1
  N  N37  1  0.11010328  0.09457488  0.10108702  1
  N  N38  1  0.88641585  0.20704985  0.85436138  1
  N  N39  1  0.77673637  0.09451524  0.59819889  1
  N  N40  1  0.52600627  0.21743082  0.35786937  1
  N  N41  1  0.44393563  0.09409897  0.10382208  1
  N  N42  1  0.22245553  0.20703424  0.84833502  1
  N  N43  1  0.09563349  0.07480636  0.62270623  1
  N  N44  1  0.90939078  0.21703775  0.36877359  1
  N  N45  1  0.78195371  0.09267130  0.08708564  1
  N  N46  1  0.57256300  0.17449347  0.86334898  1
  N  N47  1  0.47651800  0.07806145  0.61855727  1
  N  N48  1  0.22344127  0.53882852  0.35196637  1
  N  N49  1  0.13978218  0.41202193  0.11387524  1
  N  N50  1  0.88587429  0.54339346  0.83907954  1
  N  N51  1  0.80823326  0.41317919  0.61050253  1
  N  N52  1  0.55311303  0.53861096  0.32982840  1
  N  N53  1  0.44335707  0.42659741  0.09240809  1
  N  N54  1  0.18293641  0.55994991  0.87195305  1
  N  N55  1  0.09735473  0.45917132  0.60863844  1
  N  N56  1  0.88878341  0.53834477  0.34838331  1
  N  N57  1  0.76897575  0.40708461  0.11342578  1
  N  N58  1  0.57295207  0.55499046  0.86074372  1
  N  N59  1  0.42842906  0.41497273  0.59715192  1
  N  N60  1  0.22159644  0.87233557  0.35718615  1
  N  N61  1  0.10732678  0.76514690  0.11083178  1
  N  N62  1  0.88769752  0.87155942  0.84981718  1
  N  N63  1  0.77428445  0.76022758  0.60422476  1
  N  N64  1  0.55293383  0.87280769  0.35908755  1
  N  N65  1  0.44388450  0.76565228  0.10524784  1
  N  N66  1  0.22196300  0.86838468  0.86363348  1
  N  N67  1  0.11703131  0.75679955  0.61039881  1
  N  N68  1  0.90835898  0.83806539  0.37248013  1
  N  N69  1  0.76197730  0.79867155  0.12010608  1
  N  N70  1  0.55989974  0.87022744  0.86323046  1
  N  N71  1  0.42610781  0.79767182  0.61799059  1
