# generated using pymatgen
data_Gd5Al31N36
_symmetry_space_group_name_H-M   'P 1'
_cell_length_a   9.74142779
_cell_length_b   9.76190799
_cell_length_c   10.19665333
_cell_angle_alpha   89.83687505
_cell_angle_beta   89.67873357
_cell_angle_gamma   60.02752210
_symmetry_Int_Tables_number   1
_chemical_formula_structural   Gd5Al31N36
_chemical_formula_sum   'Gd5 Al31 N36'
_cell_volume   839.96107383
_cell_formula_units_Z   1
loop_
 _symmetry_equiv_pos_site_id
 _symmetry_equiv_pos_as_xyz
  1  'x, y, z'
loop_
 _atom_site_type_symbol
 _atom_site_label
 _atom_site_symmetry_multiplicity
 _atom_site_fract_x
 _atom_site_fract_y
 _atom_site_fract_z
 _atom_site_occupancy
  Al  Al0  1  0.11302660  0.09695520  0.30404264  1
  Al  Al1  1  0.22358063  0.20424486  0.05464480  1
  Al  Al2  1  0.78873048  0.08631248  0.81805456  1
  Al  Al3  1  0.89865798  0.20052287  0.56587453  1
  Al  Al4  1  0.43577589  0.09398399  0.29326808  1
  Al  Al5  1  0.55532840  0.20126162  0.08257832  1
  Al  Al6  1  0.10984103  0.08787876  0.81505207  1
  Al  Al7  1  0.88717300  0.20305998  0.05410039  1
  Al  Al8  1  0.45426504  0.07958982  0.82104908  1
  Al  Al9  1  0.56486368  0.19276356  0.61719481  1
  Al  Al10  1  0.12117115  0.42205818  0.30862009  1
  Al  Al11  1  0.21055211  0.54981484  0.06430089  1
  Al  Al12  1  0.78828385  0.42704631  0.80701876  1
  Al  Al13  1  0.89071769  0.54228240  0.55600221  1
  Al  Al14  1  0.43366289  0.43686573  0.29035516  1
  Al  Al15  1  0.55709234  0.54565669  0.06332326  1
  Al  Al16  1  0.09958083  0.44104853  0.80399904  1
  Al  Al17  1  0.21860504  0.54129501  0.55414233  1
  Al  Al18  1  0.78055793  0.42511576  0.30794793  1
  Al  Al19  1  0.11253778  0.75755696  0.31256598  1
  Al  Al20  1  0.22014266  0.87308517  0.06168768  1
  Al  Al21  1  0.77549795  0.76134860  0.80329418  1
  Al  Al22  1  0.89791760  0.85837460  0.56687152  1
  Al  Al23  1  0.44089788  0.76654726  0.30445690  1
  Al  Al24  1  0.55325928  0.87669102  0.05910311  1
  Al  Al25  1  0.10605661  0.76444871  0.81060280  1
  Al  Al26  1  0.21732246  0.87281206  0.56197360  1
  Al  Al27  1  0.77568315  0.76369773  0.31597369  1
  Al  Al28  1  0.88596259  0.87871531  0.05442318  1
  Al  Al29  1  0.44464754  0.77110399  0.81412233  1
  Al  Al30  1  0.55960807  0.87166227  0.55933500  1
  Gd  Gd31  1  0.22768102  0.20072403  0.57033401  1
  Gd  Gd32  1  0.77930957  0.09203282  0.32173373  1
  Gd  Gd33  1  0.88769310  0.54487851  0.06784884  1
  Gd  Gd34  1  0.43635543  0.43251962  0.84046078  1
  Gd  Gd35  1  0.55402111  0.53744778  0.56097891  1
  N  N36  1  0.22392990  0.20112046  0.34987464  1
  N  N37  1  0.10818471  0.09588577  0.11233349  1
  N  N38  1  0.88963947  0.20727431  0.86669084  1
  N  N39  1  0.78625742  0.08880113  0.61410911  1
  N  N40  1  0.52320960  0.22227120  0.31022709  1
  N  N41  1  0.43804124  0.09057094  0.10343743  1
  N  N42  1  0.22066044  0.20796929  0.85796659  1
  N  N43  1  0.09978437  0.07437685  0.63199136  1
  N  N44  1  0.90728095  0.21988707  0.37976885  1
  N  N45  1  0.78186503  0.09338873  0.09702995  1
  N  N46  1  0.57391397  0.17515210  0.86307640  1
  N  N47  1  0.47784936  0.06885562  0.63434590  1
  N  N48  1  0.22416888  0.54053831  0.36386626  1
  N  N49  1  0.14108346  0.41225117  0.12452717  1
  N  N50  1  0.88634419  0.54283277  0.85029777  1
  N  N51  1  0.80811547  0.41270625  0.62117802  1
  N  N52  1  0.55133242  0.54118039  0.34110508  1
  N  N53  1  0.43662394  0.44012333  0.09358629  1
  N  N54  1  0.17820752  0.56181979  0.88187898  1
  N  N55  1  0.09676604  0.45832150  0.61753337  1
  N  N56  1  0.88837544  0.53908392  0.35786361  1
  N  N57  1  0.76721679  0.40947826  0.12361453  1
  N  N58  1  0.57530714  0.55615531  0.86966474  1
  N  N59  1  0.42844808  0.40717995  0.61529027  1
  N  N60  1  0.21983197  0.87414422  0.36752404  1
  N  N61  1  0.10480887  0.76776012  0.12262108  1
  N  N62  1  0.88940607  0.86922742  0.86295643  1
  N  N63  1  0.77565671  0.75841914  0.61473147  1
  N  N64  1  0.55140453  0.87544715  0.36836449  1
  N  N65  1  0.44231561  0.76710953  0.11646607  1
  N  N66  1  0.22300200  0.86773601  0.87377360  1
  N  N67  1  0.11963347  0.75472637  0.62090686  1
  N  N68  1  0.90682599  0.83789850  0.38356084  1
  N  N69  1  0.76019144  0.79902659  0.13034166  1
  N  N70  1  0.56162491  0.86613920  0.87311100  1
  N  N71  1  0.42886305  0.79146183  0.62556619  1
