# generated using pymatgen
data_Li2CdGeO4
_symmetry_space_group_name_H-M   'P 1'
_cell_length_a   5.22909464
_cell_length_b   5.62920831
_cell_length_c   6.77889873
_cell_angle_alpha   90.00025090
_cell_angle_beta   90.00033040
_cell_angle_gamma   90.00000085
_symmetry_Int_Tables_number   1
_chemical_formula_structural   Li2CdGeO4
_chemical_formula_sum   'Li4 Cd2 Ge2 O8'
_cell_volume   199.54137867
_cell_formula_units_Z   2
loop_
 _symmetry_equiv_pos_site_id
 _symmetry_equiv_pos_as_xyz
  1  'x, y, z'
loop_
 _atom_site_type_symbol
 _atom_site_label
 _atom_site_symmetry_multiplicity
 _atom_site_fract_x
 _atom_site_fract_y
 _atom_site_fract_z
 _atom_site_occupancy
  Ge  Ge0  1  0.58640814  0.17290547  0.01666730  1
  Ge  Ge1  1  0.00404372  0.80331122  0.51666809  1
  Li  Li2  1  0.08058126  0.31455282  0.26301619  1
  Li  Li3  1  0.08058361  0.31454993  0.77030944  1
  Li  Li4  1  0.57197411  0.65696761  0.26176341  1
  Li  Li5  1  0.57195836  0.65699059  0.77157228  1
  O  O6  1  0.92774754  0.18926232  0.01666522  1
  O  O7  1  0.50923282  0.86179482  0.01666915  1
  O  O8  1  0.97402457  0.64512409  0.73736925  1
  O  O9  1  0.97402315  0.64512328  0.29596164  1
  O  O10  1  0.45836567  0.32469206  0.80845288  1
  O  O11  1  0.45836528  0.32468961  0.22488199  1
  O  O12  1  0.00825922  0.11573451  0.51666434  1
  O  O13  1  0.50598489  0.78632634  0.51666399  1
  Cd  Cd14  1  0.08482770  0.82006450  0.01666700  1
  Cd  Cd15  1  0.53524725  0.16790437  0.51666657  1
