# generated using pymatgen
data_Li2CdGeO4
_symmetry_space_group_name_H-M   'P 1'
_cell_length_a   5.22909467
_cell_length_b   5.69017085
_cell_length_c   6.77144089
_cell_angle_alpha   89.99801769
_cell_angle_beta   89.98705760
_cell_angle_gamma   90.00000071
_symmetry_Int_Tables_number   1
_chemical_formula_structural   Li2CdGeO4
_chemical_formula_sum   'Li4 Cd2 Ge2 O8'
_cell_volume   201.48044049
_cell_formula_units_Z   2
loop_
 _symmetry_equiv_pos_site_id
 _symmetry_equiv_pos_as_xyz
  1  'x, y, z'
loop_
 _atom_site_type_symbol
 _atom_site_label
 _atom_site_symmetry_multiplicity
 _atom_site_fract_x
 _atom_site_fract_y
 _atom_site_fract_z
 _atom_site_occupancy
  Ge  Ge0  1  0.58787184  0.16854725  0.01669586  1
  Ge  Ge1  1  0.95645357  0.80671355  0.51667484  1
  Li  Li2  1  0.06018673  0.31818974  0.26870270  1
  Li  Li3  1  0.05916035  0.31824082  0.76448910  1
  Li  Li4  1  0.46860932  0.65771218  0.26813040  1
  Li  Li5  1  0.46857080  0.65769604  0.76520316  1
  O  O6  1  0.93001889  0.19176640  0.01679050  1
  O  O7  1  0.51075365  0.86139798  0.01663768  1
  O  O8  1  0.08129530  0.65855909  0.72636717  1
  O  O9  1  0.08134721  0.65860918  0.30696121  1
  O  O10  1  0.47180021  0.31827736  0.80495533  1
  O  O11  1  0.47113828  0.31814173  0.22832601  1
  O  O12  1  0.03143974  0.11428831  0.51671286  1
  O  O13  1  0.61600777  0.78072274  0.51665394  1
  Cd  Cd14  1  0.04921678  0.81910457  0.01666164  1
  Cd  Cd15  1  0.48775683  0.15202660  0.51669633  1
