# generated using pymatgen
data_Li2CdGeO4
_symmetry_space_group_name_H-M   'P 1'
_cell_length_a   5.22909467
_cell_length_b   5.69053027
_cell_length_c   6.77209332
_cell_angle_alpha   89.99892861
_cell_angle_beta   89.98746751
_cell_angle_gamma   90.00000077
_symmetry_Int_Tables_number   1
_chemical_formula_structural   Li2CdGeO4
_chemical_formula_sum   'Li4 Cd2 Ge2 O8'
_cell_volume   201.51258113
_cell_formula_units_Z   2
loop_
 _symmetry_equiv_pos_site_id
 _symmetry_equiv_pos_as_xyz
  1  'x, y, z'
loop_
 _atom_site_type_symbol
 _atom_site_label
 _atom_site_symmetry_multiplicity
 _atom_site_fract_x
 _atom_site_fract_y
 _atom_site_fract_z
 _atom_site_occupancy
  Ge  Ge0  1  0.58517238  0.16827464  0.01666083  1
  Ge  Ge1  1  0.95318778  0.80646679  0.51663912  1
  Li  Li2  1  0.07248622  0.31747953  0.26524062  1
  Li  Li3  1  0.07251583  0.31751274  0.76818322  1
  Li  Li4  1  0.48283936  0.65671872  0.26433720  1
  Li  Li5  1  0.48369969  0.65664038  0.76902633  1
  O  O6  1  0.92561050  0.19408745  0.01670588  1
  O  O7  1  0.51005972  0.86072295  0.01659845  1
  O  O8  1  0.06860207  0.65655353  0.72845013  1
  O  O9  1  0.06921444  0.65668551  0.30492030  1
  O  O10  1  0.46039615  0.31654129  0.80700321  1
  O  O11  1  0.46032864  0.31649157  0.22633675  1
  O  O12  1  0.03064299  0.11351677  0.51671670  1
  O  O13  1  0.61097966  0.78345548  0.51653467  1
  Cd  Cd14  1  0.05440348  0.82296103  0.01663322  1
  Cd  Cd15  1  0.49148835  0.15588515  0.51667211  1
