# generated using pymatgen
data_Li2CdGeO4
_symmetry_space_group_name_H-M   'P 1'
_cell_length_a   5.22909465
_cell_length_b   5.68199604
_cell_length_c   6.78142920
_cell_angle_alpha   89.99890261
_cell_angle_beta   89.99369572
_cell_angle_gamma   90.00000081
_symmetry_Int_Tables_number   1
_chemical_formula_structural   Li2CdGeO4
_chemical_formula_sum   'Li4 Cd2 Ge2 O8'
_cell_volume   201.48775515
_cell_formula_units_Z   2
loop_
 _symmetry_equiv_pos_site_id
 _symmetry_equiv_pos_as_xyz
  1  'x, y, z'
loop_
 _atom_site_type_symbol
 _atom_site_label
 _atom_site_symmetry_multiplicity
 _atom_site_fract_x
 _atom_site_fract_y
 _atom_site_fract_z
 _atom_site_occupancy
  Ge  Ge0  1  0.60198669  0.16807924  0.01669549  1
  Ge  Ge1  1  0.95458534  0.80510786  0.51667435  1
  Li  Li2  1  0.99893183  0.32132165  0.27758096  1
  Li  Li3  1  0.99807799  0.32139291  0.75571073  1
  Li  Li4  1  0.46973262  0.65793244  0.26932604  1
  Li  Li5  1  0.46973064  0.65789627  0.76401155  1
  O  O6  1  0.94721998  0.18249892  0.01675228  1
  O  O7  1  0.51111473  0.86438349  0.01663727  1
  O  O8  1  0.08191637  0.65385195  0.72449698  1
  O  O9  1  0.08191243  0.65391044  0.30882115  1
  O  O10  1  0.52240096  0.32574827  0.79987650  1
  O  O11  1  0.52169789  0.32569092  0.23336909  1
  O  O12  1  0.03186551  0.11291276  0.51669950  1
  O  O13  1  0.61483147  0.78417806  0.51666434  1
  Cd  Cd14  1  0.05617311  0.81167165  0.01664772  1
  Cd  Cd15  1  0.46944969  0.15341670  0.51669480  1
