# generated using pymatgen
data_Sc5Al13N18
_symmetry_space_group_name_H-M   'P 1'
_cell_length_a   10.18058858
_cell_length_b   10.17027472
_cell_length_c   9.15390923
_cell_angle_alpha   90.10701328
_cell_angle_beta   90.04181270
_cell_angle_gamma   59.97713705
_symmetry_Int_Tables_number   1
_chemical_formula_structural   Sc5Al13N18
_chemical_formula_sum   'Sc10 Al26 N36'
_cell_volume   820.61969412
_cell_formula_units_Z   2
loop_
 _symmetry_equiv_pos_site_id
 _symmetry_equiv_pos_as_xyz
  1  'x, y, z'
loop_
 _atom_site_type_symbol
 _atom_site_label
 _atom_site_symmetry_multiplicity
 _atom_site_fract_x
 _atom_site_fract_y
 _atom_site_fract_z
 _atom_site_occupancy
  Al  Al0  1  0.10847114  0.09448262  0.33640572  1
  Al  Al1  1  0.77068058  0.09443008  0.84147614  1
  Al  Al2  1  0.45511160  0.08801342  0.33908632  1
  Al  Al3  1  0.55717130  0.20263771  0.07799119  1
  Al  Al4  1  0.23124238  0.19685729  0.57496424  1
  Al  Al5  1  0.77427930  0.09764207  0.32037236  1
  Al  Al6  1  0.88300956  0.20567501  0.08475628  1
  Al  Al7  1  0.45261864  0.09520466  0.82483347  1
  Al  Al8  1  0.56091408  0.19851455  0.58408218  1
  Al  Al9  1  0.10709463  0.42529711  0.33237210  1
  Al  Al10  1  0.22190293  0.54398818  0.08422618  1
  Al  Al11  1  0.76461084  0.42914984  0.84050217  1
  Al  Al12  1  0.55673124  0.53544858  0.09019244  1
  Al  Al13  1  0.78104939  0.42515986  0.32334288  1
  Al  Al14  1  0.88022280  0.54499863  0.08316523  1
  Al  Al15  1  0.45297278  0.42276365  0.83867911  1
  Al  Al16  1  0.55398145  0.54470785  0.57454253  1
  Al  Al17  1  0.21889687  0.86849652  0.08984422  1
  Al  Al18  1  0.77545531  0.76970241  0.83352695  1
  Al  Al19  1  0.87963117  0.88534976  0.58590786  1
  Al  Al20  1  0.44746087  0.76818346  0.32649867  1
  Al  Al21  1  0.56390670  0.87595386  0.07693306  1
  Al  Al22  1  0.10638253  0.76695109  0.83655014  1
  Al  Al23  1  0.22976467  0.87391317  0.57575706  1
  Al  Al24  1  0.88867093  0.87117532  0.07876493  1
  Al  Al25  1  0.54936218  0.87744230  0.58626003  1
  Sc  Sc26  1  0.23493027  0.19575731  0.10681741  1
  Sc  Sc27  1  0.88336435  0.20333861  0.59425419  1
  Sc  Sc28  1  0.11325510  0.09055195  0.84718203  1
  Sc  Sc29  1  0.88458842  0.53595510  0.60040592  1
  Sc  Sc30  1  0.44834528  0.42218550  0.34487146  1
  Sc  Sc31  1  0.11302231  0.42213040  0.85561613  1
  Sc  Sc32  1  0.22309371  0.53724967  0.60389288  1
  Sc  Sc33  1  0.10754586  0.76610119  0.34602909  1
  Sc  Sc34  1  0.77417489  0.76338694  0.34613622  1
  Sc  Sc35  1  0.44877824  0.75745499  0.84971938  1
  N  N36  1  0.22543901  0.20370324  0.35695864  1
  N  N37  1  0.09973828  0.08659263  0.11612426  1
  N  N38  1  0.87159536  0.21250987  0.86659453  1
  N  N39  1  0.76533005  0.08873845  0.63330078  1
  N  N40  1  0.56813208  0.18712858  0.37384174  1
  N  N41  1  0.47236485  0.08153153  0.13016068  1
  N  N42  1  0.24908496  0.18773198  0.87551639  1
  N  N43  1  0.12918817  0.08610484  0.60414644  1
  N  N44  1  0.88322913  0.20685548  0.35419375  1
  N  N45  1  0.77551535  0.09419309  0.10882887  1
  N  N46  1  0.55253512  0.20662511  0.86869849  1
  N  N47  1  0.44491971  0.09617610  0.61347612  1
  N  N48  1  0.21203208  0.52931301  0.36491356  1
  N  N49  1  0.10122551  0.44396915  0.10809712  1
  N  N50  1  0.86533943  0.55027007  0.86400747  1
  N  N51  1  0.75477516  0.43577277  0.62765714  1
  N  N52  1  0.56489388  0.55086143  0.35874507  1
  N  N53  1  0.44277738  0.42450612  0.10969752  1
  N  N54  1  0.23136792  0.54701826  0.85969187  1
  N  N55  1  0.12054750  0.40351544  0.61935759  1
  N  N56  1  0.89627755  0.51947053  0.35977804  1
  N  N57  1  0.77811977  0.42658137  0.11290053  1
  N  N58  1  0.55885115  0.52297766  0.88142409  1
  N  N59  1  0.46405770  0.41850901  0.61190866  1
  N  N60  1  0.23420723  0.87865989  0.35977271  1
  N  N61  1  0.10792454  0.76025485  0.11017528  1
  N  N62  1  0.88973852  0.87115282  0.86857235  1
  N  N63  1  0.76924135  0.77884797  0.61388338  1
  N  N64  1  0.53923149  0.88064280  0.37626400  1
  N  N65  1  0.44845358  0.76481605  0.11138124  1
  N  N66  1  0.21616995  0.86116373  0.87842918  1
  N  N67  1  0.10024804  0.78496987  0.61358989  1
  N  N68  1  0.87643327  0.89558511  0.37220583  1
  N  N69  1  0.77878949  0.76176909  0.10921433  1
  N  N70  1  0.56522997  0.88539828  0.86563330  1
  N  N71  1  0.44424311  0.75980450  0.61318482  1
