# generated using pymatgen
data_Sc5Al13N18
_symmetry_space_group_name_H-M   'P 1'
_cell_length_a   9.84678105
_cell_length_b   9.83750998
_cell_length_c   10.10338569
_cell_angle_alpha   89.91832753
_cell_angle_beta   90.02395955
_cell_angle_gamma   59.99131107
_symmetry_Int_Tables_number   1
_chemical_formula_structural   Sc5Al13N18
_chemical_formula_sum   'Sc10 Al26 N36'
_cell_volume   847.49703632
_cell_formula_units_Z   2
loop_
 _symmetry_equiv_pos_site_id
 _symmetry_equiv_pos_as_xyz
  1  'x, y, z'
loop_
 _atom_site_type_symbol
 _atom_site_label
 _atom_site_symmetry_multiplicity
 _atom_site_fract_x
 _atom_site_fract_y
 _atom_site_fract_z
 _atom_site_occupancy
  Al  Al0  1  0.10756474  0.09351505  0.30186142  1
  Al  Al1  1  0.77125527  0.09469476  0.80849549  1
  Al  Al2  1  0.45285942  0.08937366  0.30702870  1
  Al  Al3  1  0.55957581  0.20258743  0.05054293  1
  Al  Al4  1  0.23100294  0.19811495  0.54464902  1
  Al  Al5  1  0.77486049  0.09600317  0.29829549  1
  Al  Al6  1  0.88203744  0.20454452  0.05522846  1
  Al  Al7  1  0.45218564  0.09486235  0.80182584  1
  Al  Al8  1  0.55939603  0.19711358  0.55686325  1
  Al  Al9  1  0.10728388  0.42781149  0.29613300  1
  Al  Al10  1  0.22448637  0.54564804  0.04509997  1
  Al  Al11  1  0.76679074  0.42776191  0.80997547  1
  Al  Al12  1  0.55640935  0.53474332  0.05493434  1
  Al  Al13  1  0.78056444  0.42576836  0.29640003  1
  Al  Al14  1  0.87801337  0.54666378  0.04996316  1
  Al  Al15  1  0.45568812  0.42088925  0.80333166  1
  Al  Al16  1  0.55630083  0.54338833  0.55203852  1
  Al  Al17  1  0.21846823  0.86829629  0.05564041  1
  Al  Al18  1  0.77365266  0.77071868  0.80339749  1
  Al  Al19  1  0.87922299  0.88428357  0.55944504  1
  Al  Al20  1  0.44590310  0.76732490  0.30135039  1
  Al  Al21  1  0.56383018  0.87472815  0.05132218  1
  Al  Al22  1  0.10597542  0.76968363  0.80301995  1
  Al  Al23  1  0.22865720  0.87501965  0.54892231  1
  Al  Al24  1  0.88902171  0.87156334  0.04789233  1
  Al  Al25  1  0.54817915  0.87837975  0.55502689  1
  Sc  Sc26  1  0.23196664  0.19672326  0.07781943  1
  Sc  Sc27  1  0.88518856  0.20234518  0.55630227  1
  Sc  Sc28  1  0.11256412  0.09335039  0.80960977  1
  Sc  Sc29  1  0.88690846  0.53584998  0.56441753  1
  Sc  Sc30  1  0.44755550  0.42424690  0.31243204  1
  Sc  Sc31  1  0.11212278  0.42353595  0.82610363  1
  Sc  Sc32  1  0.22245683  0.53779160  0.57394532  1
  Sc  Sc33  1  0.10831966  0.76505556  0.30995938  1
  Sc  Sc34  1  0.77427230  0.76290452  0.31042017  1
  Sc  Sc35  1  0.44959487  0.75833410  0.81533322  1
  N  N36  1  0.22424958  0.20480542  0.34120070  1
  N  N37  1  0.09843970  0.08311295  0.11064519  1
  N  N38  1  0.87109634  0.21195786  0.86313893  1
  N  N39  1  0.76530777  0.08931119  0.62236565  1
  N  N40  1  0.56637899  0.18705241  0.36756341  1
  N  N41  1  0.47401761  0.08112206  0.12030986  1
  N  N42  1  0.24951940  0.18696271  0.87228676  1
  N  N43  1  0.13019411  0.08724129  0.59782331  1
  N  N44  1  0.88408306  0.20692157  0.34507943  1
  N  N45  1  0.77651236  0.09233174  0.10701522  1
  N  N46  1  0.55468917  0.20573934  0.86070611  1
  N  N47  1  0.44361932  0.09534612  0.60908817  1
  N  N48  1  0.21074875  0.52866659  0.36417963  1
  N  N49  1  0.10029987  0.44861942  0.09616509  1
  N  N50  1  0.86240465  0.55198583  0.85762092  1
  N  N51  1  0.75814807  0.43402270  0.62287062  1
  N  N52  1  0.56673741  0.55074217  0.36031787  1
  N  N53  1  0.44286174  0.42601827  0.10109381  1
  N  N54  1  0.23366572  0.54883237  0.84791361  1
  N  N55  1  0.12191012  0.40032987  0.61805012  1
  N  N56  1  0.89865568  0.51765292  0.35286397  1
  N  N57  1  0.77647031  0.42784010  0.10678498  1
  N  N58  1  0.56041446  0.52141216  0.86901837  1
  N  N59  1  0.46637025  0.41622909  0.60743306  1
  N  N60  1  0.23291720  0.87971144  0.35896004  1
  N  N61  1  0.10911323  0.75944456  0.09969165  1
  N  N62  1  0.88929349  0.87223526  0.85858902  1
  N  N63  1  0.76657757  0.77979962  0.60990807  1
  N  N64  1  0.53774614  0.88198248  0.36686804  1
  N  N65  1  0.44661792  0.76272443  0.10416161  1
  N  N66  1  0.21467052  0.86370108  0.86989355  1
  N  N67  1  0.09884971  0.78774609  0.61002372  1
  N  N68  1  0.87749618  0.89405227  0.37120293  1
  N  N69  1  0.77980566  0.76160859  0.10039444  1
  N  N70  1  0.56571636  0.88559056  0.86327140  1
  N  N71  1  0.44426660  0.76059933  0.60408627  1
