# generated using pymatgen
data_Sc5Al13N18
_symmetry_space_group_name_H-M   'P 1'
_cell_length_a   9.85501364
_cell_length_b   9.84529635
_cell_length_c   10.09481630
_cell_angle_alpha   89.98217585
_cell_angle_beta   90.03108678
_cell_angle_gamma   59.97679385
_symmetry_Int_Tables_number   1
_chemical_formula_structural   Sc5Al13N18
_chemical_formula_sum   'Sc10 Al26 N36'
_cell_volume   848.03408785
_cell_formula_units_Z   2
loop_
 _symmetry_equiv_pos_site_id
 _symmetry_equiv_pos_as_xyz
  1  'x, y, z'
loop_
 _atom_site_type_symbol
 _atom_site_label
 _atom_site_symmetry_multiplicity
 _atom_site_fract_x
 _atom_site_fract_y
 _atom_site_fract_z
 _atom_site_occupancy
  Al  Al0  1  0.11917980  0.09270215  0.40616098  1
  Al  Al1  1  0.77269538  0.09823029  0.90440570  1
  Al  Al2  1  0.44446239  0.09298387  0.40693348  1
  Al  Al3  1  0.56389582  0.19577477  0.15126942  1
  Al  Al4  1  0.23624567  0.19381185  0.65232714  1
  Al  Al5  1  0.77158270  0.09222827  0.40320330  1
  Al  Al6  1  0.88519309  0.20228129  0.16048510  1
  Al  Al7  1  0.45834506  0.09135654  0.90142708  1
  Al  Al8  1  0.55600066  0.20227021  0.65607982  1
  Al  Al9  1  0.11245580  0.41667358  0.40704478  1
  Al  Al10  1  0.21844194  0.53984211  0.15346746  1
  Al  Al11  1  0.77043420  0.42533794  0.90964503  1
  Al  Al12  1  0.55705133  0.54484745  0.15268478  1
  Al  Al13  1  0.77563874  0.42906643  0.39669935  1
  Al  Al14  1  0.88898162  0.53488050  0.15407957  1
  Al  Al15  1  0.45015344  0.42313561  0.90987369  1
  Al  Al16  1  0.55583232  0.53364874  0.65429587  1
  Al  Al17  1  0.22574736  0.87156837  0.15654047  1
  Al  Al18  1  0.77484358  0.76536545  0.91075178  1
  Al  Al19  1  0.88151957  0.87818271  0.65965165  1
  Al  Al20  1  0.44582056  0.76703195  0.40625172  1
  Al  Al21  1  0.55288307  0.87355985  0.15358207  1
  Al  Al22  1  0.11063182  0.76098918  0.90972499  1
  Al  Al23  1  0.22147179  0.87184569  0.65128307  1
  Al  Al24  1  0.88581658  0.87902686  0.14586829  1
  Al  Al25  1  0.55819514  0.88000386  0.65334126  1
  Sc  Sc26  1  0.22774519  0.20141145  0.15214075  1
  Sc  Sc27  1  0.88366759  0.20409943  0.63634096  1
  Sc  Sc28  1  0.10519048  0.09237034  0.89660694  1
  Sc  Sc29  1  0.87726994  0.54508539  0.64757967  1
  Sc  Sc30  1  0.45311391  0.42217450  0.38677312  1
  Sc  Sc31  1  0.10907169  0.43052285  0.89519133  1
  Sc  Sc32  1  0.22695510  0.54252255  0.64816793  1
  Sc  Sc33  1  0.10645623  0.77016466  0.39026411  1
  Sc  Sc34  1  0.77355689  0.76464434  0.38630878  1
  Sc  Sc35  1  0.44913735  0.75937339  0.88885841  1
  N  N36  1  0.22586905  0.20270984  0.36064038  1
  N  N37  1  0.09970735  0.08677103  0.10715124  1
  N  N38  1  0.86767066  0.21548161  0.84685757  1
  N  N39  1  0.76383176  0.08463832  0.59264931  1
  N  N40  1  0.56308485  0.18389929  0.33931190  1
  N  N41  1  0.46615309  0.08321156  0.08960080  1
  N  N42  1  0.24618511  0.19057208  0.84508457  1
  N  N43  1  0.13170933  0.08421078  0.59844304  1
  N  N44  1  0.88681888  0.20317422  0.35756116  1
  N  N45  1  0.77742166  0.09734694  0.09382879  1
  N  N46  1  0.55637456  0.20715299  0.84837025  1
  N  N47  1  0.44836262  0.09436186  0.59667619  1
  N  N48  1  0.21167341  0.52853723  0.34659209  1
  N  N49  1  0.10249632  0.44219430  0.10219607  1
  N  N50  1  0.86251450  0.54996634  0.85842304  1
  N  N51  1  0.75569313  0.43923493  0.58222189  1
  N  N52  1  0.56328336  0.55586569  0.33968143  1
  N  N53  1  0.44702249  0.42588329  0.10804972  1
  N  N54  1  0.23424437  0.54642613  0.85942407  1
  N  N55  1  0.11912174  0.40904992  0.60180877  1
  N  N56  1  0.90072964  0.51637693  0.34657066  1
  N  N57  1  0.77783905  0.42390527  0.10194397  1
  N  N58  1  0.56290805  0.51872177  0.84569390  1
  N  N59  1  0.46321170  0.41525229  0.59728588  1
  N  N60  1  0.23471954  0.88122890  0.34552039  1
  N  N61  1  0.11279404  0.76183341  0.10527373  1
  N  N62  1  0.88918635  0.87117466  0.85591218  1
  N  N63  1  0.76947080  0.78097413  0.59614699  1
  N  N64  1  0.53390584  0.88577082  0.34260267  1
  N  N65  1  0.44359064  0.76380799  0.09979633  1
  N  N66  1  0.21245850  0.86140237  0.83858603  1
  N  N67  1  0.09433066  0.78488252  0.59920479  1
  N  N68  1  0.87774623  0.89371545  0.33019912  1
  N  N69  1  0.77639120  0.75986615  0.10713032  1
  N  N70  1  0.56951975  0.88236540  0.84179480  1
  N  N71  1  0.44621926  0.76011527  0.60543607  1
