# generated using pymatgen
data_Sc5Al13N18
_symmetry_space_group_name_H-M   'P 1'
_cell_length_a   10.33979561
_cell_length_b   10.32747508
_cell_length_c   8.69339807
_cell_angle_alpha   90.07749043
_cell_angle_beta   90.00141914
_cell_angle_gamma   60.05597935
_symmetry_Int_Tables_number   1
_chemical_formula_structural   Sc5Al13N18
_chemical_formula_sum   'Sc10 Al26 N36'
_cell_volume   804.39708974
_cell_formula_units_Z   2
loop_
 _symmetry_equiv_pos_site_id
 _symmetry_equiv_pos_as_xyz
  1  'x, y, z'
loop_
 _atom_site_type_symbol
 _atom_site_label
 _atom_site_symmetry_multiplicity
 _atom_site_fract_x
 _atom_site_fract_y
 _atom_site_fract_z
 _atom_site_occupancy
  Al  Al0  1  0.11472797  0.09241334  0.35276601  1
  Al  Al1  1  0.77122366  0.09914798  0.86323909  1
  Al  Al2  1  0.44908047  0.09198437  0.36251149  1
  Al  Al3  1  0.56235322  0.19894581  0.10658862  1
  Al  Al4  1  0.23374231  0.19610035  0.59940256  1
  Al  Al5  1  0.77323849  0.09421534  0.35616159  1
  Al  Al6  1  0.88405347  0.20330553  0.11006430  1
  Al  Al7  1  0.45615927  0.09168081  0.86077579  1
  Al  Al8  1  0.55724212  0.20067456  0.61516694  1
  Al  Al9  1  0.11056065  0.42192810  0.35107104  1
  Al  Al10  1  0.22135161  0.54144215  0.10067215  1
  Al  Al11  1  0.77058075  0.42640411  0.87219610  1
  Al  Al12  1  0.55542119  0.54122868  0.10702685  1
  Al  Al13  1  0.77465027  0.42887855  0.34753560  1
  Al  Al14  1  0.88492248  0.53947335  0.10446341  1
  Al  Al15  1  0.45125106  0.42250079  0.86057452  1
  Al  Al16  1  0.55420257  0.53863346  0.60826096  1
  Al  Al17  1  0.22343210  0.87006889  0.10606035  1
  Al  Al18  1  0.77365689  0.76577646  0.86044824  1
  Al  Al19  1  0.88238094  0.87919905  0.62579209  1
  Al  Al20  1  0.44585212  0.76566163  0.35389026  1
  Al  Al21  1  0.55690613  0.87340359  0.10894021  1
  Al  Al22  1  0.10935192  0.76327250  0.85956162  1
  Al  Al23  1  0.22458210  0.87285251  0.59982467  1
  Al  Al24  1  0.88513037  0.87871310  0.09865685  1
  Al  Al25  1  0.55507768  0.87937030  0.60758623  1
  Sc  Sc26  1  0.23192423  0.19867532  0.10818185  1
  Sc  Sc27  1  0.88246194  0.20579533  0.59798138  1
  Sc  Sc28  1  0.10885922  0.09246181  0.85273117  1
  Sc  Sc29  1  0.88112917  0.53946421  0.60313748  1
  Sc  Sc30  1  0.45188919  0.42196863  0.34837607  1
  Sc  Sc31  1  0.11088518  0.42640151  0.85570562  1
  Sc  Sc32  1  0.22469131  0.53968118  0.60473148  1
  Sc  Sc33  1  0.10533126  0.76949427  0.34922358  1
  Sc  Sc34  1  0.77529217  0.76615107  0.34941357  1
  Sc  Sc35  1  0.44861718  0.75994302  0.85260184  1
  N  N36  1  0.22771107  0.20225623  0.35722141  1
  N  N37  1  0.10256527  0.08699816  0.11017287  1
  N  N38  1  0.87138997  0.21439202  0.85460602  1
  N  N39  1  0.76710589  0.08609923  0.59768820  1
  N  N40  1  0.56401274  0.18856647  0.34078637  1
  N  N41  1  0.46640723  0.08349303  0.09532252  1
  N  N42  1  0.24514718  0.19143637  0.84902295  1
  N  N43  1  0.12600301  0.08726642  0.59243652  1
  N  N44  1  0.88456671  0.20440280  0.34201281  1
  N  N45  1  0.77541299  0.09746875  0.09041760  1
  N  N46  1  0.55608503  0.20520405  0.84789119  1
  N  N47  1  0.44830761  0.09496500  0.59445772  1
  N  N48  1  0.21504210  0.53166385  0.34566679  1
  N  N49  1  0.10406741  0.43947985  0.10619222  1
  N  N50  1  0.86798983  0.54551419  0.85987946  1
  N  N51  1  0.75770808  0.43555090  0.58486517  1
  N  N52  1  0.56001160  0.55114367  0.33808150  1
  N  N53  1  0.44686301  0.42413681  0.09315209  1
  N  N54  1  0.23104309  0.54517625  0.85890653  1
  N  N55  1  0.11803494  0.40988794  0.59890264  1
  N  N56  1  0.89541654  0.52333330  0.34169391  1
  N  N57  1  0.77640037  0.42551391  0.10260981  1
  N  N58  1  0.56205592  0.52423983  0.85318843  1
  N  N59  1  0.46168197  0.41714286  0.60483606  1
  N  N60  1  0.23233090  0.87788306  0.34905484  1
  N  N61  1  0.11150686  0.76199957  0.09279947  1
  N  N62  1  0.88737261  0.87395709  0.85667965  1
  N  N63  1  0.77213792  0.77741372  0.60564109  1
  N  N64  1  0.54076462  0.88181898  0.34859747  1
  N  N65  1  0.44464459  0.76496949  0.10485932  1
  N  N66  1  0.21715104  0.86327434  0.84971707  1
  N  N67  1  0.09700585  0.78179945  0.60667825  1
  N  N68  1  0.87869696  0.89126981  0.32838919  1
  N  N69  1  0.77535555  0.76124979  0.09258418  1
  N  N70  1  0.56371179  0.88188839  0.84328584  1
  N  N71  1  0.44602115  0.75956467  0.59407714  1
