# generated using pymatgen
data_Sc5Al13N18
_symmetry_space_group_name_H-M   'P 1'
_cell_length_a   10.26269427
_cell_length_b   10.24917536
_cell_length_c   8.91150162
_cell_angle_alpha   90.06950836
_cell_angle_beta   89.99638189
_cell_angle_gamma   60.04496403
_symmetry_Int_Tables_number   1
_chemical_formula_structural   Sc5Al13N18
_chemical_formula_sum   'Sc10 Al26 N36'
_cell_volume   812.13454373
_cell_formula_units_Z   2
loop_
 _symmetry_equiv_pos_site_id
 _symmetry_equiv_pos_as_xyz
  1  'x, y, z'
loop_
 _atom_site_type_symbol
 _atom_site_label
 _atom_site_symmetry_multiplicity
 _atom_site_fract_x
 _atom_site_fract_y
 _atom_site_fract_z
 _atom_site_occupancy
  Al  Al0  1  0.11621328  0.09266973  0.35850104  1
  Al  Al1  1  0.77096969  0.10133224  0.86757660  1
  Al  Al2  1  0.44767539  0.09291543  0.36899712  1
  Al  Al3  1  0.56413706  0.19711670  0.11402474  1
  Al  Al4  1  0.23452175  0.19539783  0.60473227  1
  Al  Al5  1  0.77240794  0.09247437  0.36740622  1
  Al  Al6  1  0.88476580  0.20184374  0.11956680  1
  Al  Al7  1  0.45794139  0.09073515  0.86835991  1
  Al  Al8  1  0.55615094  0.20170954  0.62208068  1
  Al  Al9  1  0.11126480  0.42048448  0.35415550  1
  Al  Al10  1  0.22127635  0.54085077  0.10398763  1
  Al  Al11  1  0.77148762  0.42535293  0.87940380  1
  Al  Al12  1  0.55450784  0.54408841  0.11135773  1
  Al  Al13  1  0.77308053  0.43031035  0.35202896  1
  Al  Al14  1  0.88621932  0.53835207  0.10917857  1
  Al  Al15  1  0.45041876  0.42236838  0.86856904  1
  Al  Al16  1  0.55513240  0.53582376  0.62019458  1
  Al  Al17  1  0.22537755  0.87066561  0.11680039  1
  Al  Al18  1  0.77326951  0.76456440  0.86900425  1
  Al  Al19  1  0.88242582  0.87815742  0.63217050  1
  Al  Al20  1  0.44619933  0.76512269  0.36593837  1
  Al  Al21  1  0.55459550  0.87318814  0.11869790  1
  Al  Al22  1  0.11073336  0.76181193  0.86720137  1
  Al  Al23  1  0.22249897  0.87214273  0.60940481  1
  Al  Al24  1  0.88459286  0.88050024  0.10077928  1
  Al  Al25  1  0.55731487  0.88005582  0.61406865  1
  Sc  Sc26  1  0.23138726  0.19888609  0.10815848  1
  Sc  Sc27  1  0.88215856  0.20672529  0.59838122  1
  Sc  Sc28  1  0.10729477  0.09260922  0.85423403  1
  Sc  Sc29  1  0.87987810  0.54073541  0.60382217  1
  Sc  Sc30  1  0.45283862  0.42244292  0.34939237  1
  Sc  Sc31  1  0.11037681  0.42715685  0.85533281  1
  Sc  Sc32  1  0.22505762  0.54018464  0.60474653  1
  Sc  Sc33  1  0.10454948  0.77019752  0.35042323  1
  Sc  Sc34  1  0.77549932  0.76663898  0.34988089  1
  Sc  Sc35  1  0.44818522  0.76144133  0.85301212  1
  N  N36  1  0.22729305  0.20253795  0.35273804  1
  N  N37  1  0.10159173  0.08685027  0.10512858  1
  N  N38  1  0.87013985  0.21583024  0.84455540  1
  N  N39  1  0.76624151  0.08482272  0.59094957  1
  N  N40  1  0.56425770  0.18721536  0.33327631  1
  N  N41  1  0.46779816  0.08237568  0.08782716  1
  N  N42  1  0.24622702  0.19056435  0.84764915  1
  N  N43  1  0.12726904  0.08679406  0.59076716  1
  N  N44  1  0.88512595  0.20318617  0.34254672  1
  N  N45  1  0.77574477  0.09903311  0.08290705  1
  N  N46  1  0.55576789  0.20609190  0.84196073  1
  N  N47  1  0.44829831  0.09542701  0.58825578  1
  N  N48  1  0.21467716  0.53091083  0.34456656  1
  N  N49  1  0.10386005  0.44023321  0.10164015  1
  N  N50  1  0.86628702  0.54622092  0.85555944  1
  N  N51  1  0.75568019  0.43728433  0.57449877  1
  N  N52  1  0.55944973  0.55390621  0.32888571  1
  N  N53  1  0.44705471  0.42417880  0.09294091  1
  N  N54  1  0.23205577  0.54516728  0.85584657  1
  N  N55  1  0.11833329  0.40913764  0.59927546  1
  N  N56  1  0.89671912  0.52217551  0.33997463  1
  N  N57  1  0.77761177  0.42403460  0.09969518  1
  N  N58  1  0.56276498  0.52263235  0.84716827  1
  N  N59  1  0.46224831  0.41653508  0.59694752  1
  N  N60  1  0.23355613  0.87837839  0.34287367  1
  N  N61  1  0.11359872  0.76195854  0.09200242  1
  N  N62  1  0.88792478  0.87261429  0.85508102  1
  N  N63  1  0.77264058  0.77822593  0.59660024  1
  N  N64  1  0.53877786  0.88274465  0.34154901  1
  N  N65  1  0.44357408  0.76612305  0.09503651  1
  N  N66  1  0.21572706  0.86269562  0.83669730  1
  N  N67  1  0.09474220  0.78234355  0.59829496  1
  N  N68  1  0.87800699  0.89281971  0.31857402  1
  N  N69  1  0.77424958  0.76056403  0.09244240  1
  N  N70  1  0.56565769  0.88231652  0.83454766  1
  N  N71  1  0.44658486  0.75874711  0.59322074  1
