# generated using pymatgen
data_Sc5Al13N18
_symmetry_space_group_name_H-M   'P 1'
_cell_length_a   10.29514261
_cell_length_b   10.28749439
_cell_length_c   8.81513735
_cell_angle_alpha   90.15827782
_cell_angle_beta   90.05615658
_cell_angle_gamma   59.99915618
_symmetry_Int_Tables_number   1
_chemical_formula_structural   Sc5Al13N18
_chemical_formula_sum   'Sc10 Al26 N36'
_cell_volume   808.53029452
_cell_formula_units_Z   2
loop_
 _symmetry_equiv_pos_site_id
 _symmetry_equiv_pos_as_xyz
  1  'x, y, z'
loop_
 _atom_site_type_symbol
 _atom_site_label
 _atom_site_symmetry_multiplicity
 _atom_site_fract_x
 _atom_site_fract_y
 _atom_site_fract_z
 _atom_site_occupancy
  Al  Al0  1  0.11181274  0.09357897  0.34592529  1
  Al  Al1  1  0.77120046  0.09585214  0.84967049  1
  Al  Al2  1  0.45343079  0.08903072  0.34696640  1
  Al  Al3  1  0.55705118  0.20176822  0.08285020  1
  Al  Al4  1  0.23189899  0.19648346  0.58645250  1
  Al  Al5  1  0.77321635  0.09817460  0.32464528  1
  Al  Al6  1  0.88409447  0.20608469  0.09428865  1
  Al  Al7  1  0.45321340  0.09447768  0.82990254  1
  Al  Al8  1  0.56080290  0.19984421  0.59193022  1
  Al  Al9  1  0.10898013  0.42260958  0.34660667  1
  Al  Al10  1  0.22055670  0.54133716  0.09766357  1
  Al  Al11  1  0.76641395  0.42857998  0.84960762  1
  Al  Al12  1  0.55700011  0.53806359  0.09701125  1
  Al  Al13  1  0.77927531  0.42598227  0.32959577  1
  Al  Al14  1  0.88323531  0.54129539  0.09507828  1
  Al  Al15  1  0.45103397  0.42384084  0.85161844  1
  Al  Al16  1  0.55345436  0.54245250  0.58086554  1
  Al  Al17  1  0.22205021  0.86963904  0.09775432  1
  Al  Al18  1  0.77596236  0.76722284  0.84961374  1
  Al  Al19  1  0.88201204  0.88174490  0.60545235  1
  Al  Al20  1  0.44711572  0.76765541  0.33878751  1
  Al  Al21  1  0.56021731  0.87575029  0.08450933  1
  Al  Al22  1  0.10812928  0.76402861  0.85487655  1
  Al  Al23  1  0.22722788  0.87283040  0.58500242  1
  Al  Al24  1  0.88687771  0.87423851  0.08993919  1
  Al  Al25  1  0.55263066  0.87736936  0.59341147  1
  Sc  Sc26  1  0.23403592  0.19706247  0.10753361  1
  Sc  Sc27  1  0.88176089  0.20404679  0.59673271  1
  Sc  Sc28  1  0.11134637  0.09069605  0.85051221  1
  Sc  Sc29  1  0.88199412  0.53848676  0.60269625  1
  Sc  Sc30  1  0.44998464  0.42086481  0.34556389  1
  Sc  Sc31  1  0.11181653  0.42440721  0.85580708  1
  Sc  Sc32  1  0.22427330  0.53946963  0.60522011  1
  Sc  Sc33  1  0.10625864  0.76815826  0.34777468  1
  Sc  Sc34  1  0.77392636  0.76548447  0.34780474  1
  Sc  Sc35  1  0.44884423  0.75711436  0.85040895  1
  N  N36  1  0.22695142  0.20234373  0.35826173  1
  N  N37  1  0.10159972  0.08726872  0.11304587  1
  N  N38  1  0.87247820  0.21290414  0.86287093  1
  N  N39  1  0.76696331  0.08780791  0.62611678  1
  N  N40  1  0.56739666  0.18811589  0.36689256  1
  N  N41  1  0.46933952  0.08280168  0.12272539  1
  N  N42  1  0.24622431  0.18993230  0.86043715  1
  N  N43  1  0.12670136  0.08638252  0.59523642  1
  N  N44  1  0.88290111  0.20683452  0.34551479  1
  N  N45  1  0.77401914  0.09650143  0.10009768  1
  N  N46  1  0.55248539  0.20635528  0.86125810  1
  N  N47  1  0.44657504  0.09561217  0.60642411  1
  N  N48  1  0.21347214  0.53098873  0.35094156  1
  N  N49  1  0.10258958  0.44044499  0.10757148  1
  N  N50  1  0.86783508  0.54756773  0.86208149  1
  N  N51  1  0.75607141  0.43549119  0.61718813  1
  N  N52  1  0.56375952  0.54924483  0.35055488  1
  N  N53  1  0.44416937  0.42351296  0.10009018  1
  N  N54  1  0.23061452  0.54545228  0.85953509  1
  N  N55  1  0.11878505  0.40796786  0.60410776  1
  N  N56  1  0.89463350  0.52219406  0.34851221  1
  N  N57  1  0.77745328  0.42650786  0.10687664  1
  N  N58  1  0.55893794  0.52466231  0.87420212  1
  N  N59  1  0.46265836  0.41916224  0.60871331  1
  N  N60  1  0.23313839  0.87775399  0.35251388  1
  N  N61  1  0.10922316  0.76087070  0.09864640  1
  N  N62  1  0.88949644  0.87167350  0.86231463  1
  N  N63  1  0.77087136  0.77775338  0.61103051  1
  N  N64  1  0.54132184  0.88033836  0.36904877  1
  N  N65  1  0.44809770  0.76527217  0.11039130  1
  N  N66  1  0.21768549  0.86187523  0.86758386  1
  N  N67  1  0.10007539  0.78295754  0.60925771  1
  N  N68  1  0.87711403  0.89416314  0.35190882  1
  N  N69  1  0.77730159  0.76181232  0.09779706  1
  N  N70  1  0.56339577  0.88430972  0.85747580  1
  N  N71  1  0.44447084  0.75940399  0.60164270  1
