# generated using pymatgen
data_Sc5Al13N18
_symmetry_space_group_name_H-M   'P 1'
_cell_length_a   10.04431877
_cell_length_b   10.03471170
_cell_length_c   9.55255429
_cell_angle_alpha   90.04157298
_cell_angle_beta   90.00673761
_cell_angle_gamma   59.97037942
_symmetry_Int_Tables_number   1
_chemical_formula_structural   Sc5Al13N18
_chemical_formula_sum   'Sc10 Al26 N36'
_cell_volume   833.57695065
_cell_formula_units_Z   2
loop_
 _symmetry_equiv_pos_site_id
 _symmetry_equiv_pos_as_xyz
  1  'x, y, z'
loop_
 _atom_site_type_symbol
 _atom_site_label
 _atom_site_symmetry_multiplicity
 _atom_site_fract_x
 _atom_site_fract_y
 _atom_site_fract_z
 _atom_site_occupancy
  Al  Al0  1  0.10632468  0.09429598  0.32615716  1
  Al  Al1  1  0.77020574  0.09399749  0.83414584  1
  Al  Al2  1  0.45547114  0.08792207  0.33146402  1
  Al  Al3  1  0.55763798  0.20402727  0.07373025  1
  Al  Al4  1  0.23084762  0.19709452  0.56765076  1
  Al  Al5  1  0.77494435  0.09749582  0.31777998  1
  Al  Al6  1  0.88151060  0.20579822  0.07614589  1
  Al  Al7  1  0.45245284  0.09535945  0.82231592  1
  Al  Al8  1  0.56066069  0.19668751  0.57826960  1
  Al  Al9  1  0.10591174  0.42771287  0.32118285  1
  Al  Al10  1  0.22386102  0.54606076  0.07179048  1
  Al  Al11  1  0.76395394  0.42916387  0.83267999  1
  Al  Al12  1  0.55642745  0.53337471  0.08241793  1
  Al  Al13  1  0.78167100  0.42500490  0.32004298  1
  Al  Al14  1  0.87742720  0.54748991  0.07332901  1
  Al  Al15  1  0.45533797  0.42144473  0.82558198  1
  Al  Al16  1  0.55466678  0.54626088  0.57124464  1
  Al  Al17  1  0.21682929  0.86748347  0.08184285  1
  Al  Al18  1  0.77437140  0.77138194  0.82356569  1
  Al  Al19  1  0.87850623  0.88638488  0.57910314  1
  Al  Al20  1  0.44676214  0.76841966  0.31931453  1
  Al  Al21  1  0.56627662  0.87583797  0.07299143  1
  Al  Al22  1  0.10537895  0.76922071  0.82411296  1
  Al  Al23  1  0.23081930  0.87538298  0.57135190  1
  Al  Al24  1  0.88966640  0.87000689  0.07371565  1
  Al  Al25  1  0.54695076  0.87819699  0.57939850  1
  Sc  Sc26  1  0.23470002  0.19542726  0.10478586  1
  Sc  Sc27  1  0.88555120  0.20204894  0.58865086  1
  Sc  Sc28  1  0.11446514  0.09120743  0.84152491  1
  Sc  Sc29  1  0.88711623  0.53403383  0.59600463  1
  Sc  Sc30  1  0.44701284  0.42373651  0.34281946  1
  Sc  Sc31  1  0.11355631  0.42115519  0.85443853  1
  Sc  Sc32  1  0.22183014  0.53575198  0.60166391  1
  Sc  Sc33  1  0.10884563  0.76456214  0.34280994  1
  Sc  Sc34  1  0.77481479  0.76151777  0.34249284  1
  Sc  Sc35  1  0.44927684  0.75809967  0.84684101  1
  N  N36  1  0.22431775  0.20440294  0.35619589  1
  N  N37  1  0.09801290  0.08529688  0.12000066  1
  N  N38  1  0.87072926  0.21255767  0.87110775  1
  N  N39  1  0.76456605  0.08866101  0.63744321  1
  N  N40  1  0.56799384  0.18636996  0.37947845  1
  N  N41  1  0.47453902  0.08115372  0.13443593  1
  N  N42  1  0.25141633  0.18602408  0.88677542  1
  N  N43  1  0.13140262  0.08601460  0.61409562  1
  N  N44  1  0.88384337  0.20671183  0.36201423  1
  N  N45  1  0.77606192  0.09389867  0.11648447  1
  N  N46  1  0.55293216  0.20726220  0.87412762  1
  N  N47  1  0.44392148  0.09601020  0.62054728  1
  N  N48  1  0.21027120  0.52760169  0.37789380  1
  N  N49  1  0.10020257  0.44714556  0.10855497  1
  N  N50  1  0.86275806  0.55219357  0.86700321  1
  N  N51  1  0.75474293  0.43533294  0.63412486  1
  N  N52  1  0.56548889  0.55258711  0.36814667  1
  N  N53  1  0.44174857  0.42589410  0.11849284  1
  N  N54  1  0.23270095  0.54824388  0.86005661  1
  N  N55  1  0.12225442  0.39913060  0.63258108  1
  N  N56  1  0.89850979  0.51659374  0.36947390  1
  N  N57  1  0.77783489  0.42699845  0.11937431  1
  N  N58  1  0.55922022  0.52106158  0.88514048  1
  N  N59  1  0.46541444  0.41740435  0.61558640  1
  N  N60  1  0.23448263  0.88014624  0.36840670  1
  N  N61  1  0.10851658  0.75910674  0.11872563  1
  N  N62  1  0.89002431  0.87073613  0.87321664  1
  N  N63  1  0.76771417  0.77979061  0.61723396  1
  N  N64  1  0.53732241  0.88144025  0.38049786  1
  N  N65  1  0.44763769  0.76394742  0.11349116  1
  N  N66  1  0.21448873  0.86087284  0.88397154  1
  N  N67  1  0.09934908  0.78677678  0.61737794  1
  N  N68  1  0.87630289  0.89592115  0.37985653  1
  N  N69  1  0.77985669  0.76106391  0.11777429  1
  N  N70  1  0.56703402  0.88601733  0.87364950  1
  N  N71  1  0.44428610  0.76055342  0.62164534  1
