# generated using pymatgen
data_Sc5Al13N18
_symmetry_space_group_name_H-M   'P 1'
_cell_length_a   10.30195004
_cell_length_b   10.28895737
_cell_length_c   8.79795010
_cell_angle_alpha   90.07333498
_cell_angle_beta   89.99901035
_cell_angle_gamma   60.05145018
_symmetry_Int_Tables_number   1
_chemical_formula_structural   Sc5Al13N18
_chemical_formula_sum   'Sc10 Al26 N36'
_cell_volume   808.02980050
_cell_formula_units_Z   2
loop_
 _symmetry_equiv_pos_site_id
 _symmetry_equiv_pos_as_xyz
  1  'x, y, z'
loop_
 _atom_site_type_symbol
 _atom_site_label
 _atom_site_symmetry_multiplicity
 _atom_site_fract_x
 _atom_site_fract_y
 _atom_site_fract_z
 _atom_site_occupancy
  Al  Al0  1  0.11527483  0.09256355  0.35515020  1
  Al  Al1  1  0.77106887  0.10033151  0.86572911  1
  Al  Al2  1  0.44843678  0.09253003  0.36605001  1
  Al  Al3  1  0.56335532  0.19803357  0.11068191  1
  Al  Al4  1  0.23401136  0.19583623  0.60117288  1
  Al  Al5  1  0.77283371  0.09328686  0.36266042  1
  Al  Al6  1  0.88439325  0.20245835  0.11477084  1
  Al  Al7  1  0.45705052  0.09115819  0.86517091  1
  Al  Al8  1  0.55662826  0.20115690  0.61921762  1
  Al  Al9  1  0.11083794  0.42140260  0.35183694  1
  Al  Al10  1  0.22145513  0.54119916  0.10177112  1
  Al  Al11  1  0.77114517  0.42582731  0.87653738  1
  Al  Al12  1  0.55485245  0.54262700  0.10927062  1
  Al  Al13  1  0.77376092  0.42964308  0.34964740  1
  Al  Al14  1  0.88552597  0.53904683  0.10648596  1
  Al  Al15  1  0.45079836  0.42237045  0.86433599  1
  Al  Al16  1  0.55470033  0.53722787  0.61532890  1
  Al  Al17  1  0.22435869  0.87035480  0.11175281  1
  Al  Al18  1  0.77336595  0.76514635  0.86447814  1
  Al  Al19  1  0.88237637  0.87866725  0.62957739  1
  Al  Al20  1  0.44602636  0.76525016  0.35967637  1
  Al  Al21  1  0.55578380  0.87327728  0.11464089  1
  Al  Al22  1  0.11005230  0.76252274  0.86293776  1
  Al  Al23  1  0.22358506  0.87249863  0.60495077  1
  Al  Al24  1  0.88482029  0.87969503  0.09955628  1
  Al  Al25  1  0.55613468  0.87972712  0.61102286  1
  Sc  Sc26  1  0.23175926  0.19872996  0.10815344  1
  Sc  Sc27  1  0.88232730  0.20638824  0.59815035  1
  Sc  Sc28  1  0.10815886  0.09262451  0.85332916  1
  Sc  Sc29  1  0.88055788  0.53996325  0.60329911  1
  Sc  Sc30  1  0.45240549  0.42228331  0.34892776  1
  Sc  Sc31  1  0.11070913  0.42660577  0.85544801  1
  Sc  Sc32  1  0.22480122  0.53983057  0.60462040  1
  Sc  Sc33  1  0.10489084  0.76981508  0.34980711  1
  Sc  Sc34  1  0.77555399  0.76635661  0.34967305  1
  Sc  Sc35  1  0.44837305  0.76090983  0.85298481  1
  N  N36  1  0.22742778  0.20248180  0.35524845  1
  N  N37  1  0.10211916  0.08693216  0.10801942  1
  N  N38  1  0.87081900  0.21514603  0.84969433  1
  N  N39  1  0.76668205  0.08540110  0.59380197  1
  N  N40  1  0.56414700  0.18795660  0.33647483  1
  N  N41  1  0.46714896  0.08289920  0.09125654  1
  N  N42  1  0.24575154  0.19098615  0.84866775  1
  N  N43  1  0.12655621  0.08711131  0.59169524  1
  N  N44  1  0.88483034  0.20367920  0.34225161  1
  N  N45  1  0.77558215  0.09826659  0.08623724  1
  N  N46  1  0.55597712  0.20556408  0.84470756  1
  N  N47  1  0.44825813  0.09527409  0.59096040  1
  N  N48  1  0.21492157  0.53130517  0.34532420  1
  N  N49  1  0.10403113  0.43986073  0.10422869  1
  N  N50  1  0.86717391  0.54576845  0.85803962  1
  N  N51  1  0.75665267  0.43643688  0.57887885  1
  N  N52  1  0.55965865  0.55245786  0.33279931  1
  N  N53  1  0.44698528  0.42411659  0.09290646  1
  N  N54  1  0.23152439  0.54512385  0.85760114  1
  N  N55  1  0.11813628  0.40951780  0.59934050  1
  N  N56  1  0.89606957  0.52282585  0.34085580  1
  N  N57  1  0.77706605  0.42470028  0.10133895  1
  N  N58  1  0.56251179  0.52348012  0.84999649  1
  N  N59  1  0.46193013  0.41683281  0.60125792  1
  N  N60  1  0.23283068  0.87811253  0.34605154  1
  N  N61  1  0.11269309  0.76199988  0.09227757  1
  N  N62  1  0.88757760  0.87333946  0.85603787  1
  N  N63  1  0.77250411  0.77771284  0.60141187  1
  N  N64  1  0.53986895  0.88228443  0.34483193  1
  N  N65  1  0.44400353  0.76565833  0.10024079  1
  N  N66  1  0.21650634  0.86307872  0.84261683  1
  N  N67  1  0.09578059  0.78195693  0.60288689  1
  N  N68  1  0.87838200  0.89200536  0.32286149  1
  N  N69  1  0.77466492  0.76093714  0.09242896  1
  N  N70  1  0.56458052  0.88215482  0.83835085  1
  N  N71  1  0.44641917  0.75901970  0.59352690  1
