# generated using pymatgen
data_Sc5Al13N18
_symmetry_space_group_name_H-M   'P 1'
_cell_length_a   9.84819625
_cell_length_b   9.83883653
_cell_length_c   10.09988988
_cell_angle_alpha   89.91801110
_cell_angle_beta   90.02087943
_cell_angle_gamma   59.98874627
_symmetry_Int_Tables_number   1
_chemical_formula_structural   Sc5Al13N18
_chemical_formula_sum   'Sc10 Al26 N36'
_cell_volume   847.41796593
_cell_formula_units_Z   2
loop_
 _symmetry_equiv_pos_site_id
 _symmetry_equiv_pos_as_xyz
  1  'x, y, z'
loop_
 _atom_site_type_symbol
 _atom_site_label
 _atom_site_symmetry_multiplicity
 _atom_site_fract_x
 _atom_site_fract_y
 _atom_site_fract_z
 _atom_site_occupancy
  Al  Al0  1  0.10753288  0.09353818  0.29801197  1
  Al  Al1  1  0.77124692  0.09470385  0.80465341  1
  Al  Al2  1  0.45289455  0.08937926  0.30316864  1
  Al  Al3  1  0.55955429  0.20264813  0.04669587  1
  Al  Al4  1  0.23101240  0.19812214  0.54079993  1
  Al  Al5  1  0.77485537  0.09603842  0.29441232  1
  Al  Al6  1  0.88202010  0.20457972  0.05134331  1
  Al  Al7  1  0.45219638  0.09489851  0.79797224  1
  Al  Al8  1  0.55940599  0.19711600  0.55298457  1
  Al  Al9  1  0.10726097  0.42784212  0.29228716  1
  Al  Al10  1  0.22449394  0.54570051  0.04125830  1
  Al  Al11  1  0.76676114  0.42778998  0.80611080  1
  Al  Al12  1  0.55640173  0.53475046  0.05111678  1
  Al  Al13  1  0.78056820  0.42577612  0.29257803  1
  Al  Al14  1  0.87797241  0.54671118  0.04610090  1
  Al  Al15  1  0.45570622  0.42091634  0.79943342  1
  Al  Al16  1  0.55628776  0.54345315  0.54816174  1
  Al  Al17  1  0.21842531  0.86832522  0.05180078  1
  Al  Al18  1  0.77366394  0.77075058  0.79949556  1
  Al  Al19  1  0.87921133  0.88431888  0.55554620  1
  Al  Al20  1  0.44590083  0.76737089  0.29743117  1
  Al  Al21  1  0.56387120  0.87477152  0.04746477  1
  Al  Al22  1  0.10595750  0.76973432  0.79912370  1
  Al  Al23  1  0.22869327  0.87504437  0.54507663  1
  Al  Al24  1  0.88902466  0.87156897  0.04407724  1
  Al  Al25  1  0.54816120  0.87839691  0.55118230  1
  Sc  Sc26  1  0.23199029  0.19672372  0.07406441  1
  Sc  Sc27  1  0.88520757  0.20233450  0.55253536  1
  Sc  Sc28  1  0.11260066  0.09338115  0.80583142  1
  Sc  Sc29  1  0.88695639  0.53580186  0.56068118  1
  Sc  Sc30  1  0.44752310  0.42428743  0.30869671  1
  Sc  Sc31  1  0.11214817  0.42353133  0.82240198  1
  Sc  Sc32  1  0.22243188  0.53778005  0.57021041  1
  Sc  Sc33  1  0.10833673  0.76505484  0.30622404  1
  Sc  Sc34  1  0.77429096  0.76287468  0.30668236  1
  Sc  Sc35  1  0.44959993  0.75837128  0.81159138  1
  N  N36  1  0.22424863  0.20481895  0.33726614  1
  N  N37  1  0.09840770  0.08315663  0.10671902  1
  N  N38  1  0.87109066  0.21197921  0.85918683  1
  N  N39  1  0.76528943  0.08931381  0.61847192  1
  N  N40  1  0.56638543  0.18706336  0.36364596  1
  N  N41  1  0.47404440  0.08115099  0.11640801  1
  N  N42  1  0.24957514  0.18694806  0.86846859  1
  N  N43  1  0.13022697  0.08724910  0.59396559  1
  N  N44  1  0.88406895  0.20693290  0.34123332  1
  N  N45  1  0.77650252  0.09237776  0.10308755  1
  N  N46  1  0.55467558  0.20579358  0.85680562  1
  N  N47  1  0.44362649  0.09536778  0.60518421  1
  N  N48  1  0.21070462  0.52866133  0.36036035  1
  N  N49  1  0.10028801  0.44865425  0.09220554  1
  N  N50  1  0.86237893  0.55201928  0.85367787  1
  N  N51  1  0.75811145  0.43404029  0.61895581  1
  N  N52  1  0.56671464  0.55080851  0.35638608  1
  N  N53  1  0.44283508  0.42606640  0.09726960  1
  N  N54  1  0.23367040  0.54887013  0.84396360  1
  N  N55  1  0.12194358  0.40028010  0.61426828  1
  N  N56  1  0.89867549  0.51761134  0.34904025  1
  N  N57  1  0.77647191  0.42786029  0.10289410  1
  N  N58  1  0.56040355  0.52142108  0.86513893  1
  N  N59  1  0.46637214  0.41625736  0.60345835  1
  N  N60  1  0.23293540  0.87974166  0.35504529  1
  N  N61  1  0.10910741  0.75946772  0.09586920  1
  N  N62  1  0.88930085  0.87223652  0.85470281  1
  N  N63  1  0.76659487  0.77980684  0.60593320  1
  N  N64  1  0.53772625  0.88200561  0.36296474  1
  N  N65  1  0.44661250  0.76277533  0.10019696  1
  N  N66  1  0.21464295  0.86371654  0.86599325  1
  N  N67  1  0.09884207  0.78778118  0.60605606  1
  N  N68  1  0.87747298  0.89409282  0.36725873  1
  N  N69  1  0.77980904  0.76162057  0.09656724  1
  N  N70  1  0.56575762  0.88562585  0.85935695  1
  N  N71  1  0.44427211  0.76062818  0.60026057  1
