# generated using pymatgen
data_Sc5Al13N18
_symmetry_space_group_name_H-M   'P 1'
_cell_length_a   10.26002550
_cell_length_b   10.25048659
_cell_length_c   8.91810553
_cell_angle_alpha   90.13807688
_cell_angle_beta   90.05431891
_cell_angle_gamma   59.98754159
_symmetry_Int_Tables_number   1
_chemical_formula_structural   Sc5Al13N18
_chemical_formula_sum   'Sc10 Al26 N36'
_cell_volume   812.15766212
_cell_formula_units_Z   2
loop_
 _symmetry_equiv_pos_site_id
 _symmetry_equiv_pos_as_xyz
  1  'x, y, z'
loop_
 _atom_site_type_symbol
 _atom_site_label
 _atom_site_symmetry_multiplicity
 _atom_site_fract_x
 _atom_site_fract_y
 _atom_site_fract_z
 _atom_site_occupancy
  Al  Al0  1  0.11065827  0.09403379  0.34325453  1
  Al  Al1  1  0.77120056  0.09497162  0.84648798  1
  Al  Al2  1  0.45406676  0.08860182  0.34447756  1
  Al  Al3  1  0.55720544  0.20172087  0.08122769  1
  Al  Al4  1  0.23170756  0.19656977  0.58238049  1
  Al  Al5  1  0.77360105  0.09788498  0.32313040  1
  Al  Al6  1  0.88389074  0.20573376  0.09142815  1
  Al  Al7  1  0.45298780  0.09482450  0.82778311  1
  Al  Al8  1  0.56081582  0.19965500  0.58914001  1
  Al  Al9  1  0.10837763  0.42331981  0.34256496  1
  Al  Al10  1  0.22072287  0.54213735  0.09407224  1
  Al  Al11  1  0.76575034  0.42877893  0.84672009  1
  Al  Al12  1  0.55696431  0.53729489  0.09497345  1
  Al  Al13  1  0.77998605  0.42558712  0.32692862  1
  Al  Al14  1  0.88239923  0.54253130  0.09138022  1
  Al  Al15  1  0.45148236  0.42355809  0.84861469  1
  Al  Al16  1  0.55359462  0.54317292  0.57840346  1
  Al  Al17  1  0.22097663  0.86938015  0.09520160  1
  Al  Al18  1  0.77601993  0.76820749  0.84354422  1
  Al  Al19  1  0.88096114  0.88347648  0.59448376  1
  Al  Al20  1  0.44739110  0.76785769  0.33435936  1
  Al  Al21  1  0.56147663  0.87589846  0.08126998  1
  Al  Al22  1  0.10729518  0.76509680  0.84875586  1
  Al  Al23  1  0.22820154  0.87303485  0.58111573  1
  Al  Al24  1  0.88749910  0.87299700  0.08426664  1
  Al  Al25  1  0.55157127  0.87726068  0.59115576  1
  Sc  Sc26  1  0.23438092  0.19661817  0.10741040  1
  Sc  Sc27  1  0.88211819  0.20397527  0.59626689  1
  Sc  Sc28  1  0.11198283  0.09055844  0.84968391  1
  Sc  Sc29  1  0.88268405  0.53772217  0.60217152  1
  Sc  Sc30  1  0.44951861  0.42119156  0.34532344  1
  Sc  Sc31  1  0.11222376  0.42366174  0.85579929  1
  Sc  Sc32  1  0.22403096  0.53884568  0.60497844  1
  Sc  Sc33  1  0.10675555  0.76742087  0.34708796  1
  Sc  Sc34  1  0.77378226  0.76476498  0.34725055  1
  Sc  Sc35  1  0.44871530  0.75715517  0.85026726  1
  N  N36  1  0.22649530  0.20276081  0.35784304  1
  N  N37  1  0.10100542  0.08717170  0.11402967  1
  N  N38  1  0.87217738  0.21258332  0.86419232  1
  N  N39  1  0.76624169  0.08845796  0.62896994  1
  N  N40  1  0.56771237  0.18779563  0.36935285  1
  N  N41  1  0.47038643  0.08225001  0.12573832  1
  N  N42  1  0.24713618  0.18922931  0.86555340  1
  N  N43  1  0.12751095  0.08624480  0.59762147  1
  N  N44  1  0.88298454  0.20686152  0.34816744  1
  N  N45  1  0.77482716  0.09506762  0.10358693  1
  N  N46  1  0.55258207  0.20627883  0.86404653  1
  N  N47  1  0.44599201  0.09592138  0.60865046  1
  N  N48  1  0.21309744  0.53050394  0.35475705  1
  N  N49  1  0.10209543  0.44152195  0.10775143  1
  N  N50  1  0.86708353  0.54854251  0.86268953  1
  N  N51  1  0.75550695  0.43567509  0.62139318  1
  N  N52  1  0.56426928  0.54965708  0.35293070  1
  N  N53  1  0.44372902  0.42372522  0.10278709  1
  N  N54  1  0.23072925  0.54598863  0.85961075  1
  N  N55  1  0.11930791  0.40668837  0.60847814  1
  N  N56  1  0.89500784  0.52139569  0.35187401  1
  N  N57  1  0.77778084  0.42644826  0.10861141  1
  N  N58  1  0.55882323  0.52422757  0.87708726  1
  N  N59  1  0.46308360  0.41905727  0.60952368  1
  N  N60  1  0.23354654  0.87793867  0.35450796  1
  N  N61  1  0.10826428  0.76089950  0.10230845  1
  N  N62  1  0.88947421  0.87165229  0.86482276  1
  N  N63  1  0.77030858  0.77805927  0.61212377  1
  N  N64  1  0.54067409  0.88037690  0.37201381  1
  N  N65  1  0.44844250  0.76521719  0.11076589  1
  N  N66  1  0.21727002  0.86165694  0.87214332  1
  N  N67  1  0.10045887  0.78358128  0.61082779  1
  N  N68  1  0.87678473  0.89479197  0.36320856  1
  N  N69  1  0.77788551  0.76204351  0.10164243  1
  N  N70  1  0.56393648  0.88472999  0.86007761  1
  N  N71  1  0.44433415  0.75946754  0.60550340  1
