# generated using pymatgen
data_Sc5Al13N18
_symmetry_space_group_name_H-M   'P 1'
_cell_length_a   9.89037014
_cell_length_b   9.88096954
_cell_length_c   9.98480987
_cell_angle_alpha   89.93883993
_cell_angle_beta   89.99122204
_cell_angle_gamma   59.97619507
_symmetry_Int_Tables_number   1
_chemical_formula_structural   Sc5Al13N18
_chemical_formula_sum   'Sc10 Al26 N36'
_cell_volume   844.84691307
_cell_formula_units_Z   2
loop_
 _symmetry_equiv_pos_site_id
 _symmetry_equiv_pos_as_xyz
  1  'x, y, z'
loop_
 _atom_site_type_symbol
 _atom_site_label
 _atom_site_symmetry_multiplicity
 _atom_site_fract_x
 _atom_site_fract_y
 _atom_site_fract_z
 _atom_site_occupancy
  Al  Al0  1  0.10683086  0.09354994  0.32108417  1
  Al  Al1  1  0.77093806  0.09431956  0.82823231  1
  Al  Al2  1  0.45378465  0.08886538  0.32640311  1
  Al  Al3  1  0.55906671  0.20331065  0.07006848  1
  Al  Al4  1  0.23107271  0.19764110  0.56409147  1
  Al  Al5  1  0.77489391  0.09643713  0.31684266  1
  Al  Al6  1  0.88158482  0.20495112  0.07355442  1
  Al  Al7  1  0.45237405  0.09505153  0.82090042  1
  Al  Al8  1  0.55977385  0.19661244  0.57556840  1
  Al  Al9  1  0.10668445  0.42793830  0.31569635  1
  Al  Al10  1  0.22458196  0.54612518  0.06487847  1
  Al  Al11  1  0.76581824  0.42807226  0.82886074  1
  Al  Al12  1  0.55632628  0.53404994  0.07533755  1
  Al  Al13  1  0.78085230  0.42543046  0.31642276  1
  Al  Al14  1  0.87715786  0.54728518  0.06900039  1
  Al  Al15  1  0.45601847  0.42081191  0.82152093  1
  Al  Al16  1  0.55582754  0.54458080  0.57055120  1
  Al  Al17  1  0.21752821  0.86798061  0.07560430  1
  Al  Al18  1  0.77380277  0.77109311  0.82131369  1
  Al  Al19  1  0.87885780  0.88492134  0.57745595  1
  Al  Al20  1  0.44593691  0.76782487  0.31889415  1
  Al  Al21  1  0.56497457  0.87514851  0.07048371  1
  Al  Al22  1  0.10551774  0.76993287  0.82104423  1
  Al  Al23  1  0.22958113  0.87516918  0.56850517  1
  Al  Al24  1  0.88926840  0.87098639  0.06833573  1
  Al  Al25  1  0.54750524  0.87837539  0.57463721  1
  Sc  Sc26  1  0.23278575  0.19613826  0.09936087  1
  Sc  Sc27  1  0.88581374  0.20177755  0.57839544  1
  Sc  Sc28  1  0.11349997  0.09287533  0.83170449  1
  Sc  Sc29  1  0.88767542  0.53459119  0.58683938  1
  Sc  Sc30  1  0.44699136  0.42440550  0.33485701  1
  Sc  Sc31  1  0.11263666  0.42254535  0.84866096  1
  Sc  Sc32  1  0.22197469  0.53674239  0.59599517  1
  Sc  Sc33  1  0.10882523  0.76440296  0.33288032  1
  Sc  Sc34  1  0.77460876  0.76183445  0.33297010  1
  Sc  Sc35  1  0.44965664  0.75841916  0.83791226  1
  N  N36  1  0.22419985  0.20456872  0.35821232  1
  N  N37  1  0.09783661  0.08357448  0.12704185  1
  N  N38  1  0.87082513  0.21211197  0.87908935  1
  N  N39  1  0.76495483  0.08892016  0.64024252  1
  N  N40  1  0.56680866  0.18664850  0.38475941  1
  N  N41  1  0.47466591  0.08108997  0.13800594  1
  N  N42  1  0.25083234  0.18605507  0.89158186  1
  N  N43  1  0.13111483  0.08664923  0.61713997  1
  N  N44  1  0.88400172  0.20673466  0.36427049  1
  N  N45  1  0.77637974  0.09288461  0.12382676  1
  N  N46  1  0.55428485  0.20637879  0.87834524  1
  N  N47  1  0.44371222  0.09542725  0.62648117  1
  N  N48  1  0.21003624  0.52780615  0.38345661  1
  N  N49  1  0.10002472  0.44860093  0.11237704  1
  N  N50  1  0.86184897  0.55236240  0.87379558  1
  N  N51  1  0.75699718  0.43419618  0.63990979  1
  N  N52  1  0.56625669  0.55182852  0.37685616  1
  N  N53  1  0.44224547  0.42631272  0.12064132  1
  N  N54  1  0.23360578  0.54883350  0.86418935  1
  N  N55  1  0.12243606  0.39873585  0.63789418  1
  N  N56  1  0.89909504  0.51642385  0.37236557  1
  N  N57  1  0.77670544  0.42763893  0.12451009  1
  N  N58  1  0.56010290  0.52089594  0.88726873  1
  N  N59  1  0.46634353  0.41634763  0.62296751  1
  N  N60  1  0.23346424  0.88006120  0.37603729  1
  N  N61  1  0.10903219  0.75912552  0.11968592  1
  N  N62  1  0.88954545  0.87165702  0.87661292  1
  N  N63  1  0.76680597  0.77979137  0.62531580  1
  N  N64  1  0.53722134  0.88198480  0.38445575  1
  N  N65  1  0.44668583  0.76313951  0.12003386  1
  N  N66  1  0.21416576  0.86277786  0.88769687  1
  N  N67  1  0.09874615  0.78772776  0.62548928  1
  N  N68  1  0.87698690  0.89467896  0.38749744  1
  N  N69  1  0.77994562  0.76126437  0.11994234  1
  N  N70  1  0.56665762  0.88585156  0.88038725  1
  N  N71  1  0.44434740  0.76068803  0.62375479  1
