# generated using pymatgen
data_Sc5Al13N18
_symmetry_space_group_name_H-M   'P 1'
_cell_length_a   9.85136867
_cell_length_b   9.84186620
_cell_length_c   10.10397553
_cell_angle_alpha   89.98099797
_cell_angle_beta   90.03599319
_cell_angle_gamma   59.98227594
_symmetry_Int_Tables_number   1
_chemical_formula_structural   Sc5Al13N18
_chemical_formula_sum   'Sc10 Al26 N36'
_cell_volume   848.24077851
_cell_formula_units_Z   2
loop_
 _symmetry_equiv_pos_site_id
 _symmetry_equiv_pos_as_xyz
  1  'x, y, z'
loop_
 _atom_site_type_symbol
 _atom_site_label
 _atom_site_symmetry_multiplicity
 _atom_site_fract_x
 _atom_site_fract_y
 _atom_site_fract_z
 _atom_site_occupancy
  Al  Al0  1  0.11902805  0.09277871  0.39853397  1
  Al  Al1  1  0.77273524  0.09820935  0.89685499  1
  Al  Al2  1  0.44449040  0.09299621  0.39933885  1
  Al  Al3  1  0.56385716  0.19586384  0.14360659  1
  Al  Al4  1  0.23614705  0.19395227  0.64449016  1
  Al  Al5  1  0.77164479  0.09228049  0.39548563  1
  Al  Al6  1  0.88517613  0.20236945  0.15279557  1
  Al  Al7  1  0.45824369  0.09143057  0.89371468  1
  Al  Al8  1  0.55605811  0.20223059  0.64844763  1
  Al  Al9  1  0.11241633  0.41685418  0.39931299  1
  Al  Al10  1  0.21853342  0.53991583  0.14576419  1
  Al  Al11  1  0.77045336  0.42540855  0.90206738  1
  Al  Al12  1  0.55704669  0.54479799  0.14513999  1
  Al  Al13  1  0.77569252  0.42907942  0.38908390  1
  Al  Al14  1  0.88891904  0.53502106  0.14645843  1
  Al  Al15  1  0.45025336  0.42312506  0.90218412  1
  Al  Al16  1  0.55585610  0.53377218  0.64661614  1
  Al  Al17  1  0.22565825  0.87160318  0.14898440  1
  Al  Al18  1  0.77482181  0.76546059  0.90306492  1
  Al  Al19  1  0.88150598  0.87823829  0.65202117  1
  Al  Al20  1  0.44576357  0.76707248  0.39849648  1
  Al  Al21  1  0.55292930  0.87360906  0.14592621  1
  Al  Al22  1  0.11058475  0.76111324  0.90206560  1
  Al  Al23  1  0.22149907  0.87191440  0.64365882  1
  Al  Al24  1  0.88584080  0.87900057  0.13831946  1
  Al  Al25  1  0.55807735  0.87999247  0.64574257  1
  Sc  Sc26  1  0.22779760  0.20142771  0.14486438  1
  Sc  Sc27  1  0.88366293  0.20415504  0.62896500  1
  Sc  Sc28  1  0.10532079  0.09241916  0.88915314  1
  Sc  Sc29  1  0.87737402  0.54506670  0.64015201  1
  Sc  Sc30  1  0.45310204  0.42217506  0.37940515  1
  Sc  Sc31  1  0.10912930  0.43048833  0.88790360  1
  Sc  Sc32  1  0.22697376  0.54250513  0.64087554  1
  Sc  Sc33  1  0.10648354  0.77009297  0.38287401  1
  Sc  Sc34  1  0.77350435  0.76468060  0.37892999  1
  Sc  Sc35  1  0.44911706  0.75935981  0.88149789  1
  N  N36  1  0.22584068  0.20276420  0.35310585  1
  N  N37  1  0.09976186  0.08684588  0.09949880  1
  N  N38  1  0.86776439  0.21549327  0.83930117  1
  N  N39  1  0.76388145  0.08468047  0.58481754  1
  N  N40  1  0.56307578  0.18394663  0.33153198  1
  N  N41  1  0.46606274  0.08329676  0.08177613  1
  N  N42  1  0.24612599  0.19071719  0.83704772  1
  N  N43  1  0.13160507  0.08426757  0.59059927  1
  N  N44  1  0.88679522  0.20325525  0.34969036  1
  N  N45  1  0.77743401  0.09733471  0.08613786  1
  N  N46  1  0.55644244  0.20712597  0.84060320  1
  N  N47  1  0.44838229  0.09435446  0.58892319  1
  N  N48  1  0.21176252  0.52858399  0.33864144  1
  N  N49  1  0.10253616  0.44215868  0.09464906  1
  N  N50  1  0.86263071  0.54997884  0.85079610  1
  N  N51  1  0.75577399  0.43926262  0.57446922  1
  N  N52  1  0.56327554  0.55582162  0.33198930  1
  N  N53  1  0.44708657  0.42588936  0.10016541  1
  N  N54  1  0.23423109  0.54646156  0.85188385  1
  N  N55  1  0.11910167  0.40920977  0.59381284  1
  N  N56  1  0.90066522  0.51651790  0.33873237  1
  N  N57  1  0.77779023  0.42400571  0.09420027  1
  N  N58  1  0.56296863  0.51878366  0.83786461  1
  N  N59  1  0.46319423  0.41529265  0.58971114  1
  N  N60  1  0.23459858  0.88127599  0.33778864  1
  N  N61  1  0.11274291  0.76192101  0.09742132  1
  N  N62  1  0.88915558  0.87127912  0.84810837  1
  N  N63  1  0.76942829  0.78096786  0.58857427  1
  N  N64  1  0.53389984  0.88582575  0.33479796  1
  N  N65  1  0.44355762  0.76381020  0.09223303  1
  N  N66  1  0.21248431  0.86149898  0.83080935  1
  N  N67  1  0.09438327  0.78480358  0.59162280  1
  N  N68  1  0.87778852  0.89366026  0.32251371  1
  N  N69  1  0.77637668  0.75995749  0.09926555  1
  N  N70  1  0.56941769  0.88237362  0.83405741  1
  N  N71  1  0.44618034  0.76016558  0.59753769  1
