# generated using pymatgen
data_Sc5Al13N18
_symmetry_space_group_name_H-M   'P 1'
_cell_length_a   9.99688768
_cell_length_b   9.98485591
_cell_length_c   9.69404690
_cell_angle_alpha   90.00764164
_cell_angle_beta   89.98275870
_cell_angle_gamma   59.98895132
_symmetry_Int_Tables_number   1
_chemical_formula_structural   Sc5Al13N18
_chemical_formula_sum   'Sc10 Al26 N36'
_cell_volume   837.90340885
_cell_formula_units_Z   2
loop_
 _symmetry_equiv_pos_site_id
 _symmetry_equiv_pos_as_xyz
  1  'x, y, z'
loop_
 _atom_site_type_symbol
 _atom_site_label
 _atom_site_symmetry_multiplicity
 _atom_site_fract_x
 _atom_site_fract_y
 _atom_site_fract_z
 _atom_site_occupancy
  Al  Al0  1  0.12210872  0.09238178  0.38055825  1
  Al  Al1  1  0.77168383  0.10126152  0.87742439  1
  Al  Al2  1  0.44346838  0.09381541  0.38055806  1
  Al  Al3  1  0.56530074  0.19432914  0.12673525  1
  Al  Al4  1  0.23865178  0.19190505  0.63213348  1
  Al  Al5  1  0.77058729  0.09129290  0.38022816  1
  Al  Al6  1  0.88614251  0.20135958  0.13655021  1
  Al  Al7  1  0.46120064  0.09015843  0.87845594  1
  Al  Al8  1  0.55518699  0.20359792  0.63122989  1
  Al  Al9  1  0.11389456  0.41344225  0.38305937  1
  Al  Al10  1  0.21727189  0.53870488  0.12924636  1
  Al  Al11  1  0.77109527  0.42515436  0.88466109  1
  Al  Al12  1  0.55637266  0.54751065  0.12444049  1
  Al  Al13  1  0.77327560  0.43078145  0.36964677  1
  Al  Al14  1  0.89043331  0.53352692  0.12908144  1
  Al  Al15  1  0.44822670  0.42391611  0.88611422  1
  Al  Al16  1  0.55557695  0.53160153  0.63146801  1
  Al  Al17  1  0.22740664  0.87254993  0.12975408  1
  Al  Al18  1  0.77476994  0.76346833  0.88677372  1
  Al  Al19  1  0.88224296  0.87749401  0.63676387  1
  Al  Al20  1  0.44629932  0.76682434  0.38438870  1
  Al  Al21  1  0.55119192  0.87342993  0.12933462  1
  Al  Al22  1  0.11237670  0.75866711  0.88576744  1
  Al  Al23  1  0.21995610  0.87090684  0.62551051  1
  Al  Al24  1  0.88479249  0.88118332  0.11590049  1
  Al  Al25  1  0.56076971  0.88107819  0.62723349  1
  Sc  Sc26  1  0.22726631  0.20169285  0.11521508  1
  Sc  Sc27  1  0.88261450  0.20524780  0.60463250  1
  Sc  Sc28  1  0.10295755  0.09216785  0.86467871  1
  Sc  Sc29  1  0.87589242  0.54587813  0.61467950  1
  Sc  Sc30  1  0.45429767  0.42221454  0.35527169  1
  Sc  Sc31  1  0.10792210  0.43257041  0.86070410  1
  Sc  Sc32  1  0.22714288  0.54307553  0.61291001  1
  Sc  Sc33  1  0.10509004  0.77238191  0.35793494  1
  Sc  Sc34  1  0.77377479  0.76659430  0.35512395  1
  Sc  Sc35  1  0.44895369  0.76054684  0.85692819  1
  N  N36  1  0.22633804  0.20252775  0.33571844  1
  N  N37  1  0.09859262  0.08629065  0.08551627  1
  N  N38  1  0.86614868  0.21722116  0.82425734  1
  N  N39  1  0.76363056  0.08405659  0.57677901  1
  N  N40  1  0.56363528  0.18378400  0.32138649  1
  N  N41  1  0.46866853  0.08174712  0.07298061  1
  N  N42  1  0.24755523  0.18944487  0.83530335  1
  N  N43  1  0.13262739  0.08457763  0.58350447  1
  N  N44  1  0.88714574  0.20281313  0.34098549  1
  N  N45  1  0.77689538  0.09969797  0.07314080  1
  N  N46  1  0.55521369  0.20852317  0.82999371  1
  N  N47  1  0.44783638  0.09538135  0.57779841  1
  N  N48  1  0.21139444  0.52824237  0.33427229  1
  N  N49  1  0.10143884  0.44395683  0.07968748  1
  N  N50  1  0.86096224  0.55044309  0.83616363  1
  N  N51  1  0.75335671  0.43984997  0.56294758  1
  N  N52  1  0.56206622  0.55816729  0.31869693  1
  N  N53  1  0.44572785  0.42607292  0.09163896  1
  N  N54  1  0.23479123  0.54654885  0.83623616  1
  N  N55  1  0.12014820  0.40626023  0.58974348  1
  N  N56  1  0.90134752  0.51649645  0.33202550  1
  N  N57  1  0.77917173  0.42314981  0.08467247  1
  N  N58  1  0.56231861  0.51864085  0.83074511  1
  N  N59  1  0.46420715  0.41475624  0.57548239  1
  N  N60  1  0.23629307  0.88139278  0.32737936  1
  N  N61  1  0.11455596  0.76046687  0.08925914  1
  N  N62  1  0.88977265  0.87005729  0.84118060  1
  N  N63  1  0.77053844  0.78209451  0.57455643  1
  N  N64  1  0.53374143  0.88535909  0.32594093  1
  N  N65  1  0.44339642  0.76547002  0.07667038  1
  N  N66  1  0.21212274  0.86024148  0.82087157  1
  N  N67  1  0.09257237  0.78648175  0.57685639  1
  N  N68  1  0.87669773  0.89584434  0.30812479  1
  N  N69  1  0.77570715  0.75862956  0.09049290  1
  N  N70  1  0.57083960  0.88280620  0.82277256  1
  N  N71  1  0.44629058  0.75952017  0.58989989  1
