# generated using pymatgen
data_Sc5Al13N18
_symmetry_space_group_name_H-M   'P 1'
_cell_length_a   9.84704471
_cell_length_b   9.83775452
_cell_length_c   10.10273382
_cell_angle_alpha   89.91825553
_cell_angle_beta   90.02337972
_cell_angle_gamma   59.99087834
_symmetry_Int_Tables_number   1
_chemical_formula_structural   Sc5Al13N18
_chemical_formula_sum   'Sc10 Al26 N36'
_cell_volume   847.48242673
_cell_formula_units_Z   2
loop_
 _symmetry_equiv_pos_site_id
 _symmetry_equiv_pos_as_xyz
  1  'x, y, z'
loop_
 _atom_site_type_symbol
 _atom_site_label
 _atom_site_symmetry_multiplicity
 _atom_site_fract_x
 _atom_site_fract_y
 _atom_site_fract_z
 _atom_site_occupancy
  Al  Al0  1  0.10755912  0.09347364  0.30977140  1
  Al  Al1  1  0.77125383  0.09465050  0.81640756  1
  Al  Al2  1  0.45286591  0.08932900  0.31493782  1
  Al  Al3  1  0.55957176  0.20255325  0.05845418  1
  Al  Al4  1  0.23100519  0.19807007  0.55256049  1
  Al  Al5  1  0.77485926  0.09596398  0.30619977  1
  Al  Al6  1  0.88203411  0.20450550  0.06313176  1
  Al  Al7  1  0.45218815  0.09482330  0.80973580  1
  Al  Al8  1  0.55939803  0.19706851  0.56476904  1
  Al  Al9  1  0.10727981  0.42777079  0.30404367  1
  Al  Al10  1  0.22448745  0.54561235  0.05301166  1
  Al  Al11  1  0.76678499  0.42772130  0.81788195  1
  Al  Al12  1  0.55640788  0.53469911  0.06285132  1
  Al  Al13  1  0.78056510  0.42572363  0.30431568  1
  Al  Al14  1  0.87800571  0.54662667  0.05787137  1
  Al  Al15  1  0.45569138  0.42084875  0.81123248  1
  Al  Al16  1  0.55629846  0.54335458  0.55994346  1
  Al  Al17  1  0.21846016  0.86825591  0.06355341  1
  Al  Al18  1  0.77365512  0.77067853  0.81129745  1
  Al  Al19  1  0.87922057  0.88424432  0.56734535  1
  Al  Al20  1  0.44590254  0.76728809  0.30924831  1
  Al  Al21  1  0.56383806  0.87469072  0.05923113  1
  Al  Al22  1  0.10597194  0.76964738  0.81092096  1
  Al  Al23  1  0.22866435  0.87497825  0.55683426  1
  Al  Al24  1  0.88902235  0.87151858  0.05580995  1
  Al  Al25  1  0.54817611  0.87833700  0.56293868  1
  Sc  Sc26  1  0.23197151  0.19667720  0.08574587  1
  Sc  Sc27  1  0.88519340  0.20229597  0.56422745  1
  Sc  Sc28  1  0.11257108  0.09331001  0.81753372  1
  Sc  Sc29  1  0.88691770  0.53579473  0.57234820  1
  Sc  Sc30  1  0.44754929  0.42420865  0.32036360  1
  Sc  Sc31  1  0.11212712  0.42348980  0.83404083  1
  Sc  Sc32  1  0.22245219  0.53774338  0.58187618  1
  Sc  Sc33  1  0.10832284  0.76500963  0.31789151  1
  Sc  Sc34  1  0.77427569  0.76285218  0.31835068  1
  Sc  Sc35  1  0.44959597  0.75829517  0.82326430  1
  N  N36  1  0.22424957  0.20476195  0.34909507  1
  N  N37  1  0.09843360  0.08307566  0.11854081  1
  N  N38  1  0.87109539  0.21191611  0.87102966  1
  N  N39  1  0.76530451  0.08926552  0.63026811  1
  N  N40  1  0.56638015  0.18700890  0.37546159  1
  N  N41  1  0.47402283  0.08108170  0.12821100  1
  N  N42  1  0.24953023  0.18691413  0.88020257  1
  N  N43  1  0.13020084  0.08719652  0.60573314  1
  N  N44  1  0.88408072  0.20687746  0.35299065  1
  N  N45  1  0.77651042  0.09229488  0.11491113  1
  N  N46  1  0.55468662  0.20570401  0.86860732  1
  N  N47  1  0.44362104  0.09530429  0.61698887  1
  N  N48  1  0.21074016  0.52861968  0.37209570  1
  N  N49  1  0.10029767  0.44857988  0.10405388  1
  N  N50  1  0.86239958  0.55194629  0.86551335  1
  N  N51  1  0.75814147  0.43397943  0.63076796  1
  N  N52  1  0.56673297  0.55070910  0.36821279  1
  N  N53  1  0.44285620  0.42598191  0.10900926  1
  N  N54  1  0.23366649  0.54879379  0.85580423  1
  N  N55  1  0.12191635  0.40027446  0.62597325  1
  N  N56  1  0.89865978  0.51759852  0.36077908  1
  N  N57  1  0.77647059  0.42779795  0.11468785  1
  N  N58  1  0.56041252  0.52136783  0.87692346  1
  N  N59  1  0.46637043  0.41618876  0.61531951  1
  N  N60  1  0.23292073  0.87967156  0.36685867  1
  N  N61  1  0.10911211  0.75940302  0.10760804  1
  N  N62  1  0.88929504  0.87218939  0.86649300  1
  N  N63  1  0.76658121  0.77975462  0.61779431  1
  N  N64  1  0.53774258  0.88194094  0.37476891  1
  N  N65  1  0.44661686  0.76268859  0.11205036  1
  N  N66  1  0.21466526  0.86365798  0.87779510  1
  N  N67  1  0.09884805  0.78770688  0.61791120  1
  N  N68  1  0.87749148  0.89401382  0.37909508  1
  N  N69  1  0.77980628  0.76156483  0.10830929  1
  N  N70  1  0.56572460  0.88555144  0.87116973  1
  N  N71  1  0.44426799  0.76055864  0.61200198  1
