# generated using pymatgen
data_Sc5Al13N18
_symmetry_space_group_name_H-M   'P 1'
_cell_length_a   10.09251226
_cell_length_b   10.08262226
_cell_length_c   9.41338989
_cell_angle_alpha   90.06803118
_cell_angle_beta   90.01991661
_cell_angle_gamma   59.97222133
_symmetry_Int_Tables_number   1
_chemical_formula_structural   Sc5Al13N18
_chemical_formula_sum   'Sc10 Al26 N36'
_cell_volume   829.33024361
_cell_formula_units_Z   2
loop_
 _symmetry_equiv_pos_site_id
 _symmetry_equiv_pos_as_xyz
  1  'x, y, z'
loop_
 _atom_site_type_symbol
 _atom_site_label
 _atom_site_symmetry_multiplicity
 _atom_site_fract_x
 _atom_site_fract_y
 _atom_site_fract_z
 _atom_site_occupancy
  Al  Al0  1  0.10682397  0.09445640  0.32923130  1
  Al  Al1  1  0.77026873  0.09410199  0.83658661  1
  Al  Al2  1  0.45554626  0.08783920  0.33386607  1
  Al  Al3  1  0.55735955  0.20370372  0.07509989  1
  Al  Al4  1  0.23090244  0.19703435  0.56962149  1
  Al  Al5  1  0.77478678  0.09758034  0.31846155  1
  Al  Al6  1  0.88194785  0.20580446  0.07855418  1
  Al  Al7  1  0.45246725  0.09534413  0.82299616  1
  Al  Al8  1  0.56082090  0.19720018  0.57995694  1
  Al  Al9  1  0.10614693  0.42710210  0.32419774  1
  Al  Al10  1  0.22329005  0.54552445  0.07530514  1
  Al  Al11  1  0.76396345  0.42926783  0.83498364  1
  Al  Al12  1  0.55649991  0.53386152  0.08503702  1
  Al  Al13  1  0.78161547  0.42500288  0.32104933  1
  Al  Al14  1  0.87821103  0.54688264  0.07608359  1
  Al  Al15  1  0.45464570  0.42185856  0.82910941  1
  Al  Al16  1  0.55442246  0.54594196  0.57204750  1
  Al  Al17  1  0.21731543  0.86770267  0.08444313  1
  Al  Al18  1  0.77470941  0.77095416  0.82615040  1
  Al  Al19  1  0.87876038  0.88627529  0.58091167  1
  Al  Al20  1  0.44707229  0.76837734  0.32106018  1
  Al  Al21  1  0.56575558  0.87589877  0.07411333  1
  Al  Al22  1  0.10565763  0.76857962  0.82728170  1
  Al  Al23  1  0.23066104  0.87498531  0.57250983  1
  Al  Al24  1  0.88947415  0.87016460  0.07531581  1
  Al  Al25  1  0.54754246  0.87793746  0.58154696  1
  Sc  Sc26  1  0.23495541  0.19540147  0.10568974  1
  Sc  Sc27  1  0.88487954  0.20246997  0.59096295  1
  Sc  Sc28  1  0.11421475  0.09087063  0.84373873  1
  Sc  Sc29  1  0.88638601  0.53450795  0.59782679  1
  Sc  Sc30  1  0.44734965  0.42325818  0.34389426  1
  Sc  Sc31  1  0.11350654  0.42124721  0.85506847  1
  Sc  Sc32  1  0.22215022  0.53605473  0.60255647  1
  Sc  Sc33  1  0.10845487  0.76497815  0.34435362  1
  Sc  Sc34  1  0.77465650  0.76204054  0.34416437  1
  Sc  Sc35  1  0.44907856  0.75787760  0.84824930  1
  N  N36  1  0.22458778  0.20427375  0.35631342  1
  N  N37  1  0.09851911  0.08577751  0.11849829  1
  N  N38  1  0.87098503  0.21257137  0.86934496  1
  N  N39  1  0.76473540  0.08869465  0.63630459  1
  N  N40  1  0.56815127  0.18656169  0.37768584  1
  N  N41  1  0.47395001  0.08121551  0.13317793  1
  N  N42  1  0.25078918  0.18648511  0.88355555  1
  N  N43  1  0.13077745  0.08601499  0.61117544  1
  N  N44  1  0.88363645  0.20677041  0.35981809  1
  N  N45  1  0.77590710  0.09398937  0.11390052  1
  N  N46  1  0.55268746  0.20713457  0.87247946  1
  N  N47  1  0.44416411  0.09612145  0.61825755  1
  N  N48  1  0.21080631  0.52808259  0.37421169  1
  N  N49  1  0.10050141  0.44621312  0.10827694  1
  N  N50  1  0.86355662  0.55167662  0.86573764  1
  N  N51  1  0.75457481  0.43556724  0.63216500  1
  N  N52  1  0.56530578  0.55210774  0.36501036  1
  N  N53  1  0.44197888  0.42546096  0.11612631  1
  N  N54  1  0.23225980  0.54789242  0.85977302  1
  N  N55  1  0.12175602  0.40039889  0.62883091  1
  N  N56  1  0.89782182  0.51744950  0.36677955  1
  N  N57  1  0.77804133  0.42683676  0.11728984  1
  N  N58  1  0.55904223  0.52161289  0.88416810  1
  N  N59  1  0.46498774  0.41778662  0.61425213  1
  N  N60  1  0.23450804  0.87968147  0.36552544  1
  N  N61  1  0.10827398  0.75942267  0.11655335  1
  N  N62  1  0.88999880  0.87075754  0.87179117  1
  N  N63  1  0.76819438  0.77954015  0.61582006  1
  N  N64  1  0.53786597  0.88113952  0.37920833  1
  N  N65  1  0.44797727  0.76423398  0.11247912  1
  N  N66  1  0.21499319  0.86081847  0.88244683  1
  N  N67  1  0.09967086  0.78622583  0.61591801  1
  N  N68  1  0.87629257  0.89593777  0.37749214  1
  N  N69  1  0.77956290  0.76126753  0.11545608  1
  N  N70  1  0.56652775  0.88585523  0.87106587  1
  N  N71  1  0.44425395  0.76030739  0.61934148  1
