# generated using pymatgen
data_Sc5Al13N18
_symmetry_space_group_name_H-M   'P 1'
_cell_length_a   9.84424380
_cell_length_b   9.83517570
_cell_length_c   10.10946526
_cell_angle_alpha   89.91918170
_cell_angle_beta   90.02960526
_cell_angle_gamma   59.99591559
_symmetry_Int_Tables_number   1
_chemical_formula_structural   Sc5Al13N18
_chemical_formula_sum   'Sc10 Al26 N36'
_cell_volume   847.62656457
_cell_formula_units_Z   2
loop_
 _symmetry_equiv_pos_site_id
 _symmetry_equiv_pos_as_xyz
  1  'x, y, z'
loop_
 _atom_site_type_symbol
 _atom_site_label
 _atom_site_symmetry_multiplicity
 _atom_site_fract_x
 _atom_site_fract_y
 _atom_site_fract_z
 _atom_site_occupancy
  Al  Al0  1  0.10762179  0.09355037  0.29413614  1
  Al  Al1  1  0.77125864  0.09475924  0.80077078  1
  Al  Al2  1  0.45279317  0.08943611  0.29932520  1
  Al  Al3  1  0.55961254  0.20255010  0.04282736  1
  Al  Al4  1  0.23097470  0.19818714  0.53693089  1
  Al  Al5  1  0.77487421  0.09601876  0.29064586  1
  Al  Al6  1  0.88206092  0.20455754  0.04758271  1
  Al  Al7  1  0.45215916  0.09487518  0.79412092  1
  Al  Al8  1  0.55937359  0.19718151  0.54919615  1
  Al  Al9  1  0.10732041  0.42784595  0.28841548  1
  Al  Al10  1  0.22447556  0.54563070  0.03737867  1
  Al  Al11  1  0.76683829  0.42778822  0.80229489  1
  Al  Al12  1  0.55642893  0.53479369  0.04716517  1
  Al  Al13  1  0.78057046  0.42583456  0.28864559  1
  Al  Al14  1  0.87808643  0.54666217  0.04226069  1
  Al  Al15  1  0.45565538  0.42091292  0.79570288  1
  Al  Al16  1  0.55632250  0.54335347  0.54437608  1
  Al  Al17  1  0.21854521  0.86830948  0.04790290  1
  Al  Al18  1  0.77362374  0.77075101  0.79577508  1
  Al  Al19  1  0.87923865  0.88430893  0.55182208  1
  Al  Al20  1  0.44591205  0.76731535  0.29374960  1
  Al  Al21  1  0.56376125  0.87471864  0.04362558  1
  Al  Al22  1  0.10600644  0.76966585  0.79538110  1
  Al  Al23  1  0.22859210  0.87506603  0.54120125  1
  Al  Al24  1  0.88901653  0.87162484  0.04011985  1
  Al  Al25  1  0.54819347  0.87843470  0.54730614  1
  Sc  Sc26  1  0.23191770  0.19681011  0.06994227  1
  Sc  Sc27  1  0.88515756  0.20244707  0.54845628  1
  Sc  Sc28  1  0.11249060  0.09336908  0.80179561  1
  Sc  Sc29  1  0.88681205  0.53602793  0.55651972  1
  Sc  Sc30  1  0.44763006  0.42424194  0.30452344  1
  Sc  Sc31  1  0.11208304  0.42362173  0.81811648  1
  Sc  Sc32  1  0.22250607  0.53789518  0.56601126  1
  Sc  Sc33  1  0.10829108  0.76513863  0.30204886  1
  Sc  Sc34  1  0.77423820  0.76304241  0.30252425  1
  Sc  Sc35  1  0.44958603  0.75833968  0.80743501  1
  N  N36  1  0.22424561  0.20486253  0.33362875  1
  N  N37  1  0.09849856  0.08310793  0.10305310  1
  N  N38  1  0.87109336  0.21199987  0.85561357  1
  N  N39  1  0.76533317  0.08939331  0.61473199  1
  N  N40  1  0.56636797  0.18709860  0.35996567  1
  N  N41  1  0.47396404  0.08114100  0.11268543  1
  N  N42  1  0.24941023  0.18707384  0.86451904  1
  N  N43  1  0.13013615  0.08730981  0.59014579  1
  N  N44  1  0.88411608  0.20698021  0.33736447  1
  N  N45  1  0.77652928  0.09232308  0.09944660  1
  N  N46  1  0.55470462  0.20571903  0.85308620  1
  N  N47  1  0.44359390  0.09539098  0.60147019  1
  N  N48  1  0.21084245  0.52875440  0.35639702  1
  N  N49  1  0.10031676  0.44864027  0.08864634  1
  N  N50  1  0.86245253  0.55200687  0.85005865  1
  N  N51  1  0.75820897  0.43407271  0.61527952  1
  N  N52  1  0.56678681  0.55070205  0.35275069  1
  N  N53  1  0.44291481  0.42599981  0.09334181  1
  N  N54  1  0.23365926  0.54884065  0.84037986  1
  N  N55  1  0.12184924  0.40051221  0.61019836  1
  N  N56  1  0.89862287  0.51781479  0.34511879  1
  N  N57  1  0.77647725  0.42787883  0.09914669  1
  N  N58  1  0.56043197  0.52147041  0.86136188  1
  N  N59  1  0.46636900  0.41625211  0.59993618  1
  N  N60  1  0.23289103  0.87974192  0.35135774  1
  N  N61  1  0.10912243  0.75947809  0.09193422  1
  N  N62  1  0.88927905  0.87231086  0.85093891  1
  N  N63  1  0.76653121  0.77988250  0.60241431  1
  N  N64  1  0.53777357  0.88201971  0.35924906  1
  N  N65  1  0.44663145  0.76269889  0.09664656  1
  N  N66  1  0.21472089  0.86373960  0.86226871  1
  N  N67  1  0.09886204  0.78776485  0.60251069  1
  N  N68  1  0.87754269  0.89406116  0.36366210  1
  N  N69  1  0.77980057  0.76165959  0.09264863  1
  N  N70  1  0.56563947  0.88560544  0.85567657  1
  N  N71  1  0.44425220  0.76062583  0.59633371  1
