# generated using pymatgen
data_Sc5Al13N18
_symmetry_space_group_name_H-M   'P 1'
_cell_length_a   9.89609504
_cell_length_b   9.88531454
_cell_length_c   9.98147592
_cell_angle_alpha   89.98712092
_cell_angle_beta   90.00469199
_cell_angle_gamma   59.97523881
_symmetry_Int_Tables_number   1
_chemical_formula_structural   Sc5Al13N18
_chemical_formula_sum   'Sc10 Al26 N36'
_cell_volume   845.41764611
_cell_formula_units_Z   2
loop_
 _symmetry_equiv_pos_site_id
 _symmetry_equiv_pos_as_xyz
  1  'x, y, z'
loop_
 _atom_site_type_symbol
 _atom_site_label
 _atom_site_symmetry_multiplicity
 _atom_site_fract_x
 _atom_site_fract_y
 _atom_site_fract_z
 _atom_site_occupancy
  Al  Al0  1  0.12053532  0.09255055  0.38306620  1
  Al  Al1  1  0.77238232  0.09917311  0.88054764  1
  Al  Al2  1  0.44402485  0.09338415  0.38338075  1
  Al  Al3  1  0.56441976  0.19527735  0.12846482  1
  Al  Al4  1  0.23729805  0.19294057  0.63138366  1
  Al  Al5  1  0.77108289  0.09210685  0.38095071  1
  Al  Al6  1  0.88547083  0.20204687  0.13791936  1
  Al  Al7  1  0.45950335  0.09101091  0.87913349  1
  Al  Al8  1  0.55562333  0.20295782  0.63299878  1
  Al  Al9  1  0.11298489  0.41531103  0.38483070  1
  Al  Al10  1  0.21773762  0.53948993  0.13111466  1
  Al  Al11  1  0.77047175  0.42532252  0.88616926  1
  Al  Al12  1  0.55699935  0.54593485  0.12860794  1
  Al  Al13  1  0.77490913  0.42971475  0.37330309  1
  Al  Al14  1  0.88962188  0.53423445  0.13110827  1
  Al  Al15  1  0.44930769  0.42359504  0.88735356  1
  Al  Al16  1  0.55567698  0.53288451  0.63185849  1
  Al  Al17  1  0.22647100  0.87191927  0.13272072  1
  Al  Al18  1  0.77495325  0.76487389  0.88815859  1
  Al  Al19  1  0.88171432  0.87809109  0.63682938  1
  Al  Al20  1  0.44610255  0.76713976  0.38442140  1
  Al  Al21  1  0.55224838  0.87359523  0.13072068  1
  Al  Al22  1  0.11117857  0.76014013  0.88703771  1
  Al  Al23  1  0.22096218  0.87156903  0.62806065  1
  Al  Al24  1  0.88548495  0.87989486  0.12163529  1
  Al  Al25  1  0.55924082  0.88056230  0.62992699  1
  Sc  Sc26  1  0.22733227  0.20173493  0.12490243  1
  Sc  Sc27  1  0.88350574  0.20440417  0.61063823  1
  Sc  Sc28  1  0.10406134  0.09233736  0.87127656  1
  Sc  Sc29  1  0.87648555  0.54579474  0.62193906  1
  Sc  Sc30  1  0.45351994  0.42237763  0.36105326  1
  Sc  Sc31  1  0.10850443  0.43148022  0.86848361  1
  Sc  Sc32  1  0.22704095  0.54297138  0.62136799  1
  Sc  Sc33  1  0.10607872  0.77118447  0.36450938  1
  Sc  Sc34  1  0.77368057  0.76523679  0.36072539  1
  Sc  Sc35  1  0.44917622  0.75990616  0.86300482  1
  N  N36  1  0.22602986  0.20273366  0.33669482  1
  N  N37  1  0.09913667  0.08657612  0.08442105  1
  N  N38  1  0.86685991  0.21615656  0.82351258  1
  N  N39  1  0.76354389  0.08461189  0.57203198  1
  N  N40  1  0.56327722  0.18382304  0.31808496  1
  N  N41  1  0.46713292  0.08276064  0.06880869  1
  N  N42  1  0.24682123  0.18992393  0.82678550  1
  N  N43  1  0.13248395  0.08421880  0.57817461  1
  N  N44  1  0.88699145  0.20311863  0.33718008  1
  N  N45  1  0.77730749  0.09813646  0.07167593  1
  N  N46  1  0.55589215  0.20783384  0.82697711  1
  N  N47  1  0.44812164  0.09485035  0.57513532  1
  N  N48  1  0.21124421  0.52840872  0.32736309  1
  N  N49  1  0.10200335  0.44312855  0.07878901  1
  N  N50  1  0.86154781  0.55047969  0.83541023  1
  N  N51  1  0.75477921  0.43963212  0.56067072  1
  N  N52  1  0.56315686  0.55692846  0.31748024  1
  N  N53  1  0.44646273  0.42616147  0.08778716  1
  N  N54  1  0.23451300  0.54658063  0.83582419  1
  N  N55  1  0.11950496  0.40785079  0.58286569  1
  N  N56  1  0.90123576  0.51603396  0.32638290  1
  N  N57  1  0.77835152  0.42362624  0.08056767  1
  N  N58  1  0.56251119  0.51862654  0.82520638  1
  N  N59  1  0.46362696  0.41510148  0.57416002  1
  N  N60  1  0.23557935  0.88142759  0.32395644  1
  N  N61  1  0.11333556  0.76136931  0.08492653  1
  N  N62  1  0.88948391  0.87075607  0.83526041  1
  N  N63  1  0.76969834  0.78168301  0.57304144  1
  N  N64  1  0.53370840  0.88580997  0.32165157  1
  N  N65  1  0.44365278  0.76437596  0.07641873  1
  N  N66  1  0.21218802  0.86092623  0.81736211  1
  N  N67  1  0.09368046  0.78585539  0.57598307  1
  N  N68  1  0.87729843  0.89479359  0.30783200  1
  N  N69  1  0.77632348  0.75949605  0.08670819  1
  N  N70  1  0.57032090  0.88272634  0.82017673  1
  N  N71  1  0.44633873  0.76003286  0.58537059  1
