# generated using pymatgen
data_Mg3MoN4
_symmetry_space_group_name_H-M   'P 1'
_cell_length_a   6.87407454
_cell_length_b   5.94244561
_cell_length_c   5.05912171
_cell_angle_alpha   89.99725978
_cell_angle_beta   89.99972349
_cell_angle_gamma   89.90698342
_symmetry_Int_Tables_number   1
_chemical_formula_structural   Mg3MoN4
_chemical_formula_sum   'Mg6 Mo2 N8'
_cell_volume   206.65884975
_cell_formula_units_Z   2
loop_
 _symmetry_equiv_pos_site_id
 _symmetry_equiv_pos_as_xyz
  1  'x, y, z'
loop_
 _atom_site_type_symbol
 _atom_site_label
 _atom_site_symmetry_multiplicity
 _atom_site_fract_x
 _atom_site_fract_y
 _atom_site_fract_z
 _atom_site_occupancy
  Mg  Mg0  1  -0.75642510  0.85181178  0.96067268  1
  Mg  Mg1  1  -0.26411843  0.85174422  0.96070021  1
  Mg  Mg2  1  -0.00988492  0.35698151  0.96030394  1
  Mg  Mg3  1  -0.25588151  0.18825360  0.46070516  1
  Mg  Mg4  1  -0.76357596  0.18818509  0.46067815  1
  Mg  Mg5  1  -0.51011489  0.68301363  0.46029496  1
  Mo  Mo6  1  -0.01010372  0.69035339  0.47773389  1
  Mo  Mo7  1  -0.50989641  0.34964626  0.97773455  1
  N  N8  1  -0.01006210  0.69302707  0.84549751  1
  N  N9  1  -0.27832610  0.19695494  0.87902697  1
  N  N10  1  -0.74105533  0.19690357  0.87895340  1
  N  N11  1  -0.24167382  0.84304909  0.37902150  1
  N  N12  1  -0.77894360  0.84309964  0.37894719  1
  N  N13  1  -0.00993790  0.38314507  0.37971821  1
  N  N14  1  -0.51006196  0.65685945  0.87970741  1
  N  N15  1  -0.50993823  0.34697166  0.34549820  1
