# generated using pymatgen
data_Mg3MoN4
_symmetry_space_group_name_H-M   'P 1'
_cell_length_a   6.81848824
_cell_length_b   5.89426089
_cell_length_c   5.17977298
_cell_angle_alpha   89.99865988
_cell_angle_beta   89.99984947
_cell_angle_gamma   89.94954291
_symmetry_Int_Tables_number   1
_chemical_formula_structural   Mg3MoN4
_chemical_formula_sum   'Mg6 Mo2 N8'
_cell_volume   208.17472890
_cell_formula_units_Z   2
loop_
 _symmetry_equiv_pos_site_id
 _symmetry_equiv_pos_as_xyz
  1  'x, y, z'
loop_
 _atom_site_type_symbol
 _atom_site_label
 _atom_site_symmetry_multiplicity
 _atom_site_fract_x
 _atom_site_fract_y
 _atom_site_fract_z
 _atom_site_occupancy
  Mg  Mg0  1  -0.75713398  0.85130738  0.96699322  1
  Mg  Mg1  1  -0.26314319  0.85126511  0.96701208  1
  Mg  Mg2  1  -0.00994445  0.35793673  0.96641877  1
  Mg  Mg3  1  -0.25685686  0.18873348  0.46701435  1
  Mg  Mg4  1  -0.76286652  0.18869083  0.46699583  1
  Mg  Mg5  1  -0.51005551  0.68206070  0.46641419  1
  Mo  Mo6  1  -0.01005028  0.69054384  0.47864259  1
  Mo  Mo7  1  -0.50994977  0.34945601  0.97864262  1
  N  N8  1  -0.01002749  0.69320119  0.83854669  1
  N  N9  1  -0.27824731  0.19675542  0.87478857  1
  N  N10  1  -0.74143019  0.19673478  0.87474660  1
  N  N11  1  -0.24175263  0.84324664  0.37478613  1
  N  N12  1  -0.77856932  0.84326696  0.37474376  1
  N  N13  1  -0.00997253  0.38320694  0.37543065  1
  N  N14  1  -0.51002735  0.65679557  0.87542545  1
  N  N15  1  -0.50997263  0.34679843  0.33854670  1
