# generated using pymatgen
data_Mg3MoN4
_symmetry_space_group_name_H-M   'P 1'
_cell_length_a   7.14268870
_cell_length_b   6.16623284
_cell_length_c   4.42741256
_cell_angle_alpha   90.11881251
_cell_angle_beta   89.97605055
_cell_angle_gamma   90.98281980
_symmetry_Int_Tables_number   1
_chemical_formula_structural   Mg3MoN4
_chemical_formula_sum   'Mg6 Mo2 N8'
_cell_volume   194.96954262
_cell_formula_units_Z   2
loop_
 _symmetry_equiv_pos_site_id
 _symmetry_equiv_pos_as_xyz
  1  'x, y, z'
loop_
 _atom_site_type_symbol
 _atom_site_label
 _atom_site_symmetry_multiplicity
 _atom_site_fract_x
 _atom_site_fract_y
 _atom_site_fract_z
 _atom_site_occupancy
  Mg  Mg0  1  -0.75795408  -0.85254594  0.91436342  1
  Mg  Mg1  1  -0.26828187  -0.85218796  0.91425766  1
  Mg  Mg2  1  -0.00876799  -0.35588354  0.91400156  1
  Mg  Mg3  1  -0.24985221  -0.18664382  0.42400980  1
  Mg  Mg4  1  -0.76388000  -0.18617641  0.42375416  1
  Mg  Mg5  1  -0.51124740  -0.68675001  0.42459983  1
  Mo  Mo6  1  -0.01120580  -0.68998481  0.37913180  1
  Mo  Mo7  1  -0.50882395  -0.34994477  0.96995336  1
  N  N8  1  -0.01071422  -0.69215858  0.93762244  1
  N  N9  1  -0.27544184  -0.19695946  0.91122019  1
  N  N10  1  -0.73788582  -0.19605957  0.91091059  1
  N  N11  1  -0.24483308  -0.84323490  0.41984830  1
  N  N12  1  -0.78182120  -0.84395673  0.41987480  1
  N  N13  1  -0.00925929  -0.38091707  0.41817492  1
  N  N14  1  -0.51072803  -0.65875471  0.91267530  1
  N  N15  1  -0.50930322  -0.34784172  0.39170741  1
