# generated using pymatgen
data_Mg3MoN4
_symmetry_space_group_name_H-M   'P 1'
_cell_length_a   7.11852191
_cell_length_b   6.14988959
_cell_length_c   4.49289373
_cell_angle_alpha   90.06359442
_cell_angle_beta   89.98752504
_cell_angle_gamma   90.84421662
_symmetry_Int_Tables_number   1
_chemical_formula_structural   Mg3MoN4
_chemical_formula_sum   'Mg6 Mo2 N8'
_cell_volume   196.66898220
_cell_formula_units_Z   2
loop_
 _symmetry_equiv_pos_site_id
 _symmetry_equiv_pos_as_xyz
  1  'x, y, z'
loop_
 _atom_site_type_symbol
 _atom_site_label
 _atom_site_symmetry_multiplicity
 _atom_site_fract_x
 _atom_site_fract_y
 _atom_site_fract_z
 _atom_site_occupancy
  Mg  Mg0  1  -0.75613868  -0.85339443  0.92356812  1
  Mg  Mg1  1  -0.26884222  -0.85308469  0.92368347  1
  Mg  Mg2  1  -0.00916211  -0.35402898  0.92431315  1
  Mg  Mg3  1  -0.25060996  -0.18658428  0.42518419  1
  Mg  Mg4  1  -0.76442299  -0.18619455  0.42500023  1
  Mg  Mg5  1  -0.51083120  -0.68669932  0.42583019  1
  Mo  Mo6  1  -0.01085872  -0.68979736  0.46763242  1
  Mo  Mo7  1  -0.50915200  -0.35016719  0.97077051  1
  N  N8  1  -0.01043514  -0.69189847  0.88420092  1
  N  N9  1  -0.27625640  -0.19722195  0.90526593  1
  N  N10  1  -0.73843869  -0.19665832  0.90490863  1
  N  N11  1  -0.24380474  -0.84288373  0.40499516  1
  N  N12  1  -0.78146904  -0.84337029  0.40464582  1
  N  N13  1  -0.00951406  -0.38175759  0.40518534  1
  N  N14  1  -0.51047866  -0.65823509  0.90566658  1
  N  N15  1  -0.50958540  -0.34802375  0.38501137  1
