# generated using pymatgen
data_Mg3MoN4
_symmetry_space_group_name_H-M   'P 1'
_cell_length_a   5.28353437
_cell_length_b   5.85102884
_cell_length_c   6.76802069
_cell_angle_alpha   90.00000404
_cell_angle_beta   90.00000164
_cell_angle_gamma   89.99999938
_symmetry_Int_Tables_number   1
_chemical_formula_structural   Mg3MoN4
_chemical_formula_sum   'Mg6 Mo2 N8'
_cell_volume   209.22734948
_cell_formula_units_Z   2
loop_
 _symmetry_equiv_pos_site_id
 _symmetry_equiv_pos_as_xyz
  1  'x, y, z'
loop_
 _atom_site_type_symbol
 _atom_site_label
 _atom_site_symmetry_multiplicity
 _atom_site_fract_x
 _atom_site_fract_y
 _atom_site_fract_z
 _atom_site_occupancy
  Mg  Mg0  1  0.00457425  0.85084489  0.75778295  1
  Mg  Mg1  1  0.00457427  0.85084484  0.26221702  1
  Mg  Mg2  1  0.00380611  0.35880432  0.01000001  1
  Mg  Mg3  1  0.50457426  0.18915508  0.25778295  1
  Mg  Mg4  1  0.50457427  0.18915512  0.76221707  1
  Mg  Mg5  1  0.50380618  0.68119560  0.51000005  1
  Mo  Mo6  1  0.51212770  0.69074001  0.00999999  1
  Mo  Mo7  1  0.01212780  0.34926006  0.50999996  1
  N  N8  1  0.86569565  0.69332020  0.00999994  1
  N  N9  1  0.90436055  0.19650857  0.27810228  1
  N  N10  1  0.90436055  0.19650865  0.74189771  1
  N  N11  1  0.40436062  0.84349138  0.24189781  1
  N  N12  1  0.40436055  0.84349145  0.77810232  1
  N  N13  1  0.40496787  0.38317526  0.01000000  1
  N  N14  1  0.90496800  0.65682490  0.50999995  1
  N  N15  1  0.36569572  0.34667969  0.51000000  1
