# generated using pymatgen
data_Mg3MoN4
_symmetry_space_group_name_H-M   'P 1'
_cell_length_a   7.12201166
_cell_length_b   6.15063415
_cell_length_c   4.48849133
_cell_angle_alpha   90.06426082
_cell_angle_beta   90.00486244
_cell_angle_gamma   89.69142983
_symmetry_Int_Tables_number   1
_chemical_formula_structural   Mg3MoN4
_chemical_formula_sum   'Mg6 Mo2 N8'
_cell_volume   196.61488494
_cell_formula_units_Z   2
loop_
 _symmetry_equiv_pos_site_id
 _symmetry_equiv_pos_as_xyz
  1  'x, y, z'
loop_
 _atom_site_type_symbol
 _atom_site_label
 _atom_site_symmetry_multiplicity
 _atom_site_fract_x
 _atom_site_fract_y
 _atom_site_fract_z
 _atom_site_occupancy
  Mg  Mg0  1  -0.75209308  -0.85349161  0.91072173  1
  Mg  Mg1  1  -0.26591695  -0.85362755  0.91078927  1
  Mg  Mg2  1  -0.01039804  -0.35323264  0.91001986  1
  Mg  Mg3  1  -0.25467018  -0.18678448  0.41226158  1
  Mg  Mg4  1  -0.76732603  -0.18687735  0.41222093  1
  Mg  Mg5  1  -0.50959590  -0.68599289  0.41156070  1
  Mo  Mo6  1  -0.00961726  -0.68983189  0.36502736  1
  Mo  Mo7  1  -0.51038809  -0.35020810  0.86827557  1
  N  N8  1  -0.00976443  -0.69198853  0.95033115  1
  N  N9  1  -0.27990788  -0.19683128  0.93076893  1
  N  N10  1  -0.74220290  -0.19705864  0.93063837  1
  N  N11  1  -0.24001211  -0.84312410  0.43050201  1
  N  N12  1  -0.77786479  -0.84285538  0.43036858  1
  N  N13  1  -0.01025224  -0.38171826  0.42984256  1
  N  N14  1  -0.50974386  -0.65828762  0.93033798  1
  N  N15  1  -0.51024627  -0.34808968  0.45113342  1
