# generated using pymatgen
data_Mg3MoN4
_symmetry_space_group_name_H-M   'P 1'
_cell_length_a   6.76802289
_cell_length_b   5.85103007
_cell_length_c   5.28352900
_cell_angle_alpha   90.00000613
_cell_angle_beta   89.99999319
_cell_angle_gamma   89.99999480
_symmetry_Int_Tables_number   1
_chemical_formula_structural   Mg3MoN4
_chemical_formula_sum   'Mg6 Mo2 N8'
_cell_volume   209.22724870
_cell_formula_units_Z   2
loop_
 _symmetry_equiv_pos_site_id
 _symmetry_equiv_pos_as_xyz
  1  'x, y, z'
loop_
 _atom_site_type_symbol
 _atom_site_label
 _atom_site_symmetry_multiplicity
 _atom_site_fract_x
 _atom_site_fract_y
 _atom_site_fract_z
 _atom_site_occupancy
  Mg  Mg0  1  -0.75778292  0.85084490  0.83105452  1
  Mg  Mg1  1  -0.26221707  0.85084484  0.83105449  1
  Mg  Mg2  1  -0.00999998  0.35880425  0.83182261  1
  Mg  Mg3  1  -0.25778290  0.18915506  0.33105451  1
  Mg  Mg4  1  -0.76221708  0.18915511  0.33105450  1
  Mg  Mg5  1  -0.51000008  0.68119568  0.33182262  1
  Mo  Mo6  1  -0.01000001  0.69073999  0.32350102  1
  Mo  Mo7  1  -0.50999991  0.34926006  0.82350103  1
  N  N8  1  -0.00999996  0.69332019  0.96993250  1
  N  N9  1  -0.27810227  0.19650858  0.93126797  1
  N  N10  1  -0.74189767  0.19650866  0.93126797  1
  N  N11  1  -0.24189781  0.84349135  0.43126793  1
  N  N12  1  -0.77810240  0.84349145  0.43126803  1
  N  N13  1  -0.00999999  0.38317525  0.43066062  1
  N  N14  1  -0.50999996  0.65682492  0.93066057  1
  N  N15  1  -0.50999999  0.34667971  0.46993252  1
