# generated using pymatgen
data_Mg3MoN4
_symmetry_space_group_name_H-M   'P 1'
_cell_length_a   6.76802069
_cell_length_b   5.85102884
_cell_length_c   5.28353437
_cell_angle_alpha   89.99999938
_cell_angle_beta   89.99999836
_cell_angle_gamma   89.99999596
_symmetry_Int_Tables_number   1
_chemical_formula_structural   Mg3MoN4
_chemical_formula_sum   'Mg6 Mo2 N8'
_cell_volume   209.22734948
_cell_formula_units_Z   2
loop_
 _symmetry_equiv_pos_site_id
 _symmetry_equiv_pos_as_xyz
  1  'x, y, z'
loop_
 _atom_site_type_symbol
 _atom_site_label
 _atom_site_symmetry_multiplicity
 _atom_site_fract_x
 _atom_site_fract_y
 _atom_site_fract_z
 _atom_site_occupancy
  Mg  Mg0  1  -0.75778295  0.85084489  0.00457425  1
  Mg  Mg1  1  -0.26221702  0.85084484  0.00457427  1
  Mg  Mg2  1  -0.01000001  0.35880432  0.00380611  1
  Mg  Mg3  1  -0.25778295  0.18915508  0.50457426  1
  Mg  Mg4  1  -0.76221707  0.18915512  0.50457427  1
  Mg  Mg5  1  -0.51000005  0.68119560  0.50380618  1
  Mo  Mo6  1  -0.00999999  0.69074001  0.51212770  1
  Mo  Mo7  1  -0.50999996  0.34926006  0.01212780  1
  N  N8  1  -0.00999994  0.69332020  0.86569565  1
  N  N9  1  -0.27810228  0.19650857  0.90436055  1
  N  N10  1  -0.74189771  0.19650865  0.90436055  1
  N  N11  1  -0.24189781  0.84349138  0.40436062  1
  N  N12  1  -0.77810232  0.84349145  0.40436055  1
  N  N13  1  -0.01000000  0.38317526  0.40496787  1
  N  N14  1  -0.50999995  0.65682490  0.90496800  1
  N  N15  1  -0.51000000  0.34667969  0.36569572  1
