# generated using pymatgen
data_Mg3MoN4
_symmetry_space_group_name_H-M   'P 1'
_cell_length_a   4.82700443
_cell_length_b   6.03033710
_cell_length_c   6.97517592
_cell_angle_alpha   90.16051289
_cell_angle_beta   90.00072826
_cell_angle_gamma   89.99240925
_symmetry_Int_Tables_number   1
_chemical_formula_structural   Mg3MoN4
_chemical_formula_sum   'Mg6 Mo2 N8'
_cell_volume   203.03585798
_cell_formula_units_Z   2
loop_
 _symmetry_equiv_pos_site_id
 _symmetry_equiv_pos_as_xyz
  1  'x, y, z'
loop_
 _atom_site_type_symbol
 _atom_site_label
 _atom_site_symmetry_multiplicity
 _atom_site_fract_x
 _atom_site_fract_y
 _atom_site_fract_z
 _atom_site_occupancy
  Mg  Mg0  1  0.94622808  0.85268769  0.75526224  1
  Mg  Mg1  1  0.94625758  0.85260395  0.26576512  1
  Mg  Mg2  1  0.94631225  0.35531370  0.00976168  1
  Mg  Mg3  1  0.44627589  0.18739297  0.25423295  1
  Mg  Mg4  1  0.44624692  0.18730598  0.76474178  1
  Mg  Mg5  1  0.44629617  0.68467556  0.51023752  1
  Mo  Mo6  1  0.47571923  0.69005666  0.01021045  1
  Mo  Mo7  1  0.97573073  0.34994258  0.50978979  1
  N  N8  1  0.86035089  0.69260818  0.01013980  1
  N  N9  1  0.88905580  0.19714653  0.27820786  1
  N  N10  1  0.88894044  0.19702215  0.74065010  1
  N  N11  1  0.38903434  0.84286321  0.24179288  1
  N  N12  1  0.38891641  0.84298518  0.77934689  1
  N  N13  1  0.38979413  0.38273644  0.00986065  1
  N  N14  1  0.88976898  0.65727394  0.51013895  1
  N  N15  1  0.36036328  0.34738527  0.50986133  1
