# generated using pymatgen
data_Mg3MoN4
_symmetry_space_group_name_H-M   'P 1'
_cell_length_a   7.14888462
_cell_length_b   6.16863291
_cell_length_c   4.40577297
_cell_angle_alpha   89.88564194
_cell_angle_beta   90.00962599
_cell_angle_gamma   90.41143566
_symmetry_Int_Tables_number   1
_chemical_formula_structural   Mg3MoN4
_chemical_formula_sum   'Mg6 Mo2 N8'
_cell_volume   194.28410043
_cell_formula_units_Z   2
loop_
 _symmetry_equiv_pos_site_id
 _symmetry_equiv_pos_as_xyz
  1  'x, y, z'
loop_
 _atom_site_type_symbol
 _atom_site_label
 _atom_site_symmetry_multiplicity
 _atom_site_fract_x
 _atom_site_fract_y
 _atom_site_fract_z
 _atom_site_occupancy
  Mg  Mg0  1  -0.75177110  0.85342934  0.91280117  1
  Mg  Mg1  1  -0.26568394  0.85364726  0.91290265  1
  Mg  Mg2  1  -0.01048086  0.35309561  0.91206294  1
  Mg  Mg3  1  -0.25730743  0.18833750  0.41949146  1
  Mg  Mg4  1  -0.76522009  0.18848730  0.41951055  1
  Mg  Mg5  1  -0.50952623  0.68281605  0.41947292  1
  Mo  Mo6  1  -0.00955233  0.68994303  0.36677088  1
  Mo  Mo7  1  -0.51046991  0.35010790  0.90422895  1
  N  N8  1  -0.00975874  0.69205720  0.94304667  1
  N  N9  1  -0.27966991  0.19628770  0.92282712  1
  N  N10  1  -0.74301028  0.19655428  0.92279188  1
  N  N11  1  -0.23984284  0.84363318  0.42590376  1
  N  N12  1  -0.77746510  0.84326396  0.42577706  1
  N  N13  1  -0.01027262  0.38102738  0.42474594  1
  N  N14  1  -0.50971939  0.65933601  0.92392152  1
  N  N15  1  -0.51024923  0.34797629  0.42847457  1
