# generated using pymatgen
data_Mg3MoN4
_symmetry_space_group_name_H-M   'P 1'
_cell_length_a   6.87406868
_cell_length_b   5.94234298
_cell_length_c   5.05927115
_cell_angle_alpha   89.99725214
_cell_angle_beta   90.00022844
_cell_angle_gamma   90.05672205
_symmetry_Int_Tables_number   1
_chemical_formula_structural   Mg3MoN4
_chemical_formula_sum   'Mg6 Mo2 N8'
_cell_volume   206.66137980
_cell_formula_units_Z   2
loop_
 _symmetry_equiv_pos_site_id
 _symmetry_equiv_pos_as_xyz
  1  'x, y, z'
loop_
 _atom_site_type_symbol
 _atom_site_label
 _atom_site_symmetry_multiplicity
 _atom_site_fract_x
 _atom_site_fract_y
 _atom_site_fract_z
 _atom_site_occupancy
  Mg  Mg0  1  -0.75599076  0.85175767  0.87493085  1
  Mg  Mg1  1  -0.26368232  0.85179943  0.87494632  1
  Mg  Mg2  1  -0.01006686  0.35698453  0.87533575  1
  Mg  Mg3  1  -0.25631866  0.18820352  0.37495166  1
  Mg  Mg4  1  -0.76400906  0.18824455  0.37493578  1
  Mg  Mg5  1  -0.50993298  0.68302040  0.37532677  1
  Mo  Mo6  1  -0.00993997  0.69035388  0.35790186  1
  Mo  Mo7  1  -0.51006016  0.34964721  0.85790252  1
  N  N8  1  -0.00996438  0.69302885  0.99014794  1
  N  N9  1  -0.27882100  0.19691250  0.95668015  1
  N  N10  1  -0.74155003  0.19694128  0.95663704  1
  N  N11  1  -0.24117787  0.84308409  0.45667408  1
  N  N12  1  -0.77845011  0.84305468  0.45663154  1
  N  N13  1  -0.01003591  0.38313808  0.45593537  1
  N  N14  1  -0.50996399  0.65685678  0.95592445  1
  N  N15  1  -0.51003592  0.34697253  0.49014844  1
