# generated using pymatgen
data_Mg3MoN4
_symmetry_space_group_name_H-M   'P 1'
_cell_length_a   4.94200261
_cell_length_b   5.98735105
_cell_length_c   6.92583477
_cell_angle_alpha   89.91479397
_cell_angle_beta   89.99962281
_cell_angle_gamma   89.99547547
_symmetry_Int_Tables_number   1
_chemical_formula_structural   Mg3MoN4
_chemical_formula_sum   'Mg6 Mo2 N8'
_cell_volume   204.93179167
_cell_formula_units_Z   2
loop_
 _symmetry_equiv_pos_site_id
 _symmetry_equiv_pos_as_xyz
  1  'x, y, z'
loop_
 _atom_site_type_symbol
 _atom_site_label
 _atom_site_symmetry_multiplicity
 _atom_site_fract_x
 _atom_site_fract_y
 _atom_site_fract_z
 _atom_site_occupancy
  Mg  Mg0  1  0.88185657  0.85220275  0.75516238  1
  Mg  Mg1  1  0.88187545  0.85225829  0.26433527  1
  Mg  Mg2  1  0.88206175  0.35611465  0.01009981  1
  Mg  Mg3  1  0.38188493  0.18774586  0.25566660  1
  Mg  Mg4  1  0.38186550  0.18780006  0.76483710  1
  Mg  Mg5  1  0.38204828  0.68389278  0.50989990  1
  Mo  Mo6  1  0.35885059  0.69019402  0.00990749  1
  Mo  Mo7  1  0.85885301  0.34980648  0.51009254  1
  N  N8  1  0.98288624  0.69283009  0.00994508  1
  N  N9  1  0.95194784  0.19700959  0.27902575  1
  N  N10  1  0.95188655  0.19705627  0.74153250  1
  N  N11  1  0.45193630  0.84298548  0.24097256  1
  N  N12  1  0.45187620  0.84293775  0.77846768  1
  N  N13  1  0.45114426  0.38297194  0.01005592  1
  N  N14  1  0.95112658  0.65702096  0.50994393  1
  N  N15  1  0.48288890  0.34717300  0.51005550  1
