# generated using pymatgen
data_Mg3MoN4
_symmetry_space_group_name_H-M   'P 1'
_cell_length_a   7.07199566
_cell_length_b   6.11171051
_cell_length_c   4.60313650
_cell_angle_alpha   89.97167331
_cell_angle_beta   90.00223792
_cell_angle_gamma   90.23490277
_symmetry_Int_Tables_number   1
_chemical_formula_structural   Mg3MoN4
_chemical_formula_sum   'Mg6 Mo2 N8'
_cell_volume   198.95502423
_cell_formula_units_Z   2
loop_
 _symmetry_equiv_pos_site_id
 _symmetry_equiv_pos_as_xyz
  1  'x, y, z'
loop_
 _atom_site_type_symbol
 _atom_site_label
 _atom_site_symmetry_multiplicity
 _atom_site_fract_x
 _atom_site_fract_y
 _atom_site_fract_z
 _atom_site_occupancy
  Mg  Mg0  1  -0.75281093  0.85328339  0.90463814  1
  Mg  Mg1  1  -0.26568328  0.85338728  0.90468386  1
  Mg  Mg2  1  -0.01030239  0.35384810  0.90410785  1
  Mg  Mg3  1  -0.25438611  0.18666712  0.40492943  1
  Mg  Mg4  1  -0.76712555  0.18675372  0.40488723  1
  Mg  Mg5  1  -0.50969375  0.68609899  0.40428438  1
  Mo  Mo6  1  -0.00971050  0.68984023  0.36282097  1
  Mo  Mo7  1  -0.51029101  0.35016865  0.86316538  1
  N  N8  1  -0.00981513  0.69215504  0.95921559  1
  N  N9  1  -0.27962523  0.19696898  0.93581297  1
  N  N10  1  -0.74198603  0.19713735  0.93567614  1
  N  N11  1  -0.24035928  0.84300831  0.43564379  1
  N  N12  1  -0.77802254  0.84282570  0.43551402  1
  N  N13  1  -0.01019034  0.38208940  0.43495558  1
  N  N14  1  -0.50980782  0.65788814  0.93502547  1
  N  N15  1  -0.51019010  0.34787961  0.45950774  1
