# generated using pymatgen
data_Mg3MoN4
_symmetry_space_group_name_H-M   'P 1'
_cell_length_a   6.92594478
_cell_length_b   5.98759985
_cell_length_c   4.94155203
_cell_angle_alpha   90.00455646
_cell_angle_beta   89.99957733
_cell_angle_gamma   90.12607921
_symmetry_Int_Tables_number   1
_chemical_formula_structural   Mg3MoN4
_chemical_formula_sum   'Mg6 Mo2 N8'
_cell_volume   204.92460794
_cell_formula_units_Z   2
loop_
 _symmetry_equiv_pos_site_id
 _symmetry_equiv_pos_as_xyz
  1  'x, y, z'
loop_
 _atom_site_type_symbol
 _atom_site_label
 _atom_site_symmetry_multiplicity
 _atom_site_fract_x
 _atom_site_fract_y
 _atom_site_fract_z
 _atom_site_occupancy
  Mg  Mg0  1  -0.75580191  -0.85227005  0.95372585  1
  Mg  Mg1  1  -0.26497962  -0.85219208  0.95375535  1
  Mg  Mg2  1  -0.00982611  -0.35611003  0.95356879  1
  Mg  Mg3  1  -0.25501994  -0.18780524  0.45376429  1
  Mg  Mg4  1  -0.76420007  -0.18772560  0.45373541  1
  Mg  Mg5  1  -0.51017350  -0.68388246  0.45355538  1
  Mo  Mo6  1  -0.01015512  -0.69019393  0.47677985  1
  Mo  Mo7  1  -0.50984496  -0.34980553  0.97678236  1
  N  N8  1  -0.01010038  -0.69282676  0.85277575  1
  N  N9  1  -0.27830941  -0.19707912  0.88379792  1
  N  N10  1  -0.74081642  -0.19699309  0.88370190  1
  N  N11  1  -0.24169068  -0.84292713  0.38378765  1
  N  N12  1  -0.77918177  -0.84301184  0.38369038  1
  N  N13  1  -0.00990027  -0.38298263  0.38452907  1
  N  N14  1  -0.51009955  -0.65702429  0.88451156  1
  N  N15  1  -0.50990028  -0.34717022  0.35277849  1
