# generated using pymatgen
data_Mg3MoN4
_symmetry_space_group_name_H-M   'P 1'
_cell_length_a   6.76784906
_cell_length_b   5.85195862
_cell_length_c   5.28353022
_cell_angle_alpha   90.00000228
_cell_angle_beta   90.00000092
_cell_angle_gamma   89.99999967
_symmetry_Int_Tables_number   1
_chemical_formula_structural   Mg3MoN4
_chemical_formula_sum   'Mg6 Mo2 N8'
_cell_volume   209.25512629
_cell_formula_units_Z   2
loop_
 _symmetry_equiv_pos_site_id
 _symmetry_equiv_pos_as_xyz
  1  'x, y, z'
loop_
 _atom_site_type_symbol
 _atom_site_label
 _atom_site_symmetry_multiplicity
 _atom_site_fract_x
 _atom_site_fract_y
 _atom_site_fract_z
 _atom_site_occupancy
  Mg  Mg0  1  -0.75774377  -0.85087072  0.01742768  1
  Mg  Mg1  1  -0.26225623  -0.85087071  0.01742768  1
  Mg  Mg2  1  -0.01000000  -0.35893683  0.01663993  1
  Mg  Mg3  1  -0.25774376  -0.18912928  0.51742770  1
  Mg  Mg4  1  -0.76225624  -0.18912929  0.51742770  1
  Mg  Mg5  1  -0.51000000  -0.68106318  0.51663996  1
  Mo  Mo6  1  -0.01000001  -0.69080482  0.52494399  1
  Mo  Mo7  1  -0.51000000  -0.34919518  0.02494412  1
  N  N8  1  -0.01000000  -0.69342621  0.87852603  1
  N  N9  1  -0.27807162  -0.19650223  0.91719583  1
  N  N10  1  -0.74192838  -0.19650224  0.91719583  1
  N  N11  1  -0.24192838  -0.84349776  0.41719583  1
  N  N12  1  -0.77807162  -0.84349776  0.41719582  1
  N  N13  1  -0.01000000  -0.38328414  0.41781872  1
  N  N14  1  -0.51000000  -0.65671585  0.91781878  1
  N  N15  1  -0.51000000  -0.34657379  0.37852610  1
