# generated using pymatgen
data_Mg3MoN4
_symmetry_space_group_name_H-M   'P 1'
_cell_length_a   6.76832183
_cell_length_b   5.85127906
_cell_length_c   5.28294549
_cell_angle_alpha   89.99998309
_cell_angle_beta   90.00000280
_cell_angle_gamma   89.99958843
_symmetry_Int_Tables_number   1
_chemical_formula_structural   Mg3MoN4
_chemical_formula_sum   'Mg6 Mo2 N8'
_cell_volume   209.22228552
_cell_formula_units_Z   2
loop_
 _symmetry_equiv_pos_site_id
 _symmetry_equiv_pos_as_xyz
  1  'x, y, z'
loop_
 _atom_site_type_symbol
 _atom_site_label
 _atom_site_symmetry_multiplicity
 _atom_site_fract_x
 _atom_site_fract_y
 _atom_site_fract_z
 _atom_site_occupancy
  Mg  Mg0  1  -0.75777926  0.85084762  0.97887012  1
  Mg  Mg1  1  -0.26222292  0.85084717  0.97887035  1
  Mg  Mg2  1  -0.00999955  0.35879897  0.97810324  1
  Mg  Mg3  1  -0.25777706  0.18915270  0.47887038  1
  Mg  Mg4  1  -0.76222075  0.18915237  0.47887016  1
  Mg  Mg5  1  -0.51000052  0.68120094  0.47810319  1
  Mo  Mo6  1  -0.01000040  0.69073867  0.48644648  1
  Mo  Mo7  1  -0.50999954  0.34926140  0.98644650  1
  N  N8  1  -0.01000016  0.69331968  0.84004878  1
  N  N9  1  -0.27810314  0.19651041  0.87869986  1
  N  N10  1  -0.74189424  0.19651032  0.87869945  1
  N  N11  1  -0.24189694  0.84348953  0.37869982  1
  N  N12  1  -0.77810579  0.84348979  0.37869932  1
  N  N13  1  -0.00999978  0.38317550  0.37930726  1
  N  N14  1  -0.51000020  0.65682471  0.87930724  1
  N  N15  1  -0.50999975  0.34668023  0.34004879  1
