# generated using pymatgen
data_Mg3MoN4
_symmetry_space_group_name_H-M   'P 1'
_cell_length_a   5.28352900
_cell_length_b   5.85103007
_cell_length_c   6.76802289
_cell_angle_alpha   90.00000520
_cell_angle_beta   90.00000681
_cell_angle_gamma   90.00000613
_symmetry_Int_Tables_number   1
_chemical_formula_structural   Mg3MoN4
_chemical_formula_sum   'Mg6 Mo2 N8'
_cell_volume   209.22724870
_cell_formula_units_Z   2
loop_
 _symmetry_equiv_pos_site_id
 _symmetry_equiv_pos_as_xyz
  1  'x, y, z'
loop_
 _atom_site_type_symbol
 _atom_site_label
 _atom_site_symmetry_multiplicity
 _atom_site_fract_x
 _atom_site_fract_y
 _atom_site_fract_z
 _atom_site_occupancy
  Mg  Mg0  1  0.83105452  0.85084490  0.75778292  1
  Mg  Mg1  1  0.83105449  0.85084484  0.26221707  1
  Mg  Mg2  1  0.83182261  0.35880425  0.00999998  1
  Mg  Mg3  1  0.33105451  0.18915506  0.25778290  1
  Mg  Mg4  1  0.33105450  0.18915511  0.76221708  1
  Mg  Mg5  1  0.33182262  0.68119568  0.51000008  1
  Mo  Mo6  1  0.32350102  0.69073999  0.01000001  1
  Mo  Mo7  1  0.82350103  0.34926006  0.50999991  1
  N  N8  1  0.96993250  0.69332019  0.00999996  1
  N  N9  1  0.93126797  0.19650858  0.27810227  1
  N  N10  1  0.93126797  0.19650866  0.74189767  1
  N  N11  1  0.43126793  0.84349135  0.24189781  1
  N  N12  1  0.43126803  0.84349145  0.77810240  1
  N  N13  1  0.43066062  0.38317525  0.00999999  1
  N  N14  1  0.93066057  0.65682492  0.50999996  1
  N  N15  1  0.46993252  0.34667971  0.50999999  1
