# generated using pymatgen
data_Mg3MoN4
_symmetry_space_group_name_H-M   'P 1'
_cell_length_a   5.28294549
_cell_length_b   5.85127906
_cell_length_c   6.76832183
_cell_angle_alpha   90.00041157
_cell_angle_beta   89.99999720
_cell_angle_gamma   89.99998309
_symmetry_Int_Tables_number   1
_chemical_formula_structural   Mg3MoN4
_chemical_formula_sum   'Mg6 Mo2 N8'
_cell_volume   209.22228552
_cell_formula_units_Z   2
loop_
 _symmetry_equiv_pos_site_id
 _symmetry_equiv_pos_as_xyz
  1  'x, y, z'
loop_
 _atom_site_type_symbol
 _atom_site_label
 _atom_site_symmetry_multiplicity
 _atom_site_fract_x
 _atom_site_fract_y
 _atom_site_fract_z
 _atom_site_occupancy
  Mg  Mg0  1  0.97887012  0.85084762  0.75777926  1
  Mg  Mg1  1  0.97887035  0.85084717  0.26222292  1
  Mg  Mg2  1  0.97810324  0.35879897  0.00999955  1
  Mg  Mg3  1  0.47887038  0.18915270  0.25777706  1
  Mg  Mg4  1  0.47887016  0.18915237  0.76222075  1
  Mg  Mg5  1  0.47810319  0.68120094  0.51000052  1
  Mo  Mo6  1  0.48644648  0.69073867  0.01000040  1
  Mo  Mo7  1  0.98644650  0.34926140  0.50999954  1
  N  N8  1  0.84004878  0.69331968  0.01000016  1
  N  N9  1  0.87869986  0.19651041  0.27810314  1
  N  N10  1  0.87869945  0.19651032  0.74189424  1
  N  N11  1  0.37869982  0.84348953  0.24189694  1
  N  N12  1  0.37869932  0.84348979  0.77810579  1
  N  N13  1  0.37930726  0.38317550  0.00999978  1
  N  N14  1  0.87930724  0.65682471  0.51000020  1
  N  N15  1  0.34004879  0.34668023  0.50999975  1
