# generated using pymatgen
data_Mg3MoN4
_symmetry_space_group_name_H-M   'P 1'
_cell_length_a   7.14545798
_cell_length_b   6.16582784
_cell_length_c   4.42718721
_cell_angle_alpha   90.11853020
_cell_angle_beta   90.01194496
_cell_angle_gamma   89.53425737
_symmetry_Int_Tables_number   1
_chemical_formula_structural   Mg3MoN4
_chemical_formula_sum   'Mg6 Mo2 N8'
_cell_volume   195.04466022
_cell_formula_units_Z   2
loop_
 _symmetry_equiv_pos_site_id
 _symmetry_equiv_pos_as_xyz
  1  'x, y, z'
loop_
 _atom_site_type_symbol
 _atom_site_label
 _atom_site_symmetry_multiplicity
 _atom_site_fract_x
 _atom_site_fract_y
 _atom_site_fract_z
 _atom_site_occupancy
  Mg  Mg0  1  -0.75145925  -0.85345471  0.91167077  1
  Mg  Mg1  1  -0.26564011  -0.85367894  0.91178330  1
  Mg  Mg2  1  -0.01055517  -0.35305803  0.91100121  1
  Mg  Mg3  1  -0.25626254  -0.18761393  0.42140339  1
  Mg  Mg4  1  -0.76662692  -0.18778821  0.42146666  1
  Mg  Mg5  1  -0.50944552  -0.68418406  0.42175326  1
  Mo  Mo6  1  -0.00946822  -0.69005554  0.36549369  1
  Mo  Mo7  1  -0.51054529  -0.35003173  0.95754690  1
  N  N8  1  -0.00970502  -0.69217570  0.94397247  1
  N  N9  1  -0.28008627  -0.19636701  0.91566395  1
  N  N10  1  -0.74299732  -0.19669078  0.91569796  1
  N  N11  1  -0.23965379  -0.84358058  0.42473431  1
  N  N12  1  -0.77725669  -0.84317775  0.42461032  1
  N  N13  1  -0.01031638  -0.38122164  0.42302608  1
  N  N14  1  -0.50967884  -0.65910192  0.91740802  1
  N  N15  1  -0.51030266  -0.34781946  0.39743985  1
