# generated using pymatgen
data_Mg3MoN4
_symmetry_space_group_name_H-M   'P 1'
_cell_length_a   6.76839464
_cell_length_b   5.85134231
_cell_length_c   5.28279635
_cell_angle_alpha   89.99998778
_cell_angle_beta   90.00000205
_cell_angle_gamma   90.00046341
_symmetry_Int_Tables_number   1
_chemical_formula_structural   Mg3MoN4
_chemical_formula_sum   'Mg6 Mo2 N8'
_cell_volume   209.22089107
_cell_formula_units_Z   2
loop_
 _symmetry_equiv_pos_site_id
 _symmetry_equiv_pos_as_xyz
  1  'x, y, z'
loop_
 _atom_site_type_symbol
 _atom_site_label
 _atom_site_symmetry_multiplicity
 _atom_site_fract_x
 _atom_site_fract_y
 _atom_site_fract_z
 _atom_site_occupancy
  Mg  Mg0  1  -0.75777573  0.85084787  0.85674987  1
  Mg  Mg1  1  -0.26222174  0.85084826  0.85675006  1
  Mg  Mg2  1  -0.01000052  0.35879779  0.85751675  1
  Mg  Mg3  1  -0.25777823  0.18915168  0.35675011  1
  Mg  Mg4  1  -0.76222429  0.18915216  0.35674988  1
  Mg  Mg5  1  -0.50999953  0.68120215  0.35751665  1
  Mo  Mo6  1  -0.00999952  0.69073844  0.34916870  1
  Mo  Mo7  1  -0.51000042  0.34926162  0.84916864  1
  N  N8  1  -0.00999970  0.69331954  0.99555723  1
  N  N9  1  -0.27810642  0.19651059  0.95691023  1
  N  N10  1  -0.74189655  0.19651084  0.95690978  1
  N  N11  1  -0.24189366  0.84348934  0.45691013  1
  N  N12  1  -0.77810349  0.84348924  0.45690976  1
  N  N13  1  -0.01000024  0.38317566  0.45630230  1
  N  N14  1  -0.50999971  0.65682447  0.95630213  1
  N  N15  1  -0.51000025  0.34668035  0.49555719  1
