# generated using pymatgen
data_Mg3MoN4
_symmetry_space_group_name_H-M   'P 1'
_cell_length_a   5.17983069
_cell_length_b   5.89422055
_cell_length_c   6.81848388
_cell_angle_alpha   89.96882576
_cell_angle_beta   89.99989465
_cell_angle_gamma   89.99868190
_symmetry_Int_Tables_number   1
_chemical_formula_structural   Mg3MoN4
_chemical_formula_sum   'Mg6 Mo2 N8'
_cell_volume   208.17554026
_cell_formula_units_Z   2
loop_
 _symmetry_equiv_pos_site_id
 _symmetry_equiv_pos_as_xyz
  1  'x, y, z'
loop_
 _atom_site_type_symbol
 _atom_site_label
 _atom_site_symmetry_multiplicity
 _atom_site_fract_x
 _atom_site_fract_y
 _atom_site_fract_z
 _atom_site_occupancy
  Mg  Mg0  1  0.86862239  0.85127420  0.75690737  1
  Mg  Mg1  1  0.86863361  0.85129973  0.26291576  1
  Mg  Mg2  1  0.86921902  0.35793872  0.01003830  1
  Mg  Mg3  1  0.36863614  0.18870194  0.25708466  1
  Mg  Mg4  1  0.36862470  0.18872717  0.76309260  1
  Mg  Mg5  1  0.36921449  0.68206372  0.50996166  1
  Mo  Mo6  1  0.35699511  0.69054422  0.00996644  1
  Mo  Mo7  1  0.85699521  0.34945602  0.51003362  1
  N  N8  1  0.99709384  0.69320179  0.00998011  1
  N  N9  1  0.96088707  0.19673583  0.27851152  1
  N  N10  1  0.96086099  0.19675111  0.74169454  1
  N  N11  1  0.46088436  0.84326238  0.24148809  1
  N  N12  1  0.46085852  0.84324681  0.77830540  1
  N  N13  1  0.46021352  0.38320366  0.01001959  1
  N  N14  1  0.96020839  0.65679409  0.50998034  1
  N  N15  1  0.49709395  0.34679860  0.51002001  1
