# generated using pymatgen
data_Mg3MoN4
_symmetry_space_group_name_H-M   'P 1'
_cell_length_a   5.05912171
_cell_length_b   5.94244561
_cell_length_c   6.87407454
_cell_angle_alpha   90.09301658
_cell_angle_beta   90.00027651
_cell_angle_gamma   89.99725978
_symmetry_Int_Tables_number   1
_chemical_formula_structural   Mg3MoN4
_chemical_formula_sum   'Mg6 Mo2 N8'
_cell_volume   206.65884975
_cell_formula_units_Z   2
loop_
 _symmetry_equiv_pos_site_id
 _symmetry_equiv_pos_as_xyz
  1  'x, y, z'
loop_
 _atom_site_type_symbol
 _atom_site_label
 _atom_site_symmetry_multiplicity
 _atom_site_fract_x
 _atom_site_fract_y
 _atom_site_fract_z
 _atom_site_occupancy
  Mg  Mg0  1  0.96067268  0.85181178  0.75642510  1
  Mg  Mg1  1  0.96070021  0.85174422  0.26411843  1
  Mg  Mg2  1  0.96030394  0.35698151  0.00988492  1
  Mg  Mg3  1  0.46070516  0.18825360  0.25588151  1
  Mg  Mg4  1  0.46067815  0.18818509  0.76357596  1
  Mg  Mg5  1  0.46029496  0.68301363  0.51011489  1
  Mo  Mo6  1  0.47773389  0.69035339  0.01010372  1
  Mo  Mo7  1  0.97773455  0.34964626  0.50989641  1
  N  N8  1  0.84549751  0.69302707  0.01006210  1
  N  N9  1  0.87902697  0.19695494  0.27832610  1
  N  N10  1  0.87895340  0.19690357  0.74105533  1
  N  N11  1  0.37902150  0.84304909  0.24167382  1
  N  N12  1  0.37894719  0.84309964  0.77894360  1
  N  N13  1  0.37971821  0.38314507  0.00993790  1
  N  N14  1  0.87970741  0.65685945  0.51006196  1
  N  N15  1  0.34549820  0.34697166  0.50993823  1
