# generated using pymatgen
data_Li3AsO4
_symmetry_space_group_name_H-M   'P 1'
_cell_length_a   5.04619637
_cell_length_b   5.46644630
_cell_length_c   6.36154887
_cell_angle_alpha   90.00000064
_cell_angle_beta   90.00000148
_cell_angle_gamma   90.00001378
_symmetry_Int_Tables_number   1
_chemical_formula_structural   Li3AsO4
_chemical_formula_sum   'Li6 As2 O8'
_cell_volume   175.48180818
_cell_formula_units_Z   2
loop_
 _symmetry_equiv_pos_site_id
 _symmetry_equiv_pos_as_xyz
  1  'x, y, z'
loop_
 _atom_site_type_symbol
 _atom_site_label
 _atom_site_symmetry_multiplicity
 _atom_site_fract_x
 _atom_site_fract_y
 _atom_site_fract_z
 _atom_site_occupancy
  As  As0  1  0.00675363  0.17111828  0.99583338  1
  As  As1  1  0.50675373  0.82888165  0.49583338  1
  O  O2  1  0.11664656  0.87138597  0.99583336  1
  O  O3  1  0.66397115  0.17610174  0.99583339  1
  O  O4  1  0.11905800  0.32075042  0.77296015  1
  O  O5  1  0.11905805  0.32075027  0.21870672  1
  O  O6  1  0.61905826  0.67924975  0.71870678  1
  O  O7  1  0.61905820  0.67924960  0.27296008  1
  O  O8  1  0.16397127  0.82389856  0.49583338  1
  O  O9  1  0.61664644  0.12861403  0.49583336  1
  Li  Li10  1  0.01364896  0.66978407  0.74807136  1
  Li  Li11  1  0.01364828  0.66978382  0.24359514  1
  Li  Li12  1  0.51388088  0.83578688  0.99583317  1
  Li  Li13  1  0.01388113  0.16421418  0.49583317  1
  Li  Li14  1  0.51364822  0.33021551  0.74359509  1
  Li  Li15  1  0.51364890  0.33021527  0.24807142  1
