# generated using pymatgen
data_Li3AsO4
_symmetry_space_group_name_H-M   'P 1'
_cell_length_a   5.04619637
_cell_length_b   5.52225316
_cell_length_c   6.46634368
_cell_angle_alpha   89.99880686
_cell_angle_beta   90.00084044
_cell_angle_gamma   90.00001372
_symmetry_Int_Tables_number   1
_chemical_formula_structural   Li3AsO4
_chemical_formula_sum   'Li6 As2 O8'
_cell_volume   180.19355038
_cell_formula_units_Z   2
loop_
 _symmetry_equiv_pos_site_id
 _symmetry_equiv_pos_as_xyz
  1  'x, y, z'
loop_
 _atom_site_type_symbol
 _atom_site_label
 _atom_site_symmetry_multiplicity
 _atom_site_fract_x
 _atom_site_fract_y
 _atom_site_fract_z
 _atom_site_occupancy
  As  As0  1  0.13024586  0.17002179  0.99581237  1
  As  As1  1  0.60010646  0.82829741  0.49584109  1
  O  O2  1  0.02074043  0.87348872  0.99585278  1
  O  O3  1  0.47361426  0.17397840  0.99581874  1
  O  O4  1  0.01854531  0.32005268  0.77769725  1
  O  O5  1  0.01853869  0.32006250  0.21391422  1
  O  O6  1  0.53085149  0.67666170  0.72300365  1
  O  O7  1  0.53084626  0.67663980  0.26868742  1
  O  O8  1  0.01581766  0.82465539  0.49585358  1
  O  O9  1  0.53191801  0.13460394  0.49581781  1
  Li  Li10  1  0.09920258  0.67013026  0.75010553  1
  Li  Li11  1  0.09920180  0.67009256  0.24163948  1
  Li  Li12  1  0.62808250  0.84353911  0.99585914  1
  Li  Li13  1  0.09492433  0.16575386  0.49578560  1
  Li  Li14  1  0.62779054  0.32602656  0.74841975  1
  Li  Li15  1  0.62779731  0.32599597  0.24322518  1
