# generated using pymatgen
data_Li3AsO4
_symmetry_space_group_name_H-M   'P 1'
_cell_length_a   5.04619637
_cell_length_b   5.52794357
_cell_length_c   6.45495090
_cell_angle_alpha   90.00064491
_cell_angle_beta   89.99922432
_cell_angle_gamma   90.00001371
_symmetry_Int_Tables_number   1
_chemical_formula_structural   Li3AsO4
_chemical_formula_sum   'Li6 As2 O8'
_cell_volume   180.06142845
_cell_formula_units_Z   2
loop_
 _symmetry_equiv_pos_site_id
 _symmetry_equiv_pos_as_xyz
  1  'x, y, z'
loop_
 _atom_site_type_symbol
 _atom_site_label
 _atom_site_symmetry_multiplicity
 _atom_site_fract_x
 _atom_site_fract_y
 _atom_site_fract_z
 _atom_site_occupancy
  As  As0  1  0.15487154  0.17244897  0.99584789  1
  As  As1  1  0.49812701  0.82935330  0.49581137  1
  O  O2  1  0.07033163  0.86975477  0.99584529  1
  O  O3  1  0.50095210  0.17454223  0.99583659  1
  O  O4  1  0.06660392  0.32194863  0.77123070  1
  O  O5  1  0.06659247  0.32193261  0.22047178  1
  O  O6  1  0.61109442  0.68106060  0.71443014  1
  O  O7  1  0.61107100  0.68108160  0.27718374  1
  O  O8  1  0.15614345  0.82571486  0.49584051  1
  O  O9  1  0.60870606  0.12486863  0.49584515  1
  Li  Li10  1  0.00618585  0.67365641  0.74732927  1
  Li  Li11  1  0.00618543  0.67362310  0.24438259  1
  Li  Li12  1  0.56136841  0.82635039  0.99575894  1
  Li  Li13  1  0.00597197  0.15818963  0.49584587  1
  Li  Li14  1  0.56199221  0.33274933  0.73531471  1
  Li  Li15  1  0.56202601  0.33272561  0.25635906  1
