# generated using pymatgen
data_Li3AsO4
_symmetry_space_group_name_H-M   'P 1'
_cell_length_a   5.04619637
_cell_length_b   5.49562446
_cell_length_c   6.42376449
_cell_angle_alpha   89.99932469
_cell_angle_beta   90.00089231
_cell_angle_gamma   90.00001375
_symmetry_Int_Tables_number   1
_chemical_formula_structural   Li3AsO4
_chemical_formula_sum   'Li6 As2 O8'
_cell_volume   178.14383804
_cell_formula_units_Z   2
loop_
 _symmetry_equiv_pos_site_id
 _symmetry_equiv_pos_as_xyz
  1  'x, y, z'
loop_
 _atom_site_type_symbol
 _atom_site_label
 _atom_site_symmetry_multiplicity
 _atom_site_fract_x
 _atom_site_fract_y
 _atom_site_fract_z
 _atom_site_occupancy
  As  As0  1  0.13063978  0.17096837  0.99581896  1
  As  As1  1  0.63065729  0.82834422  0.49583793  1
  O  O2  1  0.02053341  0.87282347  0.99583740  1
  O  O3  1  0.47334187  0.17561985  0.99582791  1
  O  O4  1  0.01812616  0.31997920  0.77527532  1
  O  O5  1  0.01812053  0.31998343  0.21635108  1
  O  O6  1  0.52205349  0.67959522  0.71820788  1
  O  O7  1  0.52204975  0.67957783  0.27347608  1
  O  O8  1  0.97556507  0.82368511  0.49583380  1
  O  O9  1  0.52447910  0.12820680  0.49582773  1
  Li  Li10  1  0.11473872  0.67008743  0.74914166  1
  Li  Li11  1  0.11474074  0.67006491  0.24253204  1
  Li  Li12  1  0.62390969  0.83886943  0.99586333  1
  Li  Li13  1  0.11225377  0.16493648  0.49581729  1
  Li  Li14  1  0.62350166  0.32864309  0.74508579  1
  Li  Li15  1  0.62351245  0.32861583  0.24659937  1
