# generated using pymatgen
data_Li3AsO4
_symmetry_space_group_name_H-M   'P 1'
_cell_length_a   5.04619637
_cell_length_b   5.52655905
_cell_length_c   6.47188176
_cell_angle_alpha   90.00168628
_cell_angle_beta   89.99918744
_cell_angle_gamma   90.00001371
_symmetry_Int_Tables_number   1
_chemical_formula_structural   Li3AsO4
_chemical_formula_sum   'Li6 As2 O8'
_cell_volume   180.48850016
_cell_formula_units_Z   2
loop_
 _symmetry_equiv_pos_site_id
 _symmetry_equiv_pos_as_xyz
  1  'x, y, z'
loop_
 _atom_site_type_symbol
 _atom_site_label
 _atom_site_symmetry_multiplicity
 _atom_site_fract_x
 _atom_site_fract_y
 _atom_site_fract_z
 _atom_site_occupancy
  As  As0  1  0.08591059  0.17161714  0.99583636  1
  As  As1  1  0.50112337  0.83015109  0.49581183  1
  O  O2  1  0.09361939  0.86237426  0.99581697  1
  O  O3  1  0.57414156  0.17512142  0.99585487  1
  O  O4  1  0.09414014  0.32488031  0.76643120  1
  O  O5  1  0.09412421  0.32486299  0.22526064  1
  O  O6  1  0.61213339  0.67984298  0.71367166  1
  O  O7  1  0.61212353  0.67985357  0.27793469  1
  O  O8  1  0.15725592  0.82620358  0.49581828  1
  O  O9  1  0.61003349  0.12649938  0.49585370  1
  Li  Li10  1  0.00219323  0.67437952  0.74293167  1
  Li  Li11  1  0.00218597  0.67434990  0.24871481  1
  Li  Li12  1  0.53813792  0.83417907  0.99578592  1
  Li  Li13  1  0.00204551  0.15592274  0.49585788  1
  Li  Li14  1  0.53452136  0.32990047  0.74148666  1
  Li  Li15  1  0.53453389  0.32986224  0.25026644  1
