# generated using pymatgen
data_Li3AsO4
_symmetry_space_group_name_H-M   'P 1'
_cell_length_a   5.04619637
_cell_length_b   5.52604917
_cell_length_c   6.47065613
_cell_angle_alpha   89.99864360
_cell_angle_beta   90.00065746
_cell_angle_gamma   90.00001371
_symmetry_Int_Tables_number   1
_chemical_formula_structural   Li3AsO4
_chemical_formula_sum   'Li6 As2 O8'
_cell_volume   180.43767081
_cell_formula_units_Z   2
loop_
 _symmetry_equiv_pos_site_id
 _symmetry_equiv_pos_as_xyz
  1  'x, y, z'
loop_
 _atom_site_type_symbol
 _atom_site_label
 _atom_site_symmetry_multiplicity
 _atom_site_fract_x
 _atom_site_fract_y
 _atom_site_fract_z
 _atom_site_occupancy
  As  As0  1  0.13052591  0.17009762  0.99581294  1
  As  As1  1  0.48794064  0.82820736  0.49584472  1
  O  O2  1  0.02125167  0.87371678  0.99585317  1
  O  O3  1  0.47361872  0.17379621  0.99582012  1
  O  O4  1  0.01906591  0.31986557  0.77773778  1
  O  O5  1  0.01905820  0.31987602  0.21387594  1
  O  O6  1  0.54329500  0.67590788  0.72419925  1
  O  O7  1  0.54328465  0.67588522  0.26749297  1
  O  O8  1  0.10060294  0.82536347  0.49585237  1
  O  O9  1  0.54344245  0.13590740  0.49581904  1
  Li  Li10  1  0.09501483  0.66877489  0.75261319  1
  Li  Li11  1  0.09500950  0.66873833  0.23912163  1
  Li  Li12  1  0.62867761  0.84363197  0.99585862  1
  Li  Li13  1  0.09062103  0.16855431  0.49578504  1
  Li  Li14  1  0.62840442  0.32585425  0.74808106  1
  Li  Li15  1  0.62840999  0.32582341  0.24356576  1
