# generated using pymatgen
data_GdAl35N36
_symmetry_space_group_name_H-M   'P 1'
_cell_length_a   9.54286653
_cell_length_b   9.54286649
_cell_length_c   9.82485814
_cell_angle_alpha   89.99999961
_cell_angle_beta   89.99999842
_cell_angle_gamma   60.00000495
_symmetry_Int_Tables_number   1
_chemical_formula_structural   GdAl35N36
_chemical_formula_sum   'Gd1 Al35 N36'
_cell_volume   774.84465009
_cell_formula_units_Z   1
loop_
 _symmetry_equiv_pos_site_id
 _symmetry_equiv_pos_as_xyz
  1  'x, y, z'
loop_
 _atom_site_type_symbol
 _atom_site_label
 _atom_site_symmetry_multiplicity
 _atom_site_fract_x
 _atom_site_fract_y
 _atom_site_fract_z
 _atom_site_occupancy
  Al  Al0  1  0.10668698  0.10329270  0.33409076  1
  Al  Al1  1  0.22003146  0.21141577  0.07683439  1
  Al  Al2  1  0.77744394  0.09461135  0.82772017  1
  Al  Al3  1  0.88574549  0.20737336  0.57713214  1
  Al  Al4  1  0.44456384  0.09456385  0.32680809  1
  Al  Al5  1  0.55555556  0.20555557  0.07772152  1
  Al  Al6  1  0.10967596  0.09731474  0.81870091  1
  Al  Al7  1  0.22354781  0.20737335  0.57713214  1
  Al  Al8  1  0.77753897  0.09456384  0.32680811  1
  Al  Al9  1  0.88521945  0.21141575  0.07683438  1
  Al  Al10  1  0.44461134  0.09461136  0.82772020  1
  Al  Al11  1  0.55555554  0.20555557  0.57649326  1
  Al  Al12  1  0.11168901  0.42748883  0.32617704  1
  Al  Al13  1  0.22003147  0.53521946  0.07683438  1
  Al  Al14  1  0.77825035  0.42825038  0.82721293  1
  Al  Al15  1  0.88888888  0.53888890  0.57641316  1
  Al  Al16  1  0.44456384  0.42753898  0.32680809  1
  Al  Al17  1  0.56141576  0.53521945  0.07683439  1
  Al  Al18  1  0.11016591  0.42825038  0.82721290  1
  Al  Al19  1  0.22354780  0.53574553  0.57713214  1
  Al  Al20  1  0.77748882  0.42748882  0.32617700  1
  Al  Al21  1  0.88888890  0.53888890  0.07846339  1
  Al  Al22  1  0.44461133  0.42744397  0.82772019  1
  Al  Al23  1  0.55737335  0.53574549  0.57713214  1
  Al  Al24  1  0.10668699  0.75668700  0.33409074  1
  Al  Al25  1  0.77825035  0.76016593  0.82721291  1
  Al  Al26  1  0.88574551  0.87354781  0.57713215  1
  Al  Al27  1  0.45329271  0.75668698  0.33409080  1
  Al  Al28  1  0.56141577  0.87003147  0.07683440  1
  Al  Al29  1  0.10967596  0.75967598  0.81870093  1
  Al  Al30  1  0.22222222  0.87222224  0.57724301  1
  Al  Al31  1  0.77748883  0.76168902  0.32617702  1
  Al  Al32  1  0.88521946  0.87003149  0.07683438  1
  Al  Al33  1  0.44731473  0.75967597  0.81870088  1
  Al  Al34  1  0.55737335  0.87354784  0.57713214  1
  Gd  Gd35  1  0.22222229  0.87222223  0.08589019  1
  N  N36  1  0.22450605  0.20746303  0.38453712  1
  N  N37  1  0.09457089  0.12752487  0.14293972  1
  N  N38  1  0.88972956  0.20517442  0.88109480  1
  N  N39  1  0.77678437  0.09494115  0.63342138  1
  N  N40  1  0.55555555  0.20555556  0.38119707  1
  N  N41  1  0.44379408  0.09379408  0.13118372  1
  N  N42  1  0.22176267  0.20517443  0.88109481  1
  N  N43  1  0.10952115  0.09762435  0.62497034  1
  N  N44  1  0.88469759  0.20746304  0.38453712  1
  N  N45  1  0.77907849  0.09379409  0.13118374  1
  N  N46  1  0.55555555  0.20555557  0.88339099  1
  N  N47  1  0.44494113  0.09494115  0.63342140  1
  N  N48  1  0.22450605  0.53469762  0.38453711  1
  N  N49  1  0.11095435  0.42785617  0.13192096  1
  N  N50  1  0.88888888  0.53888890  0.88328107  1
  N  N51  1  0.77822397  0.42822399  0.63327236  1
  N  N52  1  0.55746304  0.53469757  0.38453712  1
  N  N53  1  0.44379407  0.42907851  0.13118373  1
  N  N54  1  0.22176267  0.53972957  0.88109481  1
  N  N55  1  0.11021868  0.42822400  0.63327233  1
  N  N56  1  0.88888888  0.53888890  0.38131461  1
  N  N57  1  0.77785617  0.42785616  0.13192093  1
  N  N58  1  0.55517439  0.53972959  0.88109481  1
  N  N59  1  0.44494113  0.42678439  0.63342139  1
  N  N60  1  0.22222223  0.87222224  0.37545777  1
  N  N61  1  0.09457093  0.74457094  0.14293969  1
  N  N62  1  0.88972955  0.87176270  0.88109480  1
  N  N63  1  0.77822398  0.76021870  0.63327235  1
  N  N64  1  0.55746304  0.87450607  0.38453712  1
  N  N65  1  0.47752492  0.74457088  0.14293977  1
  N  N66  1  0.22222223  0.87222224  0.85622172  1
  N  N67  1  0.10952116  0.75952118  0.62497036  1
  N  N68  1  0.88469761  0.87450605  0.38453711  1
  N  N69  1  0.77785618  0.76095436  0.13192094  1
  N  N70  1  0.55517440  0.87176269  0.88109481  1
  N  N71  1  0.44762434  0.75952116  0.62497031  1
