# generated using pymatgen
data_GdAl35N36
_symmetry_space_group_name_H-M   'P 1'
_cell_length_a   9.44803846
_cell_length_b   9.44803865
_cell_length_c   10.07911883
_cell_angle_alpha   89.99999491
_cell_angle_beta   89.99999084
_cell_angle_gamma   60.00000035
_symmetry_Int_Tables_number   1
_chemical_formula_structural   GdAl35N36
_chemical_formula_sum   'Gd1 Al35 N36'
_cell_volume   779.17769568
_cell_formula_units_Z   1
loop_
 _symmetry_equiv_pos_site_id
 _symmetry_equiv_pos_as_xyz
  1  'x, y, z'
loop_
 _atom_site_type_symbol
 _atom_site_label
 _atom_site_symmetry_multiplicity
 _atom_site_fract_x
 _atom_site_fract_y
 _atom_site_fract_z
 _atom_site_occupancy
  Al  Al0  1  0.10960707  0.09745361  0.42254871  1
  Al  Al1  1  0.22010481  0.21135719  0.16310163  1
  Al  Al2  1  0.77745333  0.09460643  0.91350286  1
  Al  Al3  1  0.88620271  0.20719044  0.66405951  1
  Al  Al4  1  0.44441275  0.09441283  0.41302449  1
  Al  Al5  1  0.55555545  0.20555550  0.16338036  1
  Al  Al6  1  0.10736760  0.10193135  0.90792181  1
  Al  Al7  1  0.22327409  0.20719074  0.66405955  1
  Al  Al8  1  0.77784196  0.09441252  0.41302451  1
  Al  Al9  1  0.88520442  0.21135681  0.16310168  1
  Al  Al10  1  0.44460663  0.09460683  0.91350297  1
  Al  Al11  1  0.55555603  0.20555548  0.66350930  1
  Al  Al12  1  0.11054738  0.42805998  0.41322406  1
  Al  Al13  1  0.22010467  0.53520438  0.16310165  1
  Al  Al14  1  0.77763371  0.42763392  0.91412911  1
  Al  Al15  1  0.88888876  0.53888913  0.66352427  1
  Al  Al16  1  0.44441269  0.42784155  0.41302447  1
  Al  Al17  1  0.56135638  0.53520450  0.16310174  1
  Al  Al18  1  0.11139801  0.42763416  0.91412902  1
  Al  Al19  1  0.22327404  0.53620224  0.66405944  1
  Al  Al20  1  0.77805965  0.42805948  0.41322400  1
  Al  Al21  1  0.88888808  0.53888909  0.16236041  1
  Al  Al22  1  0.44460658  0.42745285  0.91350295  1
  Al  Al23  1  0.55719055  0.53620227  0.66405954  1
  Al  Al24  1  0.10960717  0.75960672  0.42254860  1
  Al  Al25  1  0.77763379  0.76139855  0.91412900  1
  Al  Al26  1  0.88620277  0.87327380  0.66405943  1
  Al  Al27  1  0.44745408  0.75960661  0.42254863  1
  Al  Al28  1  0.56135643  0.87010554  0.16310165  1
  Al  Al29  1  0.10736760  0.75736727  0.90792182  1
  Al  Al30  1  0.22222264  0.87222223  0.66454466  1
  Al  Al31  1  0.77805986  0.76054779  0.41322403  1
  Al  Al32  1  0.88520433  0.87010504  0.16310161  1
  Al  Al33  1  0.45193129  0.75736747  0.90792191  1
  Al  Al34  1  0.55719054  0.87327419  0.66405956  1
  Gd  Gd35  1  0.22222168  0.87222214  0.16103567  1
  N  N36  1  0.22166163  0.20493284  0.35488017  1
  N  N37  1  0.09536955  0.12592727  0.09381455  1
  N  N38  1  0.88527190  0.20722151  0.85256058  1
  N  N39  1  0.77728997  0.09468854  0.60337055  1
  N  N40  1  0.55555594  0.20555554  0.35372390  1
  N  N41  1  0.44396270  0.09396340  0.10513272  1
  N  N42  1  0.22417303  0.20722169  0.85256063  1
  N  N43  1  0.10952625  0.09761521  0.61158937  1
  N  N44  1  0.89007321  0.20493225  0.35488016  1
  N  N45  1  0.77874051  0.09396286  0.10513268  1
  N  N46  1  0.55555575  0.20555525  0.85470795  1
  N  N47  1  0.44468889  0.09468891  0.60337055  1
  N  N48  1  0.22166158  0.54007291  0.35488011  1
  N  N49  1  0.11066769  0.42799925  0.10430201  1
  N  N50  1  0.88888835  0.53888894  0.85460212  1
  N  N51  1  0.77802265  0.42802253  0.60328466  1
  N  N52  1  0.55493251  0.54007270  0.35488019  1
  N  N53  1  0.44396256  0.42874043  0.10513275  1
  N  N54  1  0.22417300  0.53527158  0.85256053  1
  N  N55  1  0.11062146  0.42802282  0.60328468  1
  N  N56  1  0.88888870  0.53888914  0.35351831  1
  N  N57  1  0.77799847  0.42799893  0.10430215  1
  N  N58  1  0.55722136  0.53527173  0.85256068  1
  N  N59  1  0.44468887  0.42728930  0.60337052  1
  N  N60  1  0.22222292  0.87222238  0.38325278  1
  N  N61  1  0.09536937  0.74536941  0.09381448  1
  N  N62  1  0.88527196  0.87417285  0.85256049  1
  N  N63  1  0.77802268  0.76062185  0.60328466  1
  N  N64  1  0.55493273  0.87166180  0.35488016  1
  N  N65  1  0.47592688  0.74536977  0.09381475  1
  N  N66  1  0.22222212  0.87222206  0.86053152  1
  N  N67  1  0.10952632  0.75952573  0.61158917  1
  N  N68  1  0.89007336  0.87166149  0.35488008  1
  N  N69  1  0.77799848  0.76066877  0.10430201  1
  N  N70  1  0.55722131  0.87417320  0.85256068  1
  N  N71  1  0.44761557  0.75952576  0.61158936  1
