# generated using pymatgen
data_GdAl35N36
_symmetry_space_group_name_H-M   'P 1'
_cell_length_a   9.44805002
_cell_length_b   9.44805004
_cell_length_c   10.07909538
_cell_angle_alpha   90.00000021
_cell_angle_beta   90.00000015
_cell_angle_gamma   60.00000119
_symmetry_Int_Tables_number   1
_chemical_formula_structural   GdAl35N36
_chemical_formula_sum   'Gd1 Al35 N36'
_cell_volume   779.17778249
_cell_formula_units_Z   1
loop_
 _symmetry_equiv_pos_site_id
 _symmetry_equiv_pos_as_xyz
  1  'x, y, z'
loop_
 _atom_site_type_symbol
 _atom_site_label
 _atom_site_symmetry_multiplicity
 _atom_site_fract_x
 _atom_site_fract_y
 _atom_site_fract_z
 _atom_site_occupancy
  Al  Al0  1  0.10960418  0.09745831  0.41204725  1
  Al  Al1  1  0.22010558  0.21135466  0.15260119  1
  Al  Al2  1  0.77745144  0.09460763  0.90300857  1
  Al  Al3  1  0.88620208  0.20719007  0.65356157  1
  Al  Al4  1  0.44441178  0.09441179  0.40252717  1
  Al  Al5  1  0.55555556  0.20555557  0.15288984  1
  Al  Al6  1  0.10737196  0.10192276  0.89741188  1
  Al  Al7  1  0.22327451  0.20719007  0.65356157  1
  Al  Al8  1  0.77784309  0.09441179  0.40252717  1
  Al  Al9  1  0.88520645  0.21135467  0.15260119  1
  Al  Al10  1  0.44460761  0.09460762  0.90300857  1
  Al  Al11  1  0.55555555  0.20555557  0.65301407  1
  Al  Al12  1  0.11054950  0.42805859  0.40272833  1
  Al  Al13  1  0.22010558  0.53520647  0.15260119  1
  Al  Al14  1  0.77763530  0.42763532  0.90363206  1
  Al  Al15  1  0.88888888  0.53888890  0.65302633  1
  Al  Al16  1  0.44441178  0.42784311  0.40252717  1
  Al  Al17  1  0.56135465  0.53520646  0.15260119  1
  Al  Al18  1  0.11139607  0.42763531  0.90363206  1
  Al  Al19  1  0.22327451  0.53620211  0.65356157  1
  Al  Al20  1  0.77805857  0.42805859  0.40272833  1
  Al  Al21  1  0.88888890  0.53888891  0.15187081  1
  Al  Al22  1  0.44460761  0.42745146  0.90300857  1
  Al  Al23  1  0.55719005  0.53620210  0.65356157  1
  Al  Al24  1  0.10960418  0.75960420  0.41204725  1
  Al  Al25  1  0.77763530  0.76139608  0.90363206  1
  Al  Al26  1  0.88620209  0.87327453  0.65356157  1
  Al  Al27  1  0.44745829  0.75960420  0.41204725  1
  Al  Al28  1  0.56135464  0.87010560  0.15260119  1
  Al  Al29  1  0.10737197  0.75737198  0.89741188  1
  Al  Al30  1  0.22222222  0.87222224  0.65402721  1
  Al  Al31  1  0.77805857  0.76054952  0.40272833  1
  Al  Al32  1  0.88520645  0.87010560  0.15260119  1
  Al  Al33  1  0.45192274  0.75737198  0.89741188  1
  Al  Al34  1  0.55719005  0.87327453  0.65356157  1
  Gd  Gd35  1  0.22222223  0.87222224  0.15054536  1
  N  N36  1  0.22166083  0.20493293  0.34438104  1
  N  N37  1  0.09537158  0.12592352  0.08330828  1
  N  N38  1  0.88527028  0.20722174  0.84206475  1
  N  N39  1  0.77729167  0.09468750  0.59287394  1
  N  N40  1  0.55555555  0.20555557  0.34323314  1
  N  N41  1  0.44396516  0.09396518  0.09463899  1
  N  N42  1  0.22417464  0.20722174  0.84206475  1
  N  N43  1  0.10952289  0.09762088  0.60108973  1
  N  N44  1  0.89007291  0.20493293  0.34438104  1
  N  N45  1  0.77873634  0.09396518  0.09463899  1
  N  N46  1  0.55555555  0.20555557  0.84421315  1
  N  N47  1  0.44468748  0.09468750  0.59287394  1
  N  N48  1  0.22166083  0.54007293  0.34438104  1
  N  N49  1  0.11066232  0.42800219  0.09380617  1
  N  N50  1  0.88888889  0.53888890  0.84410381  1
  N  N51  1  0.77802158  0.42802160  0.59278909  1
  N  N52  1  0.55493291  0.54007293  0.34438104  1
  N  N53  1  0.44396516  0.42873636  0.09463899  1
  N  N54  1  0.22417465  0.53527031  0.84206475  1
  N  N55  1  0.11062349  0.42802160  0.59278909  1
  N  N56  1  0.88888889  0.53888890  0.34302594  1
  N  N57  1  0.77800218  0.42800220  0.09380617  1
  N  N58  1  0.55722173  0.53527030  0.84206475  1
  N  N59  1  0.44468748  0.42729169  0.59287394  1
  N  N60  1  0.22222222  0.87222224  0.37276478  1
  N  N61  1  0.09537159  0.74537161  0.08330828  1
  N  N62  1  0.88527029  0.87417467  0.84206475  1
  N  N63  1  0.77802158  0.76062350  0.59278909  1
  N  N64  1  0.55493291  0.87166085  0.34438104  1
  N  N65  1  0.47592351  0.74537160  0.08330828  1
  N  N66  1  0.22222222  0.87222224  0.85001367  1
  N  N67  1  0.10952290  0.75952292  0.60108973  1
  N  N68  1  0.89007291  0.87166085  0.34438104  1
  N  N69  1  0.77800218  0.76066233  0.09380617  1
  N  N70  1  0.55722172  0.87417466  0.84206475  1
  N  N71  1  0.44762086  0.75952291  0.60108973  1
