# generated using pymatgen
data_GdAl35N36
_symmetry_space_group_name_H-M   'P 1'
_cell_length_a   9.44803927
_cell_length_b   9.44803928
_cell_length_c   10.07911682
_cell_angle_alpha   89.99999976
_cell_angle_beta   89.99999977
_cell_angle_gamma   60.00000112
_symmetry_Int_Tables_number   1
_chemical_formula_structural   GdAl35N36
_chemical_formula_sum   'Gd1 Al35 N36'
_cell_volume   779.17766563
_cell_formula_units_Z   1
loop_
 _symmetry_equiv_pos_site_id
 _symmetry_equiv_pos_as_xyz
  1  'x, y, z'
loop_
 _atom_site_type_symbol
 _atom_site_label
 _atom_site_symmetry_multiplicity
 _atom_site_fract_x
 _atom_site_fract_y
 _atom_site_fract_z
 _atom_site_occupancy
  Al  Al0  1  0.10737209  0.10192249  0.31180665  1
  Al  Al1  1  0.22010564  0.21135448  0.05661888  1
  Al  Al2  1  0.77784320  0.09441173  0.80669376  1
  Al  Al3  1  0.88620185  0.20719024  0.55565804  1
  Al  Al4  1  0.44460765  0.09460765  0.30621140  1
  Al  Al5  1  0.55555556  0.20555556  0.05633076  1
  Al  Al6  1  0.10960418  0.09745829  0.79717088  1
  Al  Al7  1  0.22327456  0.20719023  0.55565804  1
  Al  Al8  1  0.77745137  0.09460765  0.30621140  1
  Al  Al9  1  0.88520656  0.21135449  0.05661888  1
  Al  Al10  1  0.44441173  0.09441173  0.80669376  1
  Al  Al11  1  0.55555555  0.20555556  0.55620649  1
  Al  Al12  1  0.11139623  0.42763522  0.30558747  1
  Al  Al13  1  0.22010564  0.53520656  0.05661888  1
  Al  Al14  1  0.77805864  0.42805864  0.80649270  1
  Al  Al15  1  0.88888889  0.53888889  0.55619383  1
  Al  Al16  1  0.44460765  0.42745137  0.30621140  1
  Al  Al17  1  0.56135450  0.53520656  0.05661888  1
  Al  Al18  1  0.11054938  0.42805864  0.80649270  1
  Al  Al19  1  0.22327457  0.53620186  0.55565804  1
  Al  Al20  1  0.77763523  0.42763523  0.30558747  1
  Al  Al21  1  0.88888890  0.53888890  0.05735079  1
  Al  Al22  1  0.44441173  0.42784321  0.80669376  1
  Al  Al23  1  0.55719023  0.53620186  0.55565804  1
  Al  Al24  1  0.10737209  0.75737210  0.31180665  1
  Al  Al25  1  0.77805864  0.76054938  0.80649270  1
  Al  Al26  1  0.88620185  0.87327457  0.55565804  1
  Al  Al27  1  0.45192249  0.75737209  0.31180665  1
  Al  Al28  1  0.56135448  0.87010564  0.05661889  1
  Al  Al29  1  0.10960418  0.75960419  0.79717088  1
  Al  Al30  1  0.22222222  0.87222223  0.55519061  1
  Al  Al31  1  0.77763522  0.76139622  0.30558747  1
  Al  Al32  1  0.88520656  0.87010564  0.05661888  1
  Al  Al33  1  0.44745829  0.75960419  0.79717088  1
  Al  Al34  1  0.55719023  0.87327457  0.55565804  1
  Gd  Gd35  1  0.22222223  0.87222223  0.05867242  1
  N  N36  1  0.22417460  0.20722169  0.36715519  1
  N  N37  1  0.09537184  0.12592300  0.12591144  1
  N  N38  1  0.89007331  0.20493268  0.86483952  1
  N  N39  1  0.77729180  0.09468743  0.61634691  1
  N  N40  1  0.55555555  0.20555556  0.36500748  1
  N  N41  1  0.44396516  0.09396516  0.11458149  1
  N  N42  1  0.22166068  0.20493268  0.86483952  1
  N  N43  1  0.10952289  0.09762086  0.60812925  1
  N  N44  1  0.88527037  0.20722170  0.36715519  1
  N  N45  1  0.77873635  0.09396516  0.11458149  1
  N  N46  1  0.55555555  0.20555556  0.86598791  1
  N  N47  1  0.44468742  0.09468742  0.61634691  1
  N  N48  1  0.22417460  0.53527039  0.36715519  1
  N  N49  1  0.11066257  0.42800206  0.11541414  1
  N  N50  1  0.88888889  0.53888889  0.86619580  1
  N  N51  1  0.77802159  0.42802160  0.61643180  1
  N  N52  1  0.55722169  0.53527038  0.36715519  1
  N  N53  1  0.44396516  0.42873636  0.11458149  1
  N  N54  1  0.22166067  0.54007332  0.86483952  1
  N  N55  1  0.11062347  0.42802160  0.61643180  1
  N  N56  1  0.88888889  0.53888889  0.36511628  1
  N  N57  1  0.77800206  0.42800206  0.11541414  1
  N  N58  1  0.55493267  0.54007332  0.86483952  1
  N  N59  1  0.44468742  0.42729181  0.61634691  1
  N  N60  1  0.22222223  0.87222223  0.35920586  1
  N  N61  1  0.09537185  0.74537185  0.12591144  1
  N  N62  1  0.89007332  0.87166068  0.86483952  1
  N  N63  1  0.77802159  0.76062347  0.61643180  1
  N  N64  1  0.55722169  0.87417460  0.36715519  1
  N  N65  1  0.47592300  0.74537184  0.12591144  1
  N  N66  1  0.22222222  0.87222223  0.83645389  1
  N  N67  1  0.10952290  0.75952291  0.60812925  1
  N  N68  1  0.88527038  0.87417461  0.36715519  1
  N  N69  1  0.77800206  0.76066257  0.11541414  1
  N  N70  1  0.55493267  0.87166068  0.86483952  1
  N  N71  1  0.44762085  0.75952290  0.60812925  1
