# generated using pymatgen
data_GdAl35N36
_symmetry_space_group_name_H-M   'P 1'
_cell_length_a   9.68022083
_cell_length_b   9.68022088
_cell_length_c   9.43195415
_cell_angle_alpha   89.99999859
_cell_angle_beta   89.99999590
_cell_angle_gamma   60.00000634
_symmetry_Int_Tables_number   1
_chemical_formula_structural   GdAl35N36
_chemical_formula_sum   'Gd1 Al35 N36'
_cell_volume   765.42540460
_cell_formula_units_Z   1
loop_
 _symmetry_equiv_pos_site_id
 _symmetry_equiv_pos_as_xyz
  1  'x, y, z'
loop_
 _atom_site_type_symbol
 _atom_site_label
 _atom_site_symmetry_multiplicity
 _atom_site_fract_x
 _atom_site_fract_y
 _atom_site_fract_z
 _atom_site_occupancy
  Al  Al0  1  0.10914302  0.09838066  0.38700379  1
  Al  Al1  1  0.22010778  0.21120003  0.12895489  1
  Al  Al2  1  0.77768111  0.09449277  0.87868726  1
  Al  Al3  1  0.88499367  0.20776976  0.62757142  1
  Al  Al4  1  0.44485460  0.09485460  0.37723889  1
  Al  Al5  1  0.55555555  0.20555557  0.12667200  1
  Al  Al6  1  0.10652831  0.10361005  0.86858300  1
  Al  Al7  1  0.22390322  0.20776980  0.62757142  1
  Al  Al8  1  0.77695749  0.09485458  0.37723882  1
  Al  Al9  1  0.88535887  0.21120005  0.12895487  1
  Al  Al10  1  0.44449276  0.09449277  0.87868719  1
  Al  Al11  1  0.55555558  0.20555556  0.62940696  1
  Al  Al12  1  0.10971179  0.42847745  0.37802889  1
  Al  Al13  1  0.22010774  0.53535892  0.12895489  1
  Al  Al14  1  0.77732859  0.42732863  0.87917985  1
  Al  Al15  1  0.88888891  0.53888889  0.62943610  1
  Al  Al16  1  0.44485459  0.42695747  0.37723887  1
  Al  Al17  1  0.56120002  0.53535887  0.12895490  1
  Al  Al18  1  0.11200943  0.42732863  0.87917993  1
  Al  Al19  1  0.22390323  0.53499367  0.62757143  1
  Al  Al20  1  0.77847745  0.42847743  0.37802895  1
  Al  Al21  1  0.88888887  0.53888890  0.12626332  1
  Al  Al22  1  0.44449276  0.42768113  0.87868722  1
  Al  Al23  1  0.55776974  0.53499372  0.62757140  1
  Al  Al24  1  0.10914303  0.75914302  0.38700383  1
  Al  Al25  1  0.77732860  0.76200944  0.87917987  1
  Al  Al26  1  0.88499367  0.87390325  0.62757143  1
  Al  Al27  1  0.44838066  0.75914301  0.38700369  1
  Al  Al28  1  0.56120002  0.87010780  0.12895489  1
  Al  Al29  1  0.10652832  0.75652833  0.86858296  1
  Al  Al30  1  0.22222227  0.87222224  0.62362843  1
  Al  Al31  1  0.77847745  0.75971179  0.37802893  1
  Al  Al32  1  0.88535890  0.87010773  0.12895487  1
  Al  Al33  1  0.45361000  0.75652833  0.86858309  1
  Al  Al34  1  0.55776976  0.87390321  0.62757140  1
  Gd  Gd35  1  0.22222215  0.87222228  0.11556341  1
  N  N36  1  0.22190415  0.20541446  0.33298284  1
  N  N37  1  0.09464268  0.12738131  0.07053913  1
  N  N38  1  0.88415517  0.20765153  0.82824126  1
  N  N39  1  0.77619638  0.09523514  0.57956500  1
  N  N40  1  0.55555556  0.20555556  0.32907972  1
  N  N41  1  0.44365222  0.09365224  0.08246694  1
  N  N42  1  0.22485994  0.20765155  0.82824126  1
  N  N43  1  0.10905604  0.09855459  0.58912326  1
  N  N44  1  0.88934810  0.20541446  0.33298283  1
  N  N45  1  0.77936221  0.09365221  0.08246700  1
  N  N46  1  0.55555557  0.20555556  0.83302009  1
  N  N47  1  0.44523514  0.09523514  0.57956506  1
  N  N48  1  0.22190413  0.53934812  0.33298284  1
  N  N49  1  0.11125330  0.42770669  0.08172873  1
  N  N50  1  0.88888891  0.53888889  0.83269266  1
  N  N51  1  0.77846100  0.42846100  0.57990792  1
  N  N52  1  0.55541448  0.53934806  0.33298285  1
  N  N53  1  0.44365221  0.42936220  0.08246696  1
  N  N54  1  0.22485995  0.53415519  0.82824126  1
  N  N55  1  0.10974467  0.42846102  0.57990786  1
  N  N56  1  0.88888888  0.53888890  0.32954184  1
  N  N57  1  0.77770666  0.42770670  0.08172866  1
  N  N58  1  0.55765149  0.53415524  0.82824126  1
  N  N59  1  0.44523514  0.42619638  0.57956504  1
  N  N60  1  0.22222222  0.87222225  0.35858858  1
  N  N61  1  0.09464270  0.74464270  0.07053908  1
  N  N62  1  0.88415518  0.87485998  0.82824126  1
  N  N63  1  0.77846102  0.75974467  0.57990790  1
  N  N64  1  0.55541449  0.87190415  0.33298284  1
  N  N65  1  0.47738121  0.74464272  0.07053926  1
  N  N66  1  0.22222224  0.87222225  0.83537367  1
  N  N67  1  0.10905606  0.75905606  0.58912330  1
  N  N68  1  0.88934813  0.87190410  0.33298282  1
  N  N69  1  0.77770667  0.76125330  0.08172867  1
  N  N70  1  0.55765151  0.87485994  0.82824126  1
  N  N71  1  0.44855458  0.75905605  0.58912317  1
