# generated using pymatgen
data_GdAl35N36
_symmetry_space_group_name_H-M   'P 1'
_cell_length_a   9.44802810
_cell_length_b   9.44802831
_cell_length_c   10.07911693
_cell_angle_alpha   90.00000485
_cell_angle_beta   90.00000953
_cell_angle_gamma   60.00000081
_symmetry_Int_Tables_number   1
_chemical_formula_structural   GdAl35N36
_chemical_formula_sum   'Gd1 Al35 N36'
_cell_volume   779.17584603
_cell_formula_units_Z   1
loop_
 _symmetry_equiv_pos_site_id
 _symmetry_equiv_pos_as_xyz
  1  'x, y, z'
loop_
 _atom_site_type_symbol
 _atom_site_label
 _atom_site_symmetry_multiplicity
 _atom_site_fract_x
 _atom_site_fract_y
 _atom_site_fract_z
 _atom_site_occupancy
  Al  Al0  1  0.10736960  0.10192736  0.30130159  1
  Al  Al1  1  0.22010681  0.21135415  0.04611687  1
  Al  Al2  1  0.77784232  0.09441233  0.79619512  1
  Al  Al3  1  0.88620356  0.20718961  0.54516114  1
  Al  Al4  1  0.44460694  0.09460713  0.29571552  1
  Al  Al5  1  0.55555550  0.20555547  0.04583808  1
  Al  Al6  1  0.10960677  0.09745414  0.78667290  1
  Al  Al7  1  0.22327405  0.20718985  0.54516111  1
  Al  Al8  1  0.77745264  0.09460679  0.29571559  1
  Al  Al9  1  0.88520544  0.21135385  0.04611686  1
  Al  Al10  1  0.44441255  0.09441261  0.79619512  1
  Al  Al11  1  0.55555600  0.20555548  0.54570948  1
  Al  Al12  1  0.11139776  0.42763425  0.29509117  1
  Al  Al13  1  0.22010671  0.53520539  0.04611688  1
  Al  Al14  1  0.77805882  0.42805862  0.79599449  1
  Al  Al15  1  0.88888874  0.53888907  0.54569569  1
  Al  Al16  1  0.44460692  0.42745221  0.29571552  1
  Al  Al17  1  0.56135348  0.53520551  0.04611681  1
  Al  Al18  1  0.11054912  0.42805904  0.79599448  1
  Al  Al19  1  0.22327401  0.53620314  0.54516118  1
  Al  Al20  1  0.77763390  0.42763405  0.29509109  1
  Al  Al21  1  0.88888816  0.53888905  0.04685719  1
  Al  Al22  1  0.44441251  0.42784189  0.79619515  1
  Al  Al23  1  0.55718973  0.53620316  0.54516109  1
  Al  Al24  1  0.10736957  0.75736930  0.30130158  1
  Al  Al25  1  0.77805895  0.76054948  0.79599448  1
  Al  Al26  1  0.88620363  0.87327374  0.54516119  1
  Al  Al27  1  0.45192730  0.75736948  0.30130145  1
  Al  Al28  1  0.56135350  0.87010743  0.04611684  1
  Al  Al29  1  0.10960685  0.75960640  0.78667294  1
  Al  Al30  1  0.22222261  0.87222223  0.54467848  1
  Al  Al31  1  0.77763392  0.76139825  0.29509115  1
  Al  Al32  1  0.88520534  0.87010702  0.04611689  1
  Al  Al33  1  0.44745459  0.75960631  0.78667294  1
  Al  Al34  1  0.55718974  0.87327406  0.54516106  1
  Gd  Gd35  1  0.22222175  0.87222219  0.04818126  1
  N  N36  1  0.22417303  0.20722233  0.35665821  1
  N  N37  1  0.09536831  0.12592978  0.11540832  1
  N  N38  1  0.89007297  0.20493323  0.85434014  1
  N  N39  1  0.77729168  0.09468763  0.60584895  1
  N  N40  1  0.55555571  0.20555530  0.35451181  1
  N  N41  1  0.44396387  0.09396447  0.10408712  1
  N  N42  1  0.22166090  0.20493373  0.85434013  1
  N  N43  1  0.10952526  0.09761701  0.59763000  1
  N  N44  1  0.88527126  0.20722213  0.35665824  1
  N  N45  1  0.77873820  0.09396402  0.10408717  1
  N  N46  1  0.55555593  0.20555554  0.85549525  1
  N  N47  1  0.44468795  0.09468795  0.60584894  1
  N  N48  1  0.22417301  0.53527098  0.35665828  1
  N  N49  1  0.11066223  0.42800202  0.10491919  1
  N  N50  1  0.88888874  0.53888911  0.85570342  1
  N  N51  1  0.77802230  0.42802217  0.60593452  1
  N  N52  1  0.55722199  0.53527110  0.35665815  1
  N  N53  1  0.44396376  0.42873812  0.10408711  1
  N  N54  1  0.22166085  0.54007265  0.85434017  1
  N  N55  1  0.11062217  0.42802245  0.60593451  1
  N  N56  1  0.88888844  0.53888891  0.35461754  1
  N  N57  1  0.77800135  0.42800174  0.10491910  1
  N  N58  1  0.55493346  0.54007250  0.85434011  1
  N  N59  1  0.44468791  0.42729111  0.60584897  1
  N  N60  1  0.22222213  0.87222206  0.34869150  1
  N  N61  1  0.09536813  0.74536815  0.11540839  1
  N  N62  1  0.89007307  0.87166074  0.85434018  1
  N  N63  1  0.77802235  0.76062247  0.60593451  1
  N  N64  1  0.55722200  0.87417319  0.35665814  1
  N  N65  1  0.47592941  0.74536849  0.11540811  1
  N  N66  1  0.22222281  0.87222231  0.82596576  1
  N  N67  1  0.10952532  0.75952480  0.59763011  1
  N  N68  1  0.88527130  0.87417286  0.35665830  1
  N  N69  1  0.77800136  0.76066312  0.10491917  1
  N  N70  1  0.55493364  0.87166102  0.85434012  1
  N  N71  1  0.44761737  0.75952482  0.59763001  1
