# generated using pymatgen
data_GdAl35N36
_symmetry_space_group_name_H-M   'P 1'
_cell_length_a   9.91373303
_cell_length_b   9.91373306
_cell_length_c   8.72045817
_cell_angle_alpha   89.99999833
_cell_angle_beta   89.99999488
_cell_angle_gamma   60.00000869
_symmetry_Int_Tables_number   1
_chemical_formula_structural   GdAl35N36
_chemical_formula_sum   'Gd1 Al35 N36'
_cell_volume   742.24009921
_cell_formula_units_Z   1
loop_
 _symmetry_equiv_pos_site_id
 _symmetry_equiv_pos_as_xyz
  1  'x, y, z'
loop_
 _atom_site_type_symbol
 _atom_site_label
 _atom_site_symmetry_multiplicity
 _atom_site_fract_x
 _atom_site_fract_y
 _atom_site_fract_z
 _atom_site_occupancy
  Al  Al0  1  0.10801008  0.10064645  0.37440967  1
  Al  Al1  1  0.22100870  0.21095884  0.11627145  1
  Al  Al2  1  0.77775891  0.09445388  0.86502805  1
  Al  Al3  1  0.88493897  0.20786816  0.61419086  1
  Al  Al4  1  0.44502380  0.09502381  0.36482833  1
  Al  Al5  1  0.55555553  0.20555555  0.11321457  1
  Al  Al6  1  0.10700515  0.10265632  0.85352140  1
  Al  Al7  1  0.22385948  0.20786823  0.61419086  1
  Al  Al8  1  0.77661906  0.09502379  0.36482827  1
  Al  Al9  1  0.88469914  0.21095883  0.11627139  1
  Al  Al10  1  0.44445384  0.09445386  0.86502792  1
  Al  Al11  1  0.55555556  0.20555554  0.61656860  1
  Al  Al12  1  0.10963195  0.42851738  0.36572654  1
  Al  Al13  1  0.22100869  0.53469923  0.11627149  1
  Al  Al14  1  0.77746909  0.42746914  0.86522186  1
  Al  Al15  1  0.88888891  0.53888888  0.61652935  1
  Al  Al16  1  0.44502380  0.42661903  0.36482832  1
  Al  Al17  1  0.56095882  0.53469911  0.11627138  1
  Al  Al18  1  0.11172845  0.42746913  0.86522205  1
  Al  Al19  1  0.22385951  0.53493898  0.61419094  1
  Al  Al20  1  0.77851738  0.42851733  0.36572656  1
  Al  Al21  1  0.88888887  0.53888890  0.11336799  1
  Al  Al22  1  0.44445386  0.42775894  0.86502798  1
  Al  Al23  1  0.55786814  0.53493902  0.61419072  1
  Al  Al24  1  0.10801013  0.75801014  0.37440982  1
  Al  Al25  1  0.77746911  0.76172845  0.86522191  1
  Al  Al26  1  0.88493898  0.87385954  0.61419094  1
  Al  Al27  1  0.45064648  0.75801007  0.37440933  1
  Al  Al28  1  0.56095885  0.87100873  0.11627137  1
  Al  Al29  1  0.10700520  0.75700520  0.85352146  1
  Al  Al30  1  0.22222226  0.87222222  0.60909853  1
  Al  Al31  1  0.77851740  0.75963196  0.36572654  1
  Al  Al32  1  0.88469922  0.87100867  0.11627142  1
  Al  Al33  1  0.45265623  0.75700520  0.85352134  1
  Al  Al34  1  0.55786818  0.87385948  0.61419072  1
  Gd  Gd35  1  0.22222217  0.87222230  0.10645654  1
  N  N36  1  0.22267823  0.20614235  0.34734700  1
  N  N37  1  0.09595798  0.12475070  0.08823025  1
  N  N38  1  0.88485524  0.20733587  0.84074583  1
  N  N39  1  0.77575549  0.09545558  0.59307630  1
  N  N40  1  0.55555554  0.20555555  0.34151861  1
  N  N41  1  0.44368648  0.09368650  0.09539438  1
  N  N42  1  0.22447551  0.20733590  0.84074582  1
  N  N43  1  0.10850862  0.09964937  0.60021815  1
  N  N44  1  0.88784610  0.20614236  0.34734697  1
  N  N45  1  0.77929367  0.09368648  0.09539444  1
  N  N46  1  0.55555556  0.20555556  0.84705204  1
  N  N47  1  0.44545556  0.09545557  0.59307644  1
  N  N48  1  0.22267822  0.53784618  0.34734694  1
  N  N49  1  0.11127529  0.42769572  0.09472782  1
  N  N50  1  0.88888892  0.53888890  0.84607007  1
  N  N51  1  0.77865892  0.42865891  0.59336623  1
  N  N52  1  0.55614241  0.53784600  0.34734706  1
  N  N53  1  0.44368647  0.42929367  0.09539440  1
  N  N54  1  0.22447556  0.53485527  0.84074579  1
  N  N55  1  0.10934881  0.42865895  0.59336608  1
  N  N56  1  0.88888888  0.53888890  0.34249669  1
  N  N57  1  0.77769568  0.42769570  0.09472773  1
  N  N58  1  0.55733581  0.53485535  0.84074587  1
  N  N59  1  0.44545557  0.42575548  0.59307638  1
  N  N60  1  0.22222220  0.87222226  0.37107666  1
  N  N61  1  0.09595803  0.74595802  0.08823005  1
  N  N62  1  0.88485525  0.87447560  0.84074581  1
  N  N63  1  0.77865896  0.75934881  0.59336618  1
  N  N64  1  0.55614241  0.87267826  0.34734707  1
  N  N65  1  0.47475061  0.74595802  0.08823069  1
  N  N66  1  0.22222227  0.87222226  0.83589427  1
  N  N67  1  0.10850865  0.75850866  0.60021819  1
  N  N68  1  0.88784619  0.87267819  0.34734693  1
  N  N69  1  0.77769571  0.76127528  0.09472776  1
  N  N70  1  0.55733582  0.87447550  0.84074587  1
  N  N71  1  0.44964935  0.75850863  0.60021802  1
