# generated using pymatgen
data_GdAl35N36
_symmetry_space_group_name_H-M   'P 1'
_cell_length_a   9.54286851
_cell_length_b   9.54286856
_cell_length_c   9.82485852
_cell_angle_alpha   89.99999902
_cell_angle_beta   89.99999713
_cell_angle_gamma   60.00000432
_symmetry_Int_Tables_number   1
_chemical_formula_structural   GdAl35N36
_chemical_formula_sum   'Gd1 Al35 N36'
_cell_volume   774.84500469
_cell_formula_units_Z   1
loop_
 _symmetry_equiv_pos_site_id
 _symmetry_equiv_pos_as_xyz
  1  'x, y, z'
loop_
 _atom_site_type_symbol
 _atom_site_label
 _atom_site_symmetry_multiplicity
 _atom_site_fract_x
 _atom_site_fract_y
 _atom_site_fract_z
 _atom_site_occupancy
  Al  Al0  1  0.10967566  0.09731538  0.39052006  1
  Al  Al1  1  0.22003153  0.21141559  0.13238441  1
  Al  Al2  1  0.77753814  0.09456426  0.88241137  1
  Al  Al3  1  0.88574530  0.20737353  0.63208829  1
  Al  Al4  1  0.44461095  0.09461095  0.38149938  1
  Al  Al5  1  0.55555556  0.20555557  0.13149961  1
  Al  Al6  1  0.10668734  0.10329197  0.87512939  1
  Al  Al7  1  0.22354782  0.20737355  0.63208829  1
  Al  Al8  1  0.77744478  0.09461094  0.38149935  1
  Al  Al9  1  0.88521955  0.21141562  0.13238440  1
  Al  Al10  1  0.44456425  0.09456426  0.88241135  1
  Al  Al11  1  0.55555557  0.20555556  0.63272466  1
  Al  Al12  1  0.11016671  0.42824998  0.38200606  1
  Al  Al13  1  0.22003151  0.53521958  0.13238441  1
  Al  Al14  1  0.77748917  0.42748920  0.88304250  1
  Al  Al15  1  0.88888890  0.53888890  0.63280447  1
  Al  Al16  1  0.44461094  0.42744478  0.38149937  1
  Al  Al17  1  0.56141559  0.53521956  0.13238441  1
  Al  Al18  1  0.11168827  0.42748920  0.88304253  1
  Al  Al19  1  0.22354783  0.53574531  0.63208829  1
  Al  Al20  1  0.77824997  0.42824997  0.38200609  1
  Al  Al21  1  0.88888888  0.53888891  0.13075780  1
  Al  Al22  1  0.44456424  0.42753815  0.88241136  1
  Al  Al23  1  0.55737352  0.53574533  0.63208828  1
  Al  Al24  1  0.10967566  0.75967566  0.39052007  1
  Al  Al25  1  0.77748918  0.76168829  0.88304251  1
  Al  Al26  1  0.88574531  0.87354784  0.63208829  1
  Al  Al27  1  0.44731537  0.75967566  0.39052002  1
  Al  Al28  1  0.56141558  0.87003155  0.13238441  1
  Al  Al29  1  0.10668735  0.75668736  0.87512938  1
  Al  Al30  1  0.22222225  0.87222224  0.63197725  1
  Al  Al31  1  0.77824998  0.76016672  0.38200608  1
  Al  Al32  1  0.88521956  0.87003151  0.13238440  1
  Al  Al33  1  0.45329194  0.75668737  0.87512943  1
  Al  Al34  1  0.55737353  0.87354782  0.63208828  1
  Gd  Gd35  1  0.22222218  0.87222226  0.12333352  1
  N  N36  1  0.22176261  0.20517408  0.32812458  1
  N  N37  1  0.09457148  0.12752371  0.06628043  1
  N  N38  1  0.88469745  0.20746314  0.82468360  1
  N  N39  1  0.77678507  0.09494080  0.57579847  1
  N  N40  1  0.55555556  0.20555556  0.32583037  1
  N  N41  1  0.44379444  0.09379445  0.07803627  1
  N  N42  1  0.22450607  0.20746314  0.82468360  1
  N  N43  1  0.10952086  0.09762495  0.58425092  1
  N  N44  1  0.88973001  0.20517408  0.32812458  1
  N  N45  1  0.77907778  0.09379444  0.07803630  1
  N  N46  1  0.55555556  0.20555556  0.82802135  1
  N  N47  1  0.44494080  0.09494080  0.57579850  1
  N  N48  1  0.22176259  0.53973002  0.32812459  1
  N  N49  1  0.11095368  0.42785650  0.07729921  1
  N  N50  1  0.88888889  0.53888890  0.82790374  1
  N  N51  1  0.77822364  0.42822364  0.57594710  1
  N  N52  1  0.55517408  0.53972999  0.32812459  1
  N  N53  1  0.44379443  0.42907778  0.07803629  1
  N  N54  1  0.22450608  0.53469746  0.82468359  1
  N  N55  1  0.11021939  0.42822365  0.57594708  1
  N  N56  1  0.88888889  0.53888889  0.32594005  1
  N  N57  1  0.77785648  0.42785651  0.07729918  1
  N  N58  1  0.55746311  0.53469748  0.82468360  1
  N  N59  1  0.44494080  0.42678507  0.57579849  1
  N  N60  1  0.22222223  0.87222224  0.35300220  1
  N  N61  1  0.09457150  0.74457150  0.06628042  1
  N  N62  1  0.88469745  0.87450610  0.82468360  1
  N  N63  1  0.77822364  0.76021939  0.57594709  1
  N  N64  1  0.55517409  0.87176261  0.32812458  1
  N  N65  1  0.47752364  0.74457151  0.06628048  1
  N  N66  1  0.22222223  0.87222225  0.83376260  1
  N  N67  1  0.10952088  0.75952088  0.58425093  1
  N  N68  1  0.88973002  0.87176258  0.32812458  1
  N  N69  1  0.77785648  0.76095369  0.07729919  1
  N  N70  1  0.55746311  0.87450608  0.82468360  1
  N  N71  1  0.44762494  0.75952087  0.58425089  1
