# generated using pymatgen
data_GdAl35N36
_symmetry_space_group_name_H-M   'P 1'
_cell_length_a   9.80446106
_cell_length_b   9.80446110
_cell_length_c   9.05792487
_cell_angle_alpha   89.99999848
_cell_angle_beta   89.99999540
_cell_angle_gamma   60.00000752
_symmetry_Int_Tables_number   1
_chemical_formula_structural   GdAl35N36
_chemical_formula_sum   'Gd1 Al35 N36'
_cell_volume   754.06161296
_cell_formula_units_Z   1
loop_
 _symmetry_equiv_pos_site_id
 _symmetry_equiv_pos_as_xyz
  1  'x, y, z'
loop_
 _atom_site_type_symbol
 _atom_site_label
 _atom_site_symmetry_multiplicity
 _atom_site_fract_x
 _atom_site_fract_y
 _atom_site_fract_z
 _atom_site_occupancy
  Al  Al0  1  0.10850825  0.09965016  0.38212198  1
  Al  Al1  1  0.22045222  0.21099522  0.12390482  1
  Al  Al2  1  0.77782991  0.09441838  0.87319456  1
  Al  Al3  1  0.88466819  0.20796885  0.62178342  1
  Al  Al4  1  0.44502453  0.09502453  0.37183466  1
  Al  Al5  1  0.55555553  0.20555556  0.12061672  1
  Al  Al6  1  0.10673323  0.10320018  0.86110320  1
  Al  Al7  1  0.22402959  0.20796892  0.62178342  1
  Al  Al8  1  0.77661762  0.09502451  0.37183457  1
  Al  Al9  1  0.88521923  0.21099523  0.12390479  1
  Al  Al10  1  0.44441836  0.09441837  0.87319445  1
  Al  Al11  1  0.55555557  0.20555555  0.62440776  1
  Al  Al12  1  0.10945572  0.42860549  0.37278724  1
  Al  Al13  1  0.22045220  0.53521930  0.12390483  1
  Al  Al14  1  0.77728420  0.42728424  0.87353562  1
  Al  Al15  1  0.88888891  0.53888888  0.62435760  1
  Al  Al16  1  0.44502452  0.42661760  0.37183464  1
  Al  Al17  1  0.56099520  0.53521921  0.12390482  1
  Al  Al18  1  0.11209822  0.42728424  0.87353575  1
  Al  Al19  1  0.22402960  0.53466819  0.62178345  1
  Al  Al20  1  0.77860549  0.42860546  0.37278732  1
  Al  Al21  1  0.88888886  0.53888890  0.12052802  1
  Al  Al22  1  0.44441836  0.42782993  0.87319449  1
  Al  Al23  1  0.55796883  0.53466825  0.62178336  1
  Al  Al24  1  0.10850827  0.75850827  0.38212206  1
  Al  Al25  1  0.77728422  0.76209823  0.87353565  1
  Al  Al26  1  0.88466819  0.87402963  0.62178346  1
  Al  Al27  1  0.44965016  0.75850825  0.38212179  1
  Al  Al28  1  0.56099522  0.87045225  0.12390481  1
  Al  Al29  1  0.10673326  0.75673327  0.86110317  1
  Al  Al30  1  0.22222228  0.87222223  0.61509280  1
  Al  Al31  1  0.77860551  0.75945572  0.37278729  1
  Al  Al32  1  0.88521929  0.87045218  0.12390479  1
  Al  Al33  1  0.45320012  0.75673327  0.86110329  1
  Al  Al34  1  0.55796887  0.87402958  0.62178337  1
  Gd  Gd35  1  0.22222214  0.87222229  0.11010704  1
  N  N36  1  0.22217517  0.20570661  0.33926999  1
  N  N37  1  0.09522321  0.12622024  0.07740865  1
  N  N38  1  0.88416578  0.20761758  0.83334516  1
  N  N39  1  0.77581674  0.09542496  0.58502918  1
  N  N40  1  0.55555555  0.20555556  0.33396033  1
  N  N41  1  0.44360529  0.09360531  0.08815491  1
  N  N42  1  0.22488326  0.20761762  0.83334515  1
  N  N43  1  0.10869373  0.09927919  0.59482145  1
  N  N44  1  0.88878492  0.20570662  0.33926997  1
  N  N45  1  0.77945604  0.09360529  0.08815499  1
  N  N46  1  0.55555557  0.20555556  0.83933237  1
  N  N47  1  0.44542495  0.09542496  0.58502928  1
  N  N48  1  0.22217516  0.53878496  0.33926997  1
  N  N49  1  0.11139589  0.42763541  0.08738085  1
  N  N50  1  0.88888892  0.53888889  0.83867976  1
  N  N51  1  0.77862592  0.42862592  0.58543918  1
  N  N52  1  0.55570666  0.53878484  0.33927001  1
  N  N53  1  0.44360529  0.42945604  0.08815494  1
  N  N54  1  0.22488329  0.53416581  0.83334515  1
  N  N55  1  0.10941481  0.42862595  0.58543908  1
  N  N56  1  0.88888888  0.53888890  0.33472807  1
  N  N57  1  0.77763536  0.42763540  0.08738074  1
  N  N58  1  0.55761754  0.53416587  0.83334515  1
  N  N59  1  0.44542496  0.42581673  0.58502924  1
  N  N60  1  0.22222221  0.87222225  0.36590162  1
  N  N61  1  0.09522324  0.74522324  0.07740855  1
  N  N62  1  0.88416580  0.87488332  0.83334516  1
  N  N63  1  0.77862595  0.75941481  0.58543915  1
  N  N64  1  0.55570666  0.87217518  0.33927000  1
  N  N65  1  0.47622014  0.74522326  0.07740888  1
  N  N66  1  0.22222226  0.87222225  0.83595606  1
  N  N67  1  0.10869375  0.75869376  0.59482150  1
  N  N68  1  0.88878497  0.87217513  0.33926995  1
  N  N69  1  0.77763539  0.76139589  0.08738077  1
  N  N70  1  0.55761755  0.87488325  0.83334516  1
  N  N71  1  0.44927917  0.75869374  0.59482131  1
