# generated using pymatgen
data_GdAl35N36
_symmetry_space_group_name_H-M   'P 1'
_cell_length_a   10.00068344
_cell_length_b   10.00068345
_cell_length_c   8.46246163
_cell_angle_alpha   89.99999806
_cell_angle_beta   89.99999404
_cell_angle_gamma   60.00001093
_symmetry_Int_Tables_number   1
_chemical_formula_structural   GdAl35N36
_chemical_formula_sum   'Gd1 Al35 N36'
_cell_volume   732.97093461
_cell_formula_units_Z   1
loop_
 _symmetry_equiv_pos_site_id
 _symmetry_equiv_pos_as_xyz
  1  'x, y, z'
loop_
 _atom_site_type_symbol
 _atom_site_label
 _atom_site_symmetry_multiplicity
 _atom_site_fract_x
 _atom_site_fract_y
 _atom_site_fract_z
 _atom_site_occupancy
  Al  Al0  1  0.10726912  0.10212833  0.36317393  1
  Al  Al1  1  0.22146547  0.21111933  0.10460965  1
  Al  Al2  1  0.77716276  0.09475193  0.85387903  1
  Al  Al3  1  0.88559009  0.20756485  0.60460946  1
  Al  Al4  1  0.44475167  0.09475167  0.35533787  1
  Al  Al5  1  0.55555554  0.20555555  0.10460780  1
  Al  Al6  1  0.10726856  0.10212946  0.84605429  1
  Al  Al7  1  0.22351171  0.20756486  0.60460949  1
  Al  Al8  1  0.77716329  0.09475167  0.35533797  1
  Al  Al9  1  0.88408182  0.21111932  0.10460954  1
  Al  Al10  1  0.44475188  0.09475190  0.85387894  1
  Al  Al11  1  0.55555554  0.20555555  0.60460744  1
  Al  Al12  1  0.11061351  0.42802661  0.35564713  1
  Al  Al13  1  0.22146551  0.53408196  0.10460975  1
  Al  Al14  1  0.77802636  0.42802642  0.85356846  1
  Al  Al15  1  0.88888890  0.53888891  0.60460604  1
  Al  Al16  1  0.44475168  0.42716326  0.35533793  1
  Al  Al17  1  0.56111931  0.53408183  0.10460942  1
  Al  Al18  1  0.11061388  0.42802640  0.85356868  1
  Al  Al19  1  0.22351173  0.53559015  0.60460964  1
  Al  Al20  1  0.77802658  0.42802654  0.35564694  1
  Al  Al21  1  0.88888890  0.53888891  0.10460655  1
  Al  Al22  1  0.44475190  0.42716280  0.85387899  1
  Al  Al23  1  0.55756484  0.53559010  0.60460920  1
  Al  Al24  1  0.10726925  0.75726927  0.36317414  1
  Al  Al25  1  0.77802637  0.76061389  0.85356852  1
  Al  Al26  1  0.88559014  0.87351174  0.60460960  1
  Al  Al27  1  0.45212844  0.75726908  0.36317349  1
  Al  Al28  1  0.56111932  0.87146548  0.10460941  1
  Al  Al29  1  0.10726863  0.75726864  0.84605453  1
  Al  Al30  1  0.22222223  0.87222224  0.60461521  1
  Al  Al31  1  0.77802662  0.76061353  0.35564697  1
  Al  Al32  1  0.88408195  0.87146552  0.10460964  1
  Al  Al33  1  0.45212934  0.75726862  0.84605385  1
  Al  Al34  1  0.55756485  0.87351172  0.60460919  1
  Gd  Gd35  1  0.22222230  0.87222231  0.10461328  1
  N  N36  1  0.22361151  0.20683444  0.35744293  1
  N  N37  1  0.09653923  0.12358810  0.10460641  1
  N  N38  1  0.88621892  0.20683522  0.85177688  1
  N  N39  1  0.77611546  0.09527560  0.60460962  1
  N  N40  1  0.55555553  0.20555553  0.35296259  1
  N  N41  1  0.44392731  0.09392732  0.10461077  1
  N  N42  1  0.22361244  0.20683525  0.85177687  1
  N  N43  1  0.10825523  0.10015613  0.60461163  1
  N  N44  1  0.88622071  0.20683443  0.35744295  1
  N  N45  1  0.77881196  0.09392735  0.10461075  1
  N  N46  1  0.55555553  0.20555554  0.85625803  1
  N  N47  1  0.44527557  0.09527558  0.60460977  1
  N  N48  1  0.22361148  0.53622085  0.35744282  1
  N  N49  1  0.11083428  0.42791623  0.10461124  1
  N  N50  1  0.88888890  0.53888889  0.85527975  1
  N  N51  1  0.77850431  0.42850432  0.60461019  1
  N  N52  1  0.55683449  0.53622058  0.35744309  1
  N  N53  1  0.44392734  0.42881197  0.10461076  1
  N  N54  1  0.22361248  0.53621897  0.85177679  1
  N  N55  1  0.10965807  0.42850433  0.60461001  1
  N  N56  1  0.88888887  0.53888890  0.35394242  1
  N  N57  1  0.77791620  0.42791621  0.10461126  1
  N  N58  1  0.55683513  0.53621907  0.85177702  1
  N  N59  1  0.44527559  0.42611547  0.60460970  1
  N  N60  1  0.22222222  0.87222228  0.37360315  1
  N  N61  1  0.09653939  0.74653940  0.10460602  1
  N  N62  1  0.88621894  0.87361251  0.85177682  1
  N  N63  1  0.77850431  0.75965808  0.60461014  1
  N  N64  1  0.55683451  0.87361157  0.35744309  1
  N  N65  1  0.47358809  0.74653924  0.10460715  1
  N  N66  1  0.22222230  0.87222226  0.83562298  1
  N  N67  1  0.10825528  0.75825529  0.60461167  1
  N  N68  1  0.88622086  0.87361147  0.35744284  1
  N  N69  1  0.77791622  0.76083429  0.10461126  1
  N  N70  1  0.55683515  0.87361240  0.85177704  1
  N  N71  1  0.45015612  0.75825524  0.60461153  1
