# generated using pymatgen
data_GdAl35N36
_symmetry_space_group_name_H-M   'P 1'
_cell_length_a   9.91373193
_cell_length_b   9.91373193
_cell_length_c   8.72047148
_cell_angle_alpha   89.99999854
_cell_angle_beta   89.99999530
_cell_angle_gamma   60.00000888
_symmetry_Int_Tables_number   1
_chemical_formula_structural   GdAl35N36
_chemical_formula_sum   'Gd1 Al35 N36'
_cell_volume   742.24106687
_cell_formula_units_Z   1
loop_
 _symmetry_equiv_pos_site_id
 _symmetry_equiv_pos_as_xyz
  1  'x, y, z'
loop_
 _atom_site_type_symbol
 _atom_site_label
 _atom_site_symmetry_multiplicity
 _atom_site_fract_x
 _atom_site_fract_y
 _atom_site_fract_z
 _atom_site_occupancy
  Al  Al0  1  0.10700462  0.10265738  0.35570295  1
  Al  Al1  1  0.22100892  0.21095950  0.09294138  1
  Al  Al2  1  0.77661472  0.09502597  0.84439097  1
  Al  Al3  1  0.88493984  0.20786768  0.59503504  1
  Al  Al4  1  0.44445174  0.09445174  0.34419151  1
  Al  Al5  1  0.55555556  0.20555555  0.09601408  1
  Al  Al6  1  0.10801074  0.10064512  0.83481843  1
  Al  Al7  1  0.22385916  0.20786765  0.59503505  1
  Al  Al8  1  0.77776319  0.09445174  0.34419167  1
  Al  Al9  1  0.88469825  0.21095941  0.09294131  1
  Al  Al10  1  0.44502592  0.09502593  0.84439107  1
  Al  Al11  1  0.55555551  0.20555555  0.59263888  1
  Al  Al12  1  0.11173162  0.42746756  0.34399679  1
  Al  Al13  1  0.22100897  0.53469829  0.09294139  1
  Al  Al14  1  0.77851907  0.42851913  0.84348912  1
  Al  Al15  1  0.88888885  0.53888890  0.59267662  1
  Al  Al16  1  0.44445175  0.42776318  0.34419159  1
  Al  Al17  1  0.56095941  0.53469830  0.09294130  1
  Al  Al18  1  0.10962845  0.42851911  0.84348908  1
  Al  Al19  1  0.22385915  0.53493992  0.59503511  1
  Al  Al20  1  0.77746753  0.42746751  0.34399657  1
  Al  Al21  1  0.88888890  0.53888889  0.09585839  1
  Al  Al22  1  0.44502594  0.42661476  0.84439103  1
  Al  Al23  1  0.55786768  0.53493981  0.59503490  1
  Al  Al24  1  0.10700470  0.75700472  0.35570295  1
  Al  Al25  1  0.77851907  0.75962847  0.84348909  1
  Al  Al26  1  0.88493990  0.87385914  0.59503511  1
  Al  Al27  1  0.45265746  0.75700459  0.35570289  1
  Al  Al28  1  0.56095947  0.87100891  0.09294130  1
  Al  Al29  1  0.10801077  0.75801078  0.83481864  1
  Al  Al30  1  0.22222217  0.87222224  0.60012369  1
  Al  Al31  1  0.77746757  0.76173165  0.34399665  1
  Al  Al32  1  0.88469828  0.87100900  0.09294133  1
  Al  Al33  1  0.45064507  0.75801077  0.83481809  1
  Al  Al34  1  0.55786768  0.87385919  0.59503490  1
  Gd  Gd35  1  0.22222237  0.87222226  0.10276876  1
  N  N36  1  0.22447465  0.20733509  0.36847767  1
  N  N37  1  0.09595732  0.12475199  0.12098210  1
  N  N38  1  0.88784380  0.20614370  0.86186903  1
  N  N39  1  0.77575291  0.09545687  0.61614316  1
  N  N40  1  0.55555553  0.20555555  0.36216086  1
  N  N41  1  0.44368522  0.09368522  0.11382599  1
  N  N42  1  0.22267909  0.20614374  0.86186904  1
  N  N43  1  0.10850935  0.09964789  0.60900629  1
  N  N44  1  0.88485694  0.20733512  0.36847768  1
  N  N45  1  0.77929616  0.09368524  0.11382607  1
  N  N46  1  0.55555555  0.20555556  0.86770925  1
  N  N47  1  0.44545683  0.09545684  0.61614332  1
  N  N48  1  0.22447462  0.53485706  0.36847763  1
  N  N49  1  0.11127734  0.42769470  0.11449353  1
  N  N50  1  0.88888890  0.53888890  0.86673005  1
  N  N51  1  0.77866014  0.42866017  0.61585265  1
  N  N52  1  0.55733515  0.53485686  0.36847771  1
  N  N53  1  0.44368523  0.42929618  0.11382603  1
  N  N54  1  0.22267914  0.53784380  0.86186901  1
  N  N55  1  0.10934631  0.42866019  0.61585248  1
  N  N56  1  0.88888886  0.53888891  0.36314368  1
  N  N57  1  0.77769465  0.42769465  0.11449341  1
  N  N58  1  0.55614363  0.53784393  0.86186911  1
  N  N59  1  0.44545686  0.42575293  0.61614324  1
  N  N60  1  0.22222223  0.87222227  0.37332701  1
  N  N61  1  0.09595741  0.74595743  0.12098185  1
  N  N62  1  0.88784377  0.87267919  0.86186899  1
  N  N63  1  0.77866016  0.75934634  0.61585259  1
  N  N64  1  0.55733514  0.87447469  0.36847772  1
  N  N65  1  0.47475207  0.74595729  0.12098254  1
  N  N66  1  0.22222228  0.87222224  0.83814843  1
  N  N67  1  0.10850939  0.75850940  0.60900638  1
  N  N68  1  0.88485705  0.87447461  0.36847765  1
  N  N69  1  0.77769468  0.76127737  0.11449346  1
  N  N70  1  0.55614365  0.87267908  0.86186911  1
  N  N71  1  0.44964789  0.75850936  0.60900616  1
