# generated using pymatgen
data_GdAl35N36
_symmetry_space_group_name_H-M   'P 1'
_cell_length_a   9.80446195
_cell_length_b   9.80446192
_cell_length_c   9.05791621
_cell_angle_alpha   89.99999889
_cell_angle_beta   89.99999632
_cell_angle_gamma   60.00000794
_symmetry_Int_Tables_number   1
_chemical_formula_structural   GdAl35N36
_chemical_formula_sum   'Gd1 Al35 N36'
_cell_volume   754.06102611
_cell_formula_units_Z   1
loop_
 _symmetry_equiv_pos_site_id
 _symmetry_equiv_pos_as_xyz
  1  'x, y, z'
loop_
 _atom_site_type_symbol
 _atom_site_label
 _atom_site_symmetry_multiplicity
 _atom_site_fract_x
 _atom_site_fract_y
 _atom_site_fract_z
 _atom_site_occupancy
  Al  Al0  1  0.10673272  0.10320120  0.34811872  1
  Al  Al1  1  0.22045211  0.21099567  0.08531018  1
  Al  Al2  1  0.77661388  0.09502639  0.83738370  1
  Al  Al3  1  0.88466857  0.20796856  0.58743960  1
  Al  Al4  1  0.44441649  0.09441649  0.33602316  1
  Al  Al5  1  0.55555556  0.20555556  0.08861208  1
  Al  Al6  1  0.10850871  0.09964921  0.82710034  1
  Al  Al7  1  0.22402957  0.20796853  0.58743959  1
  Al  Al8  1  0.77783369  0.09441649  0.33602328  1
  Al  Al9  1  0.88521890  0.21099557  0.08531014  1
  Al  Al10  1  0.44502635  0.09502637  0.83738383  1
  Al  Al11  1  0.55555552  0.20555556  0.58480364  1
  Al  Al12  1  0.11210124  0.42728275  0.33568201  1
  Al  Al13  1  0.22045214  0.53521892  0.08531017  1
  Al  Al14  1  0.77860706  0.42860711  0.83642805  1
  Al  Al15  1  0.88888885  0.53888890  0.58485211  1
  Al  Al16  1  0.44441649  0.42783368  0.33602322  1
  Al  Al17  1  0.56099558  0.53521894  0.08531016  1
  Al  Al18  1  0.10945247  0.42860710  0.83642795  1
  Al  Al19  1  0.22402954  0.53466864  0.58743962  1
  Al  Al20  1  0.77728272  0.42728270  0.33568184  1
  Al  Al21  1  0.88888891  0.53888889  0.08869875  1
  Al  Al22  1  0.44502636  0.42661392  0.83738377  1
  Al  Al23  1  0.55796856  0.53466853  0.58743954  1
  Al  Al24  1  0.10673277  0.75673279  0.34811864  1
  Al  Al25  1  0.77860706  0.75945249  0.83642800  1
  Al  Al26  1  0.88466862  0.87402953  0.58743962  1
  Al  Al27  1  0.45320124  0.75673271  0.34811881  1
  Al  Al28  1  0.56099564  0.87045211  0.08531017  1
  Al  Al29  1  0.10850872  0.75850874  0.82710046  1
  Al  Al30  1  0.22222218  0.87222225  0.59413350  1
  Al  Al31  1  0.77728275  0.76210126  0.33568190  1
  Al  Al32  1  0.88521891  0.87045219  0.08531013  1
  Al  Al33  1  0.44964917  0.75850873  0.82710014  1
  Al  Al34  1  0.55796856  0.87402960  0.58743953  1
  Gd  Gd35  1  0.22222237  0.87222224  0.09911982  1
  N  N36  1  0.22488292  0.20761709  0.37587833  1
  N  N37  1  0.09522232  0.12622199  0.13180937  1
  N  N38  1  0.88878335  0.20570771  0.86994740  1
  N  N39  1  0.77581399  0.09542633  0.62419071  1
  N  N40  1  0.55555553  0.20555556  0.36988112  1
  N  N41  1  0.44360385  0.09360386  0.12106564  1
  N  N42  1  0.22217553  0.20570776  0.86994743  1
  N  N43  1  0.10869433  0.09927797  0.61440233  1
  N  N44  1  0.88416667  0.20761713  0.37587833  1
  N  N45  1  0.77945890  0.09360387  0.12106575  1
  N  N46  1  0.55555555  0.20555556  0.87526770  1
  N  N47  1  0.44542630  0.09542632  0.62419084  1
  N  N48  1  0.22488289  0.53416676  0.37587832  1
  N  N49  1  0.11139833  0.42763419  0.12184039  1
  N  N50  1  0.88888890  0.53888890  0.87449814  1
  N  N51  1  0.77862722  0.42862725  0.62377930  1
  N  N52  1  0.55761715  0.53416660  0.37587833  1
  N  N53  1  0.44360385  0.42945892  0.12106570  1
  N  N54  1  0.22217557  0.53878335  0.86994742  1
  N  N55  1  0.10941215  0.42862727  0.62377917  1
  N  N56  1  0.88888886  0.53888891  0.37053383  1
  N  N57  1  0.77763415  0.42763414  0.12184024  1
  N  N58  1  0.55570766  0.53878345  0.86994744  1
  N  N59  1  0.44542631  0.42581401  0.62419078  1
  N  N60  1  0.22222222  0.87222226  0.37326729  1
  N  N61  1  0.09522240  0.74522242  0.13180922  1
  N  N62  1  0.88878332  0.87217562  0.86994739  1
  N  N63  1  0.77862724  0.75941217  0.62377924  1
  N  N64  1  0.55761714  0.87488295  0.37587834  1
  N  N65  1  0.47622208  0.74522229  0.13180961  1
  N  N66  1  0.22222226  0.87222224  0.84332513  1
  N  N67  1  0.10869435  0.75869437  0.61440243  1
  N  N68  1  0.88416675  0.87488288  0.37587833  1
  N  N69  1  0.77763419  0.76139835  0.12184031  1
  N  N70  1  0.55570769  0.87217554  0.86994744  1
  N  N71  1  0.44927796  0.75869434  0.61440219  1
