# generated using pymatgen
data_GdAl35N36
_symmetry_space_group_name_H-M   'P 1'
_cell_length_a   9.68021948
_cell_length_b   9.68021943
_cell_length_c   9.43195535
_cell_angle_alpha   89.99999925
_cell_angle_beta   89.99999728
_cell_angle_gamma   60.00000696
_symmetry_Int_Tables_number   1
_chemical_formula_structural   GdAl35N36
_chemical_formula_sum   'Gd1 Al35 N36'
_cell_volume   765.42528465
_cell_formula_units_Z   1
loop_
 _symmetry_equiv_pos_site_id
 _symmetry_equiv_pos_as_xyz
  1  'x, y, z'
loop_
 _atom_site_type_symbol
 _atom_site_label
 _atom_site_symmetry_multiplicity
 _atom_site_fract_x
 _atom_site_fract_y
 _atom_site_fract_z
 _atom_site_occupancy
  Al  Al0  1  0.10652776  0.10361115  0.34063776  1
  Al  Al1  1  0.22010765  0.21120029  0.08026204  1
  Al  Al2  1  0.77695499  0.09485583  0.83198080  1
  Al  Al3  1  0.88499396  0.20776951  0.58165081  1
  Al  Al4  1  0.44449150  0.09449151  0.33053169  1
  Al  Al5  1  0.55555557  0.20555557  0.08255316  1
  Al  Al6  1  0.10914349  0.09837968  0.82221801  1
  Al  Al7  1  0.22390322  0.20776949  0.58165080  1
  Al  Al8  1  0.77768365  0.09449150  0.33053176  1
  Al  Al9  1  0.88535875  0.21120022  0.08026201  1
  Al  Al10  1  0.44485580  0.09485582  0.83198088  1
  Al  Al11  1  0.55555553  0.20555557  0.57980753  1
  Al  Al12  1  0.11201156  0.42732757  0.33003908  1
  Al  Al13  1  0.22010766  0.53535876  0.08026203  1
  Al  Al14  1  0.77847854  0.42847858  0.83118914  1
  Al  Al15  1  0.88888886  0.53888890  0.57977754  1
  Al  Al16  1  0.44449149  0.42768365  0.33053172  1
  Al  Al17  1  0.56120024  0.53535877  0.08026204  1
  Al  Al18  1  0.10970952  0.42847857  0.83118906  1
  Al  Al19  1  0.22390320  0.53499401  0.58165081  1
  Al  Al20  1  0.77732755  0.42732754  0.33003898  1
  Al  Al21  1  0.88888891  0.53888890  0.08296093  1
  Al  Al22  1  0.44485580  0.42695502  0.83198084  1
  Al  Al23  1  0.55776951  0.53499393  0.58165079  1
  Al  Al24  1  0.10652778  0.75652779  0.34063770  1
  Al  Al25  1  0.77847854  0.75970954  0.83118910  1
  Al  Al26  1  0.88499399  0.87390320  0.58165082  1
  Al  Al27  1  0.45361117  0.75652775  0.34063786  1
  Al  Al28  1  0.56120027  0.87010765  0.08026204  1
  Al  Al29  1  0.10914350  0.75914352  0.82221807  1
  Al  Al30  1  0.22222220  0.87222225  0.58559377  1
  Al  Al31  1  0.77732757  0.76201157  0.33003902  1
  Al  Al32  1  0.88535876  0.87010770  0.08026201  1
  Al  Al33  1  0.44837965  0.75914351  0.82221791  1
  Al  Al34  1  0.55776951  0.87390325  0.58165079  1
  Gd  Gd35  1  0.22222235  0.87222224  0.09366179  1
  N  N36  1  0.22485979  0.20765126  0.38098084  1
  N  N37  1  0.09464186  0.12738292  0.13868012  1
  N  N38  1  0.88934714  0.20541519  0.87623500  1
  N  N39  1  0.77619441  0.09523612  0.62965490  1
  N  N40  1  0.55555554  0.20555556  0.37619489  1
  N  N41  1  0.44365118  0.09365119  0.12675276  1
  N  N42  1  0.22190429  0.20541522  0.87623502  1
  N  N43  1  0.10905656  0.09855352  0.62009927  1
  N  N44  1  0.88415563  0.20765128  0.38098084  1
  N  N45  1  0.77936426  0.09365119  0.12675283  1
  N  N46  1  0.55555555  0.20555557  0.88014506  1
  N  N47  1  0.44523610  0.09523612  0.62965498  1
  N  N48  1  0.22485977  0.53415569  0.38098083  1
  N  N49  1  0.11125511  0.42770580  0.12749134  1
  N  N50  1  0.88888889  0.53888890  0.87968177  1
  N  N51  1  0.77846193  0.42846195  0.62931095  1
  N  N52  1  0.55765129  0.53415559  0.38098084  1
  N  N53  1  0.44365117  0.42936428  0.12675280  1
  N  N54  1  0.22190430  0.53934715  0.87623501  1
  N  N55  1  0.10974275  0.42846197  0.62931087  1
  N  N56  1  0.88888887  0.53888890  0.37652223  1
  N  N57  1  0.77770578  0.42770576  0.12749124  1
  N  N58  1  0.55541515  0.53934721  0.87623501  1
  N  N59  1  0.44523610  0.42619443  0.62965494  1
  N  N60  1  0.22222223  0.87222225  0.37384760  1
  N  N61  1  0.09464192  0.74464194  0.13868004  1
  N  N62  1  0.88934713  0.87190434  0.87623499  1
  N  N63  1  0.77846195  0.75974277  0.62931091  1
  N  N64  1  0.55765129  0.87485981  0.38098084  1
  N  N65  1  0.47738299  0.74464183  0.13868025  1
  N  N66  1  0.22222225  0.87222224  0.85063688  1
  N  N67  1  0.10905658  0.75905659  0.62009932  1
  N  N68  1  0.88415569  0.87485976  0.38098084  1
  N  N69  1  0.77770580  0.76125512  0.12749129  1
  N  N70  1  0.55541517  0.87190430  0.87623502  1
  N  N71  1  0.44855351  0.75905658  0.62009917  1
