# generated using pymatgen
data_Gd2Al7N9
_symmetry_space_group_name_H-M   'P 1'
_cell_length_a   9.82292806
_cell_length_b   9.74316182
_cell_length_c   11.18877005
_cell_angle_alpha   88.97615761
_cell_angle_beta   88.93020612
_cell_angle_gamma   59.97257741
_symmetry_Int_Tables_number   1
_chemical_formula_structural   Gd2Al7N9
_chemical_formula_sum   'Gd8 Al28 N36'
_cell_volume   926.90881757
_cell_formula_units_Z   4
loop_
 _symmetry_equiv_pos_site_id
 _symmetry_equiv_pos_as_xyz
  1  'x, y, z'
loop_
 _atom_site_type_symbol
 _atom_site_label
 _atom_site_symmetry_multiplicity
 _atom_site_fract_x
 _atom_site_fract_y
 _atom_site_fract_z
 _atom_site_occupancy
  Al  Al0  1  0.12946876  0.08915986  0.42866465  1
  Al  Al1  1  0.76630308  0.09669651  0.79384221  1
  Al  Al2  1  0.89432507  0.20793429  0.57552803  1
  Al  Al3  1  0.44855285  0.10500315  0.34385800  1
  Al  Al4  1  0.23512524  0.21089359  0.60952566  1
  Al  Al5  1  0.86756036  0.20498716  0.02977493  1
  Al  Al6  1  0.45453121  0.09526722  0.78660844  1
  Al  Al7  1  0.55522925  0.20488832  0.55963641  1
  Al  Al8  1  0.11096525  0.44036897  0.36614373  1
  Al  Al9  1  0.77351951  0.42596031  0.81159979  1
  Al  Al10  1  0.89993183  0.53519922  0.57861938  1
  Al  Al11  1  0.44599117  0.44335292  0.31225600  1
  Al  Al12  1  0.54930779  0.52939036  0.03925199  1
  Al  Al13  1  0.10670253  0.43304320  0.79544908  1
  Al  Al14  1  0.22129340  0.54640333  0.63390436  1
  Al  Al15  1  0.88720121  0.52462052  0.04084272  1
  Al  Al16  1  0.44648541  0.41664704  0.79915061  1
  Al  Al17  1  0.13064906  0.76128751  0.40238760  1
  Al  Al18  1  0.21137076  0.87002252  0.05411932  1
  Al  Al19  1  0.77433698  0.75802707  0.86331707  1
  Al  Al20  1  0.89615172  0.87712326  0.57571258  1
  Al  Al21  1  0.43592301  0.78675810  0.39989622  1
  Al  Al22  1  0.11455977  0.75256135  0.85768056  1
  Al  Al23  1  0.23481872  0.86274780  0.63406886  1
  Al  Al24  1  0.77873654  0.76850179  0.41733329  1
  Al  Al25  1  0.88290764  0.88237667  0.02284746  1
  Al  Al26  1  0.44697567  0.75445339  0.86296587  1
  Al  Al27  1  0.56486422  0.86588773  0.63158005  1
  Gd  Gd28  1  0.17746352  0.17565039  0.18196575  1
  Gd  Gd29  1  0.54047541  0.20138680  0.05170064  1
  Gd  Gd30  1  0.10548879  0.10268920  0.83381412  1
  Gd  Gd31  1  0.79724098  0.08825869  0.30944818  1
  Gd  Gd32  1  0.19006352  0.55073064  0.13223781  1
  Gd  Gd33  1  0.79586704  0.44224491  0.29483072  1
  Gd  Gd34  1  0.57069207  0.52402600  0.56577464  1
  Gd  Gd35  1  0.56627633  0.83809937  0.14853857  1
  N  N36  1  0.22865729  0.21268888  0.39478637  1
  N  N37  1  0.09076072  0.08391824  0.04059461  1
  N  N38  1  0.84342752  0.21823268  0.86188741  1
  N  N39  1  0.77898513  0.10044739  0.61839422  1
  N  N40  1  0.54232721  0.22890577  0.38599229  1
  N  N41  1  0.42906139  0.09969888  0.16929147  1
  N  N42  1  0.24142743  0.21883364  0.79792510  1
  N  N43  1  0.12000794  0.08901341  0.60090302  1
  N  N44  1  0.91067668  0.21213513  0.40075169  1
  N  N45  1  0.79326633  0.07631589  0.10125233  1
  N  N46  1  0.55360902  0.19800902  0.84595103  1
  N  N47  1  0.46110172  0.08819484  0.61266275  1
  N  N48  1  0.22083203  0.55268825  0.33804426  1
  N  N49  1  0.03962774  0.43763414  0.16663946  1
  N  N50  1  0.89944919  0.52135106  0.86455974  1
  N  N51  1  0.81502292  0.41202766  0.64271607  1
  N  N52  1  0.53881592  0.56429596  0.36259838  1
  N  N53  1  0.45726739  0.43579962  0.13595252  1
  N  N54  1  0.21851069  0.54100535  0.81446632  1
  N  N55  1  0.11042725  0.43866158  0.61738574  1
  N  N56  1  0.90011863  0.54884434  0.40924807  1
  N  N57  1  0.76547965  0.42719451  0.08138702  1
  N  N58  1  0.55299422  0.52741037  0.85592020  1
  N  N59  1  0.43859896  0.40913645  0.62884178  1
  N  N60  1  0.22212322  0.89186478  0.35250587  1
  N  N61  1  0.10014512  0.77245447  0.02905571  1
  N  N62  1  0.88385402  0.87702980  0.84369146  1
  N  N63  1  0.78088372  0.76401096  0.59310716  1
  N  N64  1  0.57129244  0.87206816  0.35761003  1
  N  N65  1  0.42626957  0.75669122  0.03688739  1
  N  N66  1  0.24111378  0.83856375  0.80382867  1
  N  N67  1  0.12723963  0.75885125  0.57900640  1
  N  N68  1  0.90672592  0.85933918  0.40052815  1
  N  N69  1  0.78859132  0.75450139  0.03970856  1
  N  N70  1  0.55890345  0.86104365  0.80860263  1
  N  N71  1  0.43880165  0.78718037  0.57290729  1
