# generated using pymatgen
data_Gd2Al7N9
_symmetry_space_group_name_H-M   'P 1'
_cell_length_a   9.88129173
_cell_length_b   9.83764970
_cell_length_c   10.76441246
_cell_angle_alpha   89.51070088
_cell_angle_beta   89.08173831
_cell_angle_gamma   59.78535171
_symmetry_Int_Tables_number   1
_chemical_formula_structural   Gd2Al7N9
_chemical_formula_sum   'Gd8 Al28 N36'
_cell_volume   904.12144998
_cell_formula_units_Z   4
loop_
 _symmetry_equiv_pos_site_id
 _symmetry_equiv_pos_as_xyz
  1  'x, y, z'
loop_
 _atom_site_type_symbol
 _atom_site_label
 _atom_site_symmetry_multiplicity
 _atom_site_fract_x
 _atom_site_fract_y
 _atom_site_fract_z
 _atom_site_occupancy
  Al  Al0  1  0.12632174  0.08456446  0.38408811  1
  Al  Al1  1  0.76952296  0.09961666  0.78151628  1
  Al  Al2  1  0.89532955  0.20360232  0.55514106  1
  Al  Al3  1  0.44498988  0.10059577  0.32261007  1
  Al  Al4  1  0.23235139  0.20724064  0.55282474  1
  Al  Al5  1  0.87340909  0.20662967  0.02505363  1
  Al  Al6  1  0.44344216  0.10311607  0.78749993  1
  Al  Al7  1  0.55007026  0.20465627  0.55341362  1
  Al  Al8  1  0.10217988  0.43932777  0.32134246  1
  Al  Al9  1  0.77680001  0.42612830  0.80454561  1
  Al  Al10  1  0.90568055  0.52633419  0.57282175  1
  Al  Al11  1  0.44257405  0.43734353  0.30729813  1
  Al  Al12  1  0.54597725  0.53719356  0.03423484  1
  Al  Al13  1  0.12059480  0.42862119  0.79325085  1
  Al  Al14  1  0.22645398  0.52648595  0.54967820  1
  Al  Al15  1  0.88416333  0.53768958  0.02915082  1
  Al  Al16  1  0.43607725  0.42498628  0.78799041  1
  Al  Al17  1  0.12047358  0.75898081  0.36865768  1
  Al  Al18  1  0.20732177  0.87801126  0.11484445  1
  Al  Al19  1  0.77769052  0.76172789  0.84454309  1
  Al  Al20  1  0.89347824  0.87327531  0.56536994  1
  Al  Al21  1  0.44010206  0.77494113  0.38005358  1
  Al  Al22  1  0.11496353  0.75190576  0.79645095  1
  Al  Al23  1  0.23257774  0.86556123  0.61242490  1
  Al  Al24  1  0.77882151  0.75848854  0.40468364  1
  Al  Al25  1  0.89504255  0.88196811  0.02094963  1
  Al  Al26  1  0.43642807  0.76146588  0.86026465  1
  Al  Al27  1  0.55558176  0.87234914  0.62190905  1
  Gd  Gd28  1  0.20820403  0.21012517  0.07611232  1
  Gd  Gd29  1  0.54788802  0.20848861  0.03730607  1
  Gd  Gd30  1  0.10827144  0.10069231  0.81786746  1
  Gd  Gd31  1  0.78757440  0.08177399  0.29938647  1
  Gd  Gd32  1  0.20171569  0.54938202  0.06528365  1
  Gd  Gd33  1  0.79372898  0.43492202  0.28491430  1
  Gd  Gd34  1  0.56485463  0.53234947  0.57128096  1
  Gd  Gd35  1  0.57312259  0.83816921  0.12735945  1
  N  N36  1  0.22553011  0.20954874  0.37126124  1
  N  N37  1  0.09077840  0.08030875  0.04367170  1
  N  N38  1  0.85025522  0.21756156  0.85111731  1
  N  N39  1  0.77829140  0.09795801  0.60148618  1
  N  N40  1  0.53516309  0.22214754  0.37534686  1
  N  N41  1  0.44821260  0.09151612  0.14857952  1
  N  N42  1  0.24415539  0.22428062  0.86196372  1
  N  N43  1  0.12147822  0.08670368  0.57557292  1
  N  N44  1  0.90964105  0.20028897  0.37797864  1
  N  N45  1  0.79099586  0.08583191  0.08788451  1
  N  N46  1  0.55561186  0.20281868  0.82563720  1
  N  N47  1  0.44356148  0.09628098  0.60783198  1
  N  N48  1  0.22581066  0.53530595  0.36391143  1
  N  N49  1  0.04413594  0.45353519  0.15017556  1
  N  N50  1  0.90203524  0.52450778  0.84757406  1
  N  N51  1  0.81790054  0.40463779  0.62783168  1
  N  N52  1  0.54064594  0.55260127  0.35947997  1
  N  N53  1  0.45450346  0.44261683  0.12924200  1
  N  N54  1  0.21980055  0.54121417  0.84393235  1
  N  N55  1  0.12133474  0.42141325  0.61400724  1
  N  N56  1  0.90435660  0.54098320  0.39794143  1
  N  N57  1  0.76486850  0.43732566  0.06687647  1
  N  N58  1  0.55107379  0.53280171  0.84060078  1
  N  N59  1  0.42860676  0.41433557  0.61283253  1
  N  N60  1  0.22648456  0.87676753  0.31314797  1
  N  N61  1  0.08568866  0.79065705  0.09500775  1
  N  N62  1  0.89443726  0.87776601  0.83030498  1
  N  N63  1  0.77757993  0.76075526  0.58957784  1
  N  N64  1  0.57134003  0.86497208  0.34276751  1
  N  N65  1  0.41404446  0.76062584  0.03813078  1
  N  N66  1  0.24052074  0.84137891  0.78627031  1
  N  N67  1  0.12191161  0.75443842  0.57833477  1
  N  N68  1  0.90431407  0.84950127  0.38716255  1
  N  N69  1  0.79708931  0.75887105  0.02416038  1
  N  N70  1  0.55179360  0.86819429  0.80538032  1
  N  N71  1  0.43369140  0.79404084  0.55525334  1
