# generated using pymatgen
data_Gd2Al7N9
_symmetry_space_group_name_H-M   'P 1'
_cell_length_a   9.92277366
_cell_length_b   9.91414846
_cell_length_c   10.51400290
_cell_angle_alpha   90.46155637
_cell_angle_beta   89.90800640
_cell_angle_gamma   59.88333819
_symmetry_Int_Tables_number   1
_chemical_formula_structural   Gd2Al7N9
_chemical_formula_sum   'Gd8 Al28 N36'
_cell_volume   894.64788037
_cell_formula_units_Z   4
loop_
 _symmetry_equiv_pos_site_id
 _symmetry_equiv_pos_as_xyz
  1  'x, y, z'
loop_
 _atom_site_type_symbol
 _atom_site_label
 _atom_site_symmetry_multiplicity
 _atom_site_fract_x
 _atom_site_fract_y
 _atom_site_fract_z
 _atom_site_occupancy
  Al  Al0  1  0.12749804  0.08091047  0.42606681  1
  Al  Al1  1  0.77678804  0.09818510  0.82492966  1
  Al  Al2  1  0.89632275  0.20642812  0.59933650  1
  Al  Al3  1  0.44277397  0.09173499  0.42003654  1
  Al  Al4  1  0.22714570  0.21271847  0.64130263  1
  Al  Al5  1  0.88057097  0.20665996  0.08228296  1
  Al  Al6  1  0.44510513  0.09686277  0.88328658  1
  Al  Al7  1  0.54336820  0.20466983  0.65649503  1
  Al  Al8  1  0.11102012  0.43111678  0.41622539  1
  Al  Al9  1  0.78383541  0.42851506  0.82873731  1
  Al  Al10  1  0.89505681  0.54440958  0.65262653  1
  Al  Al11  1  0.42409455  0.42514798  0.41998518  1
  Al  Al12  1  0.56551761  0.53733231  0.05806901  1
  Al  Al13  1  0.11059621  0.43460678  0.88812764  1
  Al  Al14  1  0.21104831  0.53959564  0.65366001  1
  Al  Al15  1  0.89456538  0.54309282  0.13856337  1
  Al  Al16  1  0.43853784  0.42853910  0.88437763  1
  Al  Al17  1  0.12096591  0.75022519  0.40760081  1
  Al  Al18  1  0.21167660  0.87768846  0.14845317  1
  Al  Al19  1  0.78794585  0.76081957  0.89425062  1
  Al  Al20  1  0.89739313  0.86132565  0.65101879  1
  Al  Al21  1  0.43263027  0.77251267  0.41064433  1
  Al  Al22  1  0.11222348  0.76250152  0.89392701  1
  Al  Al23  1  0.22134958  0.87248756  0.65041898  1
  Al  Al24  1  0.79416072  0.74808242  0.40220009  1
  Al  Al25  1  0.90371652  0.86732749  0.15025016  1
  Al  Al26  1  0.44220203  0.76489736  0.89074482  1
  Al  Al27  1  0.55729726  0.87701102  0.64798269  1
  Gd  Gd28  1  0.21067541  0.20998910  0.16775000  1
  Gd  Gd29  1  0.55626625  0.20656506  0.13249956  1
  Gd  Gd30  1  0.12071496  0.09359953  0.87778317  1
  Gd  Gd31  1  0.77909871  0.07824328  0.38847097  1
  Gd  Gd32  1  0.21620791  0.55115072  0.14805554  1
  Gd  Gd33  1  0.76590039  0.43101535  0.34967041  1
  Gd  Gd34  1  0.53649425  0.55143009  0.63129676  1
  Gd  Gd35  1  0.56267841  0.85814384  0.14550921  1
  N  N36  1  0.22314710  0.20060312  0.39065055  1
  N  N37  1  0.09841503  0.08721154  0.09582583  1
  N  N38  1  0.85858841  0.22138276  0.88424638  1
  N  N39  1  0.77723413  0.09508497  0.63277795  1
  N  N40  1  0.51673610  0.21966374  0.35042100  1
  N  N41  1  0.43188850  0.08818230  0.05969367  1
  N  N42  1  0.23831590  0.22827520  0.82154616  1
  N  N43  1  0.11805373  0.09083415  0.61964290  1
  N  N44  1  0.91410340  0.19347774  0.41994277  1
  N  N45  1  0.80729447  0.08508481  0.15548981  1
  N  N46  1  0.55501840  0.20557713  0.84058810  1
  N  N47  1  0.45256619  0.08980418  0.60079897  1
  N  N48  1  0.21944672  0.53487504  0.36626242  1
  N  N49  1  0.09126862  0.43320621  0.06597688  1
  N  N50  1  0.89245224  0.54637208  0.83495194  1
  N  N51  1  0.79908755  0.41974605  0.64012584  1
  N  N52  1  0.51430651  0.55429018  0.40517349  1
  N  N53  1  0.45030726  0.44133217  0.06037181  1
  N  N54  1  0.21698112  0.54578750  0.83903004  1
  N  N55  1  0.10287386  0.43603237  0.59639136  1
  N  N56  1  0.91284811  0.54249417  0.32941012  1
  N  N57  1  0.77265023  0.43453563  0.12427298  1
  N  N58  1  0.56471285  0.54090253  0.86459384  1
  N  N59  1  0.42001549  0.40878094  0.60358683  1
  N  N60  1  0.22162162  0.87312537  0.34247954  1
  N  N61  1  0.09972657  0.79013709  0.07412927  1
  N  N62  1  0.89392017  0.87052782  0.83329156  1
  N  N63  1  0.78366288  0.75928951  0.58962047  1
  N  N64  1  0.56389039  0.86776660  0.36423903  1
  N  N65  1  0.42293736  0.75557730  0.07359874  1
  N  N66  1  0.24089941  0.83721539  0.82585936  1
  N  N67  1  0.11306204  0.76197575  0.59191240  1
  N  N68  1  0.91940116  0.82770830  0.33450592  1
  N  N69  1  0.81002651  0.75235589  0.07632427  1
  N  N70  1  0.56142209  0.86861075  0.83652492  1
  N  N71  1  0.42305844  0.80662887  0.58877142  1
