# generated using pymatgen
data_Gd2Al7N9
_symmetry_space_group_name_H-M   'P 1'
_cell_length_a   9.95756645
_cell_length_b   9.87908252
_cell_length_c   10.49387760
_cell_angle_alpha   89.17760598
_cell_angle_beta   88.74039918
_cell_angle_gamma   60.02802756
_symmetry_Int_Tables_number   1
_chemical_formula_structural   Gd2Al7N9
_chemical_formula_sum   'Gd8 Al28 N36'
_cell_volume   894.02732301
_cell_formula_units_Z   4
loop_
 _symmetry_equiv_pos_site_id
 _symmetry_equiv_pos_as_xyz
  1  'x, y, z'
loop_
 _atom_site_type_symbol
 _atom_site_label
 _atom_site_symmetry_multiplicity
 _atom_site_fract_x
 _atom_site_fract_y
 _atom_site_fract_z
 _atom_site_occupancy
  Al  Al0  1  0.12396975  0.09042919  0.38802837  1
  Al  Al1  1  0.77087486  0.09295446  0.78488313  1
  Al  Al2  1  0.89364374  0.20971187  0.55958851  1
  Al  Al3  1  0.44457650  0.10132646  0.32321210  1
  Al  Al4  1  0.23118676  0.21322561  0.55617450  1
  Al  Al5  1  0.87433611  0.20287993  0.02544422  1
  Al  Al6  1  0.44808956  0.09096069  0.78883454  1
  Al  Al7  1  0.54570608  0.20883627  0.55839413  1
  Al  Al8  1  0.10701556  0.43590812  0.32033600  1
  Al  Al9  1  0.77973651  0.42861883  0.80969379  1
  Al  Al10  1  0.90051647  0.54005782  0.56405720  1
  Al  Al11  1  0.44130258  0.43841243  0.31077161  1
  Al  Al12  1  0.55232649  0.52791613  0.03128939  1
  Al  Al13  1  0.11824005  0.43188627  0.79435689  1
  Al  Al14  1  0.21838327  0.53917088  0.54545772  1
  Al  Al15  1  0.88887458  0.54137475  0.04170814  1
  Al  Al16  1  0.43179156  0.42185953  0.78850959  1
  Al  Al17  1  0.11607876  0.76679909  0.30968980  1
  Al  Al18  1  0.20168802  0.86738105  0.03648002  1
  Al  Al19  1  0.77668654  0.76379385  0.80043196  1
  Al  Al20  1  0.89464920  0.86433742  0.55393736  1
  Al  Al21  1  0.43899885  0.77092100  0.38337063  1
  Al  Al22  1  0.10888902  0.75067858  0.78900177  1
  Al  Al23  1  0.22106938  0.86796201  0.57785759  1
  Al  Al24  1  0.80098102  0.75454715  0.31121753  1
  Al  Al25  1  0.89502775  0.87193286  0.04852233  1
  Al  Al26  1  0.44048178  0.75612130  0.85049325  1
  Al  Al27  1  0.56527534  0.87779137  0.55477030  1
  Gd  Gd28  1  0.21009195  0.20047050  0.07509490  1
  Gd  Gd29  1  0.55640504  0.20045655  0.03957970  1
  Gd  Gd30  1  0.10515285  0.10308024  0.80693516  1
  Gd  Gd31  1  0.78246616  0.09471397  0.31316592  1
  Gd  Gd32  1  0.21415273  0.54251794  0.06829694  1
  Gd  Gd33  1  0.78587614  0.44118435  0.28786375  1
  Gd  Gd34  1  0.56465280  0.53328821  0.58252903  1
  Gd  Gd35  1  0.55819347  0.85065812  0.08245938  1
  N  N36  1  0.22584830  0.21077607  0.37081369  1
  N  N37  1  0.08712663  0.07910648  0.03617555  1
  N  N38  1  0.84692920  0.21800327  0.84802284  1
  N  N39  1  0.78071524  0.09332718  0.59800361  1
  N  N40  1  0.52902368  0.22645453  0.37663098  1
  N  N41  1  0.44748839  0.08960816  0.14753195  1
  N  N42  1  0.24296883  0.22316294  0.85491223  1
  N  N43  1  0.11849158  0.09383327  0.58013862  1
  N  N44  1  0.91106170  0.20902317  0.37895961  1
  N  N45  1  0.79583171  0.08228818  0.09836403  1
  N  N46  1  0.55507617  0.19986582  0.82185102  1
  N  N47  1  0.44586021  0.09143771  0.60487505  1
  N  N48  1  0.22228067  0.54349222  0.35569105  1
  N  N49  1  0.06578730  0.43986390  0.14371684  1
  N  N50  1  0.89642468  0.54072572  0.85710085  1
  N  N51  1  0.82036059  0.41208008  0.62725085  1
  N  N52  1  0.53834504  0.55310315  0.36259175  1
  N  N53  1  0.46364747  0.43206536  0.12818387  1
  N  N54  1  0.21932431  0.54029358  0.84820144  1
  N  N55  1  0.11577553  0.42934980  0.60961960  1
  N  N56  1  0.90210893  0.55375008  0.38576938  1
  N  N57  1  0.76978381  0.43413043  0.06519936  1
  N  N58  1  0.55363716  0.52893472  0.83420291  1
  N  N59  1  0.42084249  0.41960584  0.61010688  1
  N  N60  1  0.22061676  0.87326520  0.36933997  1
  N  N61  1  0.09333782  0.78809933  0.12505268  1
  N  N62  1  0.88964323  0.87026768  0.85553142  1
  N  N63  1  0.77923076  0.76341705  0.61663919  1
  N  N64  1  0.57167950  0.87048373  0.36252822  1
  N  N65  1  0.41453304  0.74238695  0.03617606  1
  N  N66  1  0.22861575  0.84438731  0.81837104  1
  N  N67  1  0.10874314  0.75534084  0.60589530  1
  N  N68  1  0.90959799  0.84786936  0.37483744  1
  N  N69  1  0.81202314  0.74525806  0.12026791  1
  N  N70  1  0.55569394  0.87263108  0.85027972  1
  N  N71  1  0.43545436  0.79107468  0.57068253  1
