# generated using pymatgen
data_Gd2Al7N9
_symmetry_space_group_name_H-M   'P 1'
_cell_length_a   9.89712765
_cell_length_b   9.87224591
_cell_length_c   10.60074587
_cell_angle_alpha   90.24802970
_cell_angle_beta   89.27248052
_cell_angle_gamma   60.26570919
_symmetry_Int_Tables_number   1
_chemical_formula_structural   Gd2Al7N9
_chemical_formula_sum   'Gd8 Al28 N36'
_cell_volume   899.25164965
_cell_formula_units_Z   4
loop_
 _symmetry_equiv_pos_site_id
 _symmetry_equiv_pos_as_xyz
  1  'x, y, z'
loop_
 _atom_site_type_symbol
 _atom_site_label
 _atom_site_symmetry_multiplicity
 _atom_site_fract_x
 _atom_site_fract_y
 _atom_site_fract_z
 _atom_site_occupancy
  Al  Al0  1  0.12993756  0.08035224  0.42890991  1
  Al  Al1  1  0.77892002  0.09652697  0.82739151  1
  Al  Al2  1  0.90079148  0.20507388  0.59783377  1
  Al  Al3  1  0.44612254  0.09516838  0.41832769  1
  Al  Al4  1  0.23391038  0.20875153  0.64152444  1
  Al  Al5  1  0.88035425  0.20375157  0.07345345  1
  Al  Al6  1  0.44444050  0.09142784  0.88837472  1
  Al  Al7  1  0.54927727  0.20062874  0.66321401  1
  Al  Al8  1  0.11532207  0.42869181  0.43070116  1
  Al  Al9  1  0.77390745  0.42387915  0.83979533  1
  Al  Al10  1  0.89736604  0.53937608  0.65762808  1
  Al  Al11  1  0.43431072  0.43546245  0.34479473  1
  Al  Al12  1  0.54468001  0.54388600  0.05951944  1
  Al  Al13  1  0.12129672  0.42636536  0.88231389  1
  Al  Al14  1  0.21157827  0.54599367  0.65831415  1
  Al  Al15  1  0.88037954  0.54051953  0.04790201  1
  Al  Al16  1  0.43318386  0.43185428  0.84088093  1
  Al  Al17  1  0.12078301  0.75091163  0.40882612  1
  Al  Al18  1  0.21134686  0.87860411  0.14684333  1
  Al  Al19  1  0.77801709  0.77659809  0.88596048  1
  Al  Al20  1  0.89787443  0.86477540  0.65218684  1
  Al  Al21  1  0.43760591  0.77293912  0.41016448  1
  Al  Al22  1  0.10870549  0.76676681  0.89770116  1
  Al  Al23  1  0.22581922  0.86805392  0.65127521  1
  Al  Al24  1  0.79536966  0.74462134  0.41275791  1
  Al  Al25  1  0.89822467  0.87346700  0.14988595  1
  Al  Al26  1  0.43950148  0.76388026  0.88866632  1
  Al  Al27  1  0.55775129  0.87717569  0.64740952  1
  Gd  Gd28  1  0.20691382  0.21111162  0.17190908  1
  Gd  Gd29  1  0.55791162  0.20675643  0.11125139  1
  Gd  Gd30  1  0.12084780  0.09415519  0.87704113  1
  Gd  Gd31  1  0.77770304  0.08184781  0.38077089  1
  Gd  Gd32  1  0.17952757  0.56200510  0.15244070  1
  Gd  Gd33  1  0.78291483  0.42412785  0.32075117  1
  Gd  Gd34  1  0.55722823  0.53603354  0.61011759  1
  Gd  Gd35  1  0.56577505  0.85361684  0.15003108  1
  N  N36  1  0.22654710  0.20097963  0.39685386  1
  N  N37  1  0.09663074  0.08892491  0.09461593  1
  N  N38  1  0.85710390  0.21605667  0.89423062  1
  N  N39  1  0.77827500  0.09812720  0.63728825  1
  N  N40  1  0.51908661  0.21849721  0.33866789  1
  N  N41  1  0.42755896  0.08319447  0.06367530  1
  N  N42  1  0.24611842  0.22201668  0.81948280  1
  N  N43  1  0.12261445  0.08692399  0.61986386  1
  N  N44  1  0.91547017  0.19610538  0.42086751  1
  N  N45  1  0.80551223  0.09059544  0.15962914  1
  N  N46  1  0.55888818  0.19887287  0.85395884  1
  N  N47  1  0.45815861  0.09082447  0.59853764  1
  N  N48  1  0.22208430  0.53454531  0.37091137  1
  N  N49  1  0.09041320  0.42024572  0.05565138  1
  N  N50  1  0.88481503  0.54708155  0.85298935  1
  N  N51  1  0.81055058  0.40807272  0.66117164  1
  N  N52  1  0.53169381  0.54957744  0.39366333  1
  N  N53  1  0.43220575  0.45884313  0.12300969  1
  N  N54  1  0.20817605  0.55352025  0.84609910  1
  N  N55  1  0.11049265  0.43427246  0.61070466  1
  N  N56  1  0.91125248  0.53512602  0.37683161  1
  N  N57  1  0.76549214  0.44207970  0.09745204  1
  N  N58  1  0.55284646  0.53761404  0.86999990  1
  N  N59  1  0.42736571  0.41472820  0.65732469  1
  N  N60  1  0.22576995  0.87222347  0.34330591  1
  N  N61  1  0.09430000  0.79655918  0.07459278  1
  N  N62  1  0.89515199  0.87316224  0.83214735  1
  N  N63  1  0.78393944  0.76018928  0.60131359  1
  N  N64  1  0.56713464  0.86884795  0.36831203  1
  N  N65  1  0.41902017  0.76312635  0.06951700  1
  N  N66  1  0.23827162  0.83952019  0.82598353  1
  N  N67  1  0.11260000  0.76315256  0.59202782  1
  N  N68  1  0.91963698  0.82481866  0.33281781  1
  N  N69  1  0.80748207  0.75893818  0.06563651  1
  N  N70  1  0.55779801  0.86985761  0.83361668  1
  N  N71  1  0.42932067  0.79743019  0.58958978  1
