# generated using pymatgen
data_Gd2Al7N9
_symmetry_space_group_name_H-M   'P 1'
_cell_length_a   9.87713385
_cell_length_b   9.86057930
_cell_length_c   10.43637760
_cell_angle_alpha   90.45833880
_cell_angle_beta   90.60351044
_cell_angle_gamma   60.01537584
_symmetry_Int_Tables_number   1
_chemical_formula_structural   Gd2Al7N9
_chemical_formula_sum   'Gd8 Al28 N36'
_cell_volume   880.34883455
_cell_formula_units_Z   4
loop_
 _symmetry_equiv_pos_site_id
 _symmetry_equiv_pos_as_xyz
  1  'x, y, z'
loop_
 _atom_site_type_symbol
 _atom_site_label
 _atom_site_symmetry_multiplicity
 _atom_site_fract_x
 _atom_site_fract_y
 _atom_site_fract_z
 _atom_site_occupancy
  Al  Al0  1  0.11376810  0.08641698  0.41720455  1
  Al  Al1  1  0.78202576  0.09322950  0.89133770  1
  Al  Al2  1  0.88718575  0.20878798  0.65920882  1
  Al  Al3  1  0.44283384  0.09251152  0.42431074  1
  Al  Al4  1  0.22367308  0.21160971  0.63371663  1
  Al  Al5  1  0.90045742  0.19297780  0.14439392  1
  Al  Al6  1  0.44490878  0.09750569  0.87988512  1
  Al  Al7  1  0.55370515  0.20366741  0.66244926  1
  Al  Al8  1  0.10982925  0.43647231  0.42000165  1
  Al  Al9  1  0.77563841  0.43254043  0.90641905  1
  Al  Al10  1  0.89228150  0.53794113  0.65385826  1
  Al  Al11  1  0.42656260  0.42943866  0.41128284  1
  Al  Al12  1  0.54348454  0.54583078  0.13978762  1
  Al  Al13  1  0.11163204  0.42997806  0.88344511  1
  Al  Al14  1  0.21539520  0.54123442  0.65180309  1
  Al  Al15  1  0.89475347  0.54187519  0.13607263  1
  Al  Al16  1  0.44246817  0.43312936  0.89425033  1
  Al  Al17  1  0.11284880  0.75782871  0.40673217  1
  Al  Al18  1  0.21529666  0.87301105  0.15280919  1
  Al  Al19  1  0.78744182  0.75728371  0.89089147  1
  Al  Al20  1  0.89125961  0.87043602  0.65611328  1
  Al  Al21  1  0.43239922  0.77080049  0.40131373  1
  Al  Al22  1  0.11519725  0.75957941  0.89253680  1
  Al  Al23  1  0.22088837  0.87038863  0.64651413  1
  Al  Al24  1  0.79030274  0.75683085  0.40087011  1
  Al  Al25  1  0.90206113  0.86915956  0.13696518  1
  Al  Al26  1  0.44442377  0.75442414  0.90000906  1
  Al  Al27  1  0.55702641  0.87401943  0.64820963  1
  Gd  Gd28  1  0.21473723  0.20940069  0.17397035  1
  Gd  Gd29  1  0.55752987  0.20548399  0.13319622  1
  Gd  Gd30  1  0.12238705  0.09206079  0.88619211  1
  Gd  Gd31  1  0.77569105  0.08978827  0.40325730  1
  Gd  Gd32  1  0.20687739  0.54982756  0.15004665  1
  Gd  Gd33  1  0.78041908  0.43471608  0.37734469  1
  Gd  Gd34  1  0.55462412  0.54338367  0.64822454  1
  Gd  Gd35  1  0.56558881  0.86221261  0.14237440  1
  N  N36  1  0.21914176  0.20493533  0.40005608  1
  N  N37  1  0.10905716  0.08052113  0.09865817  1
  N  N38  1  0.86404080  0.22428634  0.84124954  1
  N  N39  1  0.77646318  0.09532809  0.61858348  1
  N  N40  1  0.51745230  0.21864002  0.34984412  1
  N  N41  1  0.42864629  0.09412788  0.05828870  1
  N  N42  1  0.23754307  0.22377447  0.81617047  1
  N  N43  1  0.10454982  0.09106500  0.60625007  1
  N  N44  1  0.91970818  0.18549689  0.32651306  1
  N  N45  1  0.80683467  0.07980074  0.07875965  1
  N  N46  1  0.55880777  0.20706310  0.84841695  1
  N  N47  1  0.45501237  0.08992369  0.60553024  1
  N  N48  1  0.21603737  0.54086020  0.36961418  1
  N  N49  1  0.08982258  0.42556839  0.06220025  1
  N  N50  1  0.88555636  0.53964428  0.83702086  1
  N  N51  1  0.80708129  0.41363715  0.59279471  1
  N  N52  1  0.51662051  0.55387202  0.33994860  1
  N  N53  1  0.44483496  0.44516781  0.07228383  1
  N  N54  1  0.22043834  0.54240893  0.83959174  1
  N  N55  1  0.10263420  0.43928703  0.60022315  1
  N  N56  1  0.91507064  0.55047611  0.32339221  1
  N  N57  1  0.77440591  0.43315025  0.10227568  1
  N  N58  1  0.56075552  0.53853100  0.86134557  1
  N  N59  1  0.42962304  0.41306192  0.59678511  1
  N  N60  1  0.21790021  0.87323572  0.34438504  1
  N  N61  1  0.10433289  0.78637937  0.07437079  1
  N  N62  1  0.89376149  0.87009348  0.83757338  1
  N  N63  1  0.78222004  0.75911274  0.59069302  1
  N  N64  1  0.55961511  0.87247713  0.36214458  1
  N  N65  1  0.42369427  0.75595490  0.08455301  1
  N  N66  1  0.24272319  0.83732237  0.82530489  1
  N  N67  1  0.10673145  0.76490609  0.59190719  1
  N  N68  1  0.90685455  0.84649558  0.32651491  1
  N  N69  1  0.81248322  0.74883397  0.07277168  1
  N  N70  1  0.56012919  0.86517634  0.83920501  1
  N  N71  1  0.42718825  0.79387688  0.58187375  1
