# generated using pymatgen
data_Gd2Al7N9
_symmetry_space_group_name_H-M   'P 1'
_cell_length_a   9.75873082
_cell_length_b   9.81400945
_cell_length_c   11.02399910
_cell_angle_alpha   89.54763010
_cell_angle_beta   89.33382063
_cell_angle_gamma   60.06164578
_symmetry_Int_Tables_number   1
_chemical_formula_structural   Gd2Al7N9
_chemical_formula_sum   'Gd8 Al28 N36'
_cell_volume   914.84692050
_cell_formula_units_Z   4
loop_
 _symmetry_equiv_pos_site_id
 _symmetry_equiv_pos_as_xyz
  1  'x, y, z'
loop_
 _atom_site_type_symbol
 _atom_site_label
 _atom_site_symmetry_multiplicity
 _atom_site_fract_x
 _atom_site_fract_y
 _atom_site_fract_z
 _atom_site_occupancy
  Al  Al0  1  0.12769295  0.08745553  0.41692198  1
  Al  Al1  1  0.77084506  0.09607640  0.80487186  1
  Al  Al2  1  0.89671767  0.20336836  0.58146147  1
  Al  Al3  1  0.44249535  0.09695456  0.41446418  1
  Al  Al4  1  0.23334535  0.20718234  0.64184084  1
  Al  Al5  1  0.87433128  0.20725594  0.05350471  1
  Al  Al6  1  0.44626253  0.08687697  0.87268886  1
  Al  Al7  1  0.55450467  0.21002504  0.57827579  1
  Al  Al8  1  0.12572191  0.42683431  0.42207719  1
  Al  Al9  1  0.77587544  0.42131208  0.81903376  1
  Al  Al10  1  0.89681595  0.53199738  0.59348794  1
  Al  Al11  1  0.43784545  0.44165851  0.32983224  1
  Al  Al12  1  0.54382466  0.54081332  0.06106131  1
  Al  Al13  1  0.11896586  0.42274821  0.87424476  1
  Al  Al14  1  0.21348200  0.54168134  0.64927143  1
  Al  Al15  1  0.88182836  0.52914561  0.03124589  1
  Al  Al16  1  0.44420573  0.41757207  0.81080419  1
  Al  Al17  1  0.12707029  0.75240762  0.41327272  1
  Al  Al18  1  0.21164533  0.87509048  0.12960962  1
  Al  Al19  1  0.77824517  0.75956627  0.86340083  1
  Al  Al20  1  0.89383409  0.87392294  0.58709992  1
  Al  Al21  1  0.43380406  0.78307437  0.39908977  1
  Al  Al22  1  0.12319403  0.75223789  0.87494698  1
  Al  Al23  1  0.22906939  0.86911958  0.64121699  1
  Al  Al24  1  0.77478906  0.76320215  0.42337976  1
  Al  Al25  1  0.88707403  0.88597206  0.03376350  1
  Al  Al26  1  0.44440360  0.75344881  0.88213220  1
  Al  Al27  1  0.55209621  0.88021329  0.64480029  1
  Gd  Gd28  1  0.21243768  0.20241633  0.15464990  1
  Gd  Gd29  1  0.54970866  0.22597016  0.05581962  1
  Gd  Gd30  1  0.11924494  0.08443930  0.87033209  1
  Gd  Gd31  1  0.78910830  0.08285688  0.32458954  1
  Gd  Gd32  1  0.17000896  0.57124610  0.15011864  1
  Gd  Gd33  1  0.78529698  0.43519627  0.31352173  1
  Gd  Gd34  1  0.55617618  0.54009538  0.58620307  1
  Gd  Gd35  1  0.57264148  0.85386715  0.14116667  1
  N  N36  1  0.22502688  0.20763889  0.36985479  1
  N  N37  1  0.09269428  0.08660870  0.08033499  1
  N  N38  1  0.85376830  0.21488098  0.87897700  1
  N  N39  1  0.78015286  0.09680408  0.62885920  1
  N  N40  1  0.53505678  0.22991828  0.39770577  1
  N  N41  1  0.43681072  0.08144055  0.04939633  1
  N  N42  1  0.23998674  0.21678391  0.81278867  1
  N  N43  1  0.12240394  0.08883021  0.60110829  1
  N  N44  1  0.90767385  0.20279135  0.40798021  1
  N  N45  1  0.79528787  0.07738909  0.11582473  1
  N  N46  1  0.55542086  0.19990617  0.85155392  1
  N  N47  1  0.45086779  0.09102783  0.58895981  1
  N  N48  1  0.21627832  0.54373542  0.35857129  1
  N  N49  1  0.09987912  0.41921095  0.04810010  1
  N  N50  1  0.88531256  0.53235178  0.85668135  1
  N  N51  1  0.80973031  0.40765916  0.64684140  1
  N  N52  1  0.53382531  0.56001840  0.38140517  1
  N  N53  1  0.43881481  0.45699671  0.15355946  1
  N  N54  1  0.21424872  0.54129282  0.82739925  1
  N  N55  1  0.12062884  0.42522303  0.59533607  1
  N  N56  1  0.89967241  0.54560810  0.41003096  1
  N  N57  1  0.76946079  0.43264669  0.09826043  1
  N  N58  1  0.55347173  0.52575759  0.87257052  1
  N  N59  1  0.43430683  0.41251506  0.64114428  1
  N  N60  1  0.21938183  0.87839140  0.33299533  1
  N  N61  1  0.10607371  0.78719969  0.04847015  1
  N  N62  1  0.88862764  0.87850199  0.85423218  1
  N  N63  1  0.77442934  0.76221117  0.60433171  1
  N  N64  1  0.56343400  0.87901196  0.35529346  1
  N  N65  1  0.42311402  0.76181062  0.05904972  1
  N  N66  1  0.24643194  0.83347278  0.80949216  1
  N  N67  1  0.12607260  0.75595212  0.58981343  1
  N  N68  1  0.90371483  0.85222476  0.40991236  1
  N  N69  1  0.80607051  0.74655769  0.04853128  1
  N  N70  1  0.55307763  0.86579450  0.82250847  1
  N  N71  1  0.42929951  0.80159073  0.57318539  1
