# generated using pymatgen
data_Gd2Al7N9
_symmetry_space_group_name_H-M   'P 1'
_cell_length_a   9.86973064
_cell_length_b   9.83096272
_cell_length_c   10.76371796
_cell_angle_alpha   89.50053266
_cell_angle_beta   89.09244261
_cell_angle_gamma   59.80654225
_symmetry_Int_Tables_number   1
_chemical_formula_structural   Gd2Al7N9
_chemical_formula_sum   'Gd8 Al28 N36'
_cell_volume   902.58834124
_cell_formula_units_Z   4
loop_
 _symmetry_equiv_pos_site_id
 _symmetry_equiv_pos_as_xyz
  1  'x, y, z'
loop_
 _atom_site_type_symbol
 _atom_site_label
 _atom_site_symmetry_multiplicity
 _atom_site_fract_x
 _atom_site_fract_y
 _atom_site_fract_z
 _atom_site_occupancy
  Al  Al0  1  0.12642830  0.08456253  0.38455162  1
  Al  Al1  1  0.77018769  0.09880495  0.78218687  1
  Al  Al2  1  0.89506119  0.20338910  0.55514758  1
  Al  Al3  1  0.44519943  0.10034023  0.32242672  1
  Al  Al4  1  0.23236422  0.20767034  0.55285673  1
  Al  Al5  1  0.87301071  0.20701277  0.02465562  1
  Al  Al6  1  0.44351217  0.10302791  0.78755196  1
  Al  Al7  1  0.55000920  0.20481996  0.55363350  1
  Al  Al8  1  0.10302762  0.43880788  0.32114887  1
  Al  Al9  1  0.77689533  0.42630738  0.80426611  1
  Al  Al10  1  0.90579272  0.52634420  0.57266626  1
  Al  Al11  1  0.44256845  0.43719437  0.30748199  1
  Al  Al12  1  0.54591611  0.53674413  0.03396173  1
  Al  Al13  1  0.12074599  0.42880130  0.79319725  1
  Al  Al14  1  0.22393509  0.53040414  0.54912524  1
  Al  Al15  1  0.88491988  0.53737542  0.02912475  1
  Al  Al16  1  0.43547522  0.42539501  0.78773802  1
  Al  Al17  1  0.11585368  0.75906049  0.33750803  1
  Al  Al18  1  0.20747669  0.87892038  0.11675649  1
  Al  Al19  1  0.77875974  0.76227823  0.84560254  1
  Al  Al20  1  0.89550214  0.87214638  0.56476482  1
  Al  Al21  1  0.44048308  0.77492470  0.38013180  1
  Al  Al22  1  0.11487091  0.75002429  0.78219221  1
  Al  Al23  1  0.23232721  0.86575995  0.61228857  1
  Al  Al24  1  0.77936679  0.75849506  0.40491467  1
  Al  Al25  1  0.89789343  0.88109265  0.02384677  1
  Al  Al26  1  0.43589717  0.76157098  0.86022518  1
  Al  Al27  1  0.55585589  0.87208805  0.62236692  1
  Gd  Gd28  1  0.20824933  0.20898656  0.07594499  1
  Gd  Gd29  1  0.54774091  0.20813132  0.03678004  1
  Gd  Gd30  1  0.10851593  0.09990791  0.81762727  1
  Gd  Gd31  1  0.78763974  0.08144654  0.29914913  1
  Gd  Gd32  1  0.20111833  0.55187253  0.06322103  1
  Gd  Gd33  1  0.79350365  0.43494641  0.28527854  1
  Gd  Gd34  1  0.56472758  0.53232954  0.57123291  1
  Gd  Gd35  1  0.57319989  0.83759045  0.12702426  1
  N  N36  1  0.22569622  0.20977855  0.37115040  1
  N  N37  1  0.09049597  0.07842829  0.04318126  1
  N  N38  1  0.85009454  0.21801444  0.85107940  1
  N  N39  1  0.77841106  0.09742962  0.60179597  1
  N  N40  1  0.53539949  0.22207159  0.37514018  1
  N  N41  1  0.44817380  0.09103329  0.14828814  1
  N  N42  1  0.24427200  0.22428702  0.86241993  1
  N  N43  1  0.12132729  0.08676730  0.57510947  1
  N  N44  1  0.90948263  0.20011885  0.37774481  1
  N  N45  1  0.79082315  0.08626277  0.08749849  1
  N  N46  1  0.55555223  0.20301678  0.82545129  1
  N  N47  1  0.44360162  0.09607459  0.60792663  1
  N  N48  1  0.22525733  0.53707522  0.36385483  1
  N  N49  1  0.04700502  0.45332156  0.14910354  1
  N  N50  1  0.90195198  0.52480330  0.84778074  1
  N  N51  1  0.81789214  0.40457906  0.62759599  1
  N  N52  1  0.54086862  0.55247242  0.35914656  1
  N  N53  1  0.45283917  0.44279280  0.12889567  1
  N  N54  1  0.21905117  0.54273797  0.84401001  1
  N  N55  1  0.12137618  0.42137766  0.61381171  1
  N  N56  1  0.90484264  0.54094062  0.39743633  1
  N  N57  1  0.76500535  0.43750582  0.06737462  1
  N  N58  1  0.55123215  0.53272026  0.84090611  1
  N  N59  1  0.42768151  0.41502856  0.61229146  1
  N  N60  1  0.22839927  0.87784365  0.31290848  1
  N  N61  1  0.08113713  0.79127428  0.12013513  1
  N  N62  1  0.89668006  0.87743123  0.83362765  1
  N  N63  1  0.77742962  0.76076946  0.58928048  1
  N  N64  1  0.57211424  0.86483033  0.34222226  1
  N  N65  1  0.41237448  0.76009085  0.03841379  1
  N  N66  1  0.24109491  0.84186552  0.78668729  1
  N  N67  1  0.11816416  0.75275948  0.59454338  1
  N  N68  1  0.90662198  0.84877880  0.38821816  1
  N  N69  1  0.79884180  0.75831663  0.02557058  1
  N  N70  1  0.55246745  0.86807391  0.80614452  1
  N  N71  1  0.43373249  0.79395598  0.55503620  1
