# generated using pymatgen
data_Gd2Al7N9
_symmetry_space_group_name_H-M   'P 1'
_cell_length_a   9.73646697
_cell_length_b   9.79216958
_cell_length_c   11.12581656
_cell_angle_alpha   90.31272369
_cell_angle_beta   89.94359352
_cell_angle_gamma   59.93931149
_symmetry_Int_Tables_number   1
_chemical_formula_structural   Gd2Al7N9
_chemical_formula_sum   'Gd8 Al28 N36'
_cell_volume   918.05025961
_cell_formula_units_Z   4
loop_
 _symmetry_equiv_pos_site_id
 _symmetry_equiv_pos_as_xyz
  1  'x, y, z'
loop_
 _atom_site_type_symbol
 _atom_site_label
 _atom_site_symmetry_multiplicity
 _atom_site_fract_x
 _atom_site_fract_y
 _atom_site_fract_z
 _atom_site_occupancy
  Al  Al0  1  0.12474831  0.08160670  0.40980881  1
  Al  Al1  1  0.77872783  0.09613116  0.79568294  1
  Al  Al2  1  0.89532487  0.20122939  0.57012042  1
  Al  Al3  1  0.44428037  0.09225499  0.40414838  1
  Al  Al4  1  0.21906228  0.21212825  0.62203679  1
  Al  Al5  1  0.87038033  0.21037993  0.04148960  1
  Al  Al6  1  0.45431865  0.09835253  0.78481739  1
  Al  Al7  1  0.55830666  0.20930668  0.56853100  1
  Al  Al8  1  0.12508318  0.42790325  0.41418373  1
  Al  Al9  1  0.78149431  0.42101359  0.80729243  1
  Al  Al10  1  0.89649680  0.53098134  0.58237292  1
  Al  Al11  1  0.43923767  0.43492566  0.31814368  1
  Al  Al12  1  0.54734963  0.53773109  0.04748646  1
  Al  Al13  1  0.11949272  0.42804025  0.86208544  1
  Al  Al14  1  0.21336676  0.54355894  0.64180023  1
  Al  Al15  1  0.88376933  0.53343914  0.01942174  1
  Al  Al16  1  0.44744075  0.42128836  0.80080005  1
  Al  Al17  1  0.12760858  0.74914660  0.40211493  1
  Al  Al18  1  0.21194814  0.87817838  0.11880621  1
  Al  Al19  1  0.77527782  0.76490266  0.85618963  1
  Al  Al20  1  0.89509625  0.87326816  0.57488469  1
  Al  Al21  1  0.43178740  0.77860338  0.39279213  1
  Al  Al22  1  0.12202784  0.75800579  0.86662342  1
  Al  Al23  1  0.22665132  0.86970429  0.63451181  1
  Al  Al24  1  0.77798129  0.75783599  0.41415598  1
  Al  Al25  1  0.88424926  0.89016657  0.02340028  1
  Al  Al26  1  0.44645725  0.75587402  0.87124809  1
  Al  Al27  1  0.55938487  0.86534103  0.62841131  1
  Gd  Gd28  1  0.18749954  0.22128074  0.16596140  1
  Gd  Gd29  1  0.53313894  0.21620974  0.04248518  1
  Gd  Gd30  1  0.13326218  0.08817809  0.87347047  1
  Gd  Gd31  1  0.78448840  0.07947543  0.30871318  1
  Gd  Gd32  1  0.17817517  0.57008064  0.13499793  1
  Gd  Gd33  1  0.78159599  0.43160078  0.30132010  1
  Gd  Gd34  1  0.55777470  0.53435596  0.57417635  1
  Gd  Gd35  1  0.57355655  0.84445022  0.14525435  1
  N  N36  1  0.22389422  0.20358601  0.37927915  1
  N  N37  1  0.08949517  0.09015930  0.07720356  1
  N  N38  1  0.86532033  0.21369518  0.86715361  1
  N  N39  1  0.78209227  0.09522286  0.62020888  1
  N  N40  1  0.53519361  0.22537113  0.39444196  1
  N  N41  1  0.42925365  0.08853147  0.11575273  1
  N  N42  1  0.23622779  0.22553994  0.79239899  1
  N  N43  1  0.11984260  0.08578241  0.58811795  1
  N  N44  1  0.90328103  0.19893811  0.39657457  1
  N  N45  1  0.78617484  0.08633048  0.10029630  1
  N  N46  1  0.55921002  0.20064724  0.83677144  1
  N  N47  1  0.45486813  0.08866767  0.59696438  1
  N  N48  1  0.21618484  0.53921714  0.34369312  1
  N  N49  1  0.10527049  0.41937023  0.03317316  1
  N  N50  1  0.88548100  0.53694341  0.84589784  1
  N  N51  1  0.81198732  0.40618652  0.63611645  1
  N  N52  1  0.53210625  0.55570930  0.37183882  1
  N  N53  1  0.44952173  0.44798233  0.14151029  1
  N  N54  1  0.21670579  0.54546017  0.81769176  1
  N  N55  1  0.11842277  0.43081225  0.58431604  1
  N  N56  1  0.89954633  0.53991303  0.39803574  1
  N  N57  1  0.77247480  0.43688153  0.08711696  1
  N  N58  1  0.55812457  0.52703704  0.86037538  1
  N  N59  1  0.43446923  0.41166208  0.63272504  1
  N  N60  1  0.21934796  0.87460341  0.32489476  1
  N  N61  1  0.10420180  0.79059471  0.03895134  1
  N  N62  1  0.88880022  0.88020202  0.84495795  1
  N  N63  1  0.77876970  0.75865702  0.59120768  1
  N  N64  1  0.56399846  0.87155831  0.35853024  1
  N  N65  1  0.42210860  0.76192787  0.04625796  1
  N  N66  1  0.24429870  0.83996061  0.80136152  1
  N  N67  1  0.12673438  0.75458996  0.57842510  1
  N  N68  1  0.90323940  0.85068507  0.39849120  1
  N  N69  1  0.79989639  0.75417879  0.03703610  1
  N  N70  1  0.55298070  0.86916597  0.80570196  1
  N  N71  1  0.42742751  0.79609538  0.56501661  1
