# generated using pymatgen
data_Gd2Al7N9
_symmetry_space_group_name_H-M   'P 1'
_cell_length_a   9.86995017
_cell_length_b   9.86180989
_cell_length_c   10.65821050
_cell_angle_alpha   90.27770907
_cell_angle_beta   89.23921728
_cell_angle_gamma   60.18429095
_symmetry_Int_Tables_number   1
_chemical_formula_structural   Gd2Al7N9
_chemical_formula_sum   'Gd8 Al28 N36'
_cell_volume   899.94074500
_cell_formula_units_Z   4
loop_
 _symmetry_equiv_pos_site_id
 _symmetry_equiv_pos_as_xyz
  1  'x, y, z'
loop_
 _atom_site_type_symbol
 _atom_site_label
 _atom_site_symmetry_multiplicity
 _atom_site_fract_x
 _atom_site_fract_y
 _atom_site_fract_z
 _atom_site_occupancy
  Al  Al0  1  0.13146669  0.07894282  0.42729832  1
  Al  Al1  1  0.77341507  0.10026398  0.82392217  1
  Al  Al2  1  0.90075206  0.20578558  0.59665745  1
  Al  Al3  1  0.44506854  0.09110722  0.42171731  1
  Al  Al4  1  0.23227979  0.20879512  0.64645739  1
  Al  Al5  1  0.87569972  0.20287777  0.07192839  1
  Al  Al6  1  0.44465256  0.09866672  0.89004593  1
  Al  Al7  1  0.54429809  0.20634141  0.65667989  1
  Al  Al8  1  0.11266428  0.42603607  0.42920918  1
  Al  Al9  1  0.77848343  0.42409094  0.83863690  1
  Al  Al10  1  0.89823045  0.53943817  0.65683574  1
  Al  Al11  1  0.42912783  0.42499986  0.42161066  1
  Al  Al12  1  0.55334781  0.54443334  0.05238465  1
  Al  Al13  1  0.12241689  0.43023417  0.88306819  1
  Al  Al14  1  0.21599733  0.54131183  0.65360916  1
  Al  Al15  1  0.88291383  0.54339479  0.05237252  1
  Al  Al16  1  0.43551416  0.43115363  0.88508258  1
  Al  Al17  1  0.12122103  0.74780548  0.40847299  1
  Al  Al18  1  0.20908846  0.87994491  0.14571652  1
  Al  Al19  1  0.77674652  0.77804820  0.88755763  1
  Al  Al20  1  0.89822072  0.86369672  0.65299310  1
  Al  Al21  1  0.43862210  0.76912514  0.41242904  1
  Al  Al22  1  0.11105055  0.76327818  0.89505265  1
  Al  Al23  1  0.22462227  0.86895683  0.65055919  1
  Al  Al24  1  0.79474059  0.74222498  0.41227325  1
  Al  Al25  1  0.89852102  0.86953827  0.14977001  1
  Al  Al26  1  0.43921360  0.76805340  0.88796429  1
  Al  Al27  1  0.55642265  0.87928920  0.64975090  1
  Gd  Gd28  1  0.20094405  0.21533007  0.16824884  1
  Gd  Gd29  1  0.54891722  0.21415561  0.14243776  1
  Gd  Gd30  1  0.11678202  0.09425118  0.87471155  1
  Gd  Gd31  1  0.78437026  0.07419310  0.38863558  1
  Gd  Gd32  1  0.20313107  0.55643238  0.15526886  1
  Gd  Gd33  1  0.77588591  0.42384804  0.32384942  1
  Gd  Gd34  1  0.55444454  0.54269516  0.62493517  1
  Gd  Gd35  1  0.56217796  0.85768039  0.15112132  1
  N  N36  1  0.22716087  0.19866501  0.38954717  1
  N  N37  1  0.09421526  0.08923323  0.09126774  1
  N  N38  1  0.85275844  0.21786588  0.89392912  1
  N  N39  1  0.77919184  0.09685667  0.63481605  1
  N  N40  1  0.52312330  0.21842993  0.35656683  1
  N  N41  1  0.43058198  0.09043890  0.06589144  1
  N  N42  1  0.24216023  0.22348457  0.82387010  1
  N  N43  1  0.12246906  0.08776989  0.61937236  1
  N  N44  1  0.91652557  0.19483724  0.42072606  1
  N  N45  1  0.80222607  0.08905794  0.15944225  1
  N  N46  1  0.55182027  0.20839091  0.83906739  1
  N  N47  1  0.45380758  0.09071071  0.60033350  1
  N  N48  1  0.22246215  0.53078127  0.37190588  1
  N  N49  1  0.09505433  0.43268110  0.05838303  1
  N  N50  1  0.88795544  0.54727519  0.85429682  1
  N  N51  1  0.81248348  0.40747230  0.66140460  1
  N  N52  1  0.52894212  0.54826958  0.40214582  1
  N  N53  1  0.43837510  0.44683360  0.06097730  1
  N  N54  1  0.21795080  0.54863973  0.83550026  1
  N  N55  1  0.11051392  0.43143451  0.60914162  1
  N  N56  1  0.90803239  0.53258936  0.37691361  1
  N  N57  1  0.76844617  0.44133926  0.09937224  1
  N  N58  1  0.55737735  0.54361313  0.86266984  1
  N  N59  1  0.42556726  0.41122097  0.60328673  1
  N  N60  1  0.22576501  0.87026225  0.34180523  1
  N  N61  1  0.09588650  0.79166423  0.07326870  1
  N  N62  1  0.89436283  0.87408130  0.83212439  1
  N  N63  1  0.78344709  0.76012980  0.60119493  1
  N  N64  1  0.56739695  0.86718384  0.36827630  1
  N  N65  1  0.41904792  0.76221858  0.06944551  1
  N  N66  1  0.23847663  0.83947961  0.82489063  1
  N  N67  1  0.11267265  0.76286748  0.59087720  1
  N  N68  1  0.92123621  0.82043448  0.33108870  1
  N  N69  1  0.80206849  0.76191356  0.06598851  1
  N  N70  1  0.55640444  0.87471181  0.83546160  1
  N  N71  1  0.42798375  0.80081923  0.59005910  1
