# generated using pymatgen
data_Gd2Al7N9
_symmetry_space_group_name_H-M   'P 1'
_cell_length_a   9.89542217
_cell_length_b   9.85316518
_cell_length_c   10.62045976
_cell_angle_alpha   89.23971529
_cell_angle_beta   89.02342689
_cell_angle_gamma   59.90007098
_symmetry_Int_Tables_number   1
_chemical_formula_structural   Gd2Al7N9
_chemical_formula_sum   'Gd8 Al28 N36'
_cell_volume   895.72828652
_cell_formula_units_Z   4
loop_
 _symmetry_equiv_pos_site_id
 _symmetry_equiv_pos_as_xyz
  1  'x, y, z'
loop_
 _atom_site_type_symbol
 _atom_site_label
 _atom_site_symmetry_multiplicity
 _atom_site_fract_x
 _atom_site_fract_y
 _atom_site_fract_z
 _atom_site_occupancy
  Al  Al0  1  0.12716474  0.08572373  0.38457922  1
  Al  Al1  1  0.77191067  0.09421787  0.78465975  1
  Al  Al2  1  0.89464418  0.20522334  0.55710257  1
  Al  Al3  1  0.44416322  0.10434360  0.32289817  1
  Al  Al4  1  0.23036232  0.21041131  0.55547576  1
  Al  Al5  1  0.87576217  0.20368095  0.02564009  1
  Al  Al6  1  0.44925825  0.08972698  0.78857290  1
  Al  Al7  1  0.54768310  0.20820555  0.55853711  1
  Al  Al8  1  0.10792180  0.43487090  0.32039904  1
  Al  Al9  1  0.77820337  0.42748749  0.80667533  1
  Al  Al10  1  0.90086676  0.53634062  0.56786341  1
  Al  Al11  1  0.44095518  0.43805137  0.30899753  1
  Al  Al12  1  0.54881906  0.52997036  0.03482372  1
  Al  Al13  1  0.11970834  0.42989863  0.79321913  1
  Al  Al14  1  0.21882994  0.53766171  0.54638715  1
  Al  Al15  1  0.88826207  0.53947126  0.03625458  1
  Al  Al16  1  0.43400817  0.42361366  0.78753214  1
  Al  Al17  1  0.11055870  0.76179209  0.31203363  1
  Al  Al18  1  0.20812579  0.87969693  0.11901030  1
  Al  Al19  1  0.77559305  0.76272661  0.80273727  1
  Al  Al20  1  0.89334755  0.86694250  0.55907633  1
  Al  Al21  1  0.43661598  0.77303196  0.37318642  1
  Al  Al22  1  0.11173565  0.74921321  0.78571518  1
  Al  Al23  1  0.22839492  0.86530114  0.61163813  1
  Al  Al24  1  0.79634422  0.75536793  0.33220139  1
  Al  Al25  1  0.89623991  0.87538826  0.04014866  1
  Al  Al26  1  0.43401033  0.75844515  0.86218142  1
  Al  Al27  1  0.56074734  0.87943386  0.55365118  1
  Gd  Gd28  1  0.21209158  0.20412215  0.07308429  1
  Gd  Gd29  1  0.55158886  0.20425999  0.03565602  1
  Gd  Gd30  1  0.10884580  0.09739289  0.81597329  1
  Gd  Gd31  1  0.78206509  0.09108100  0.30553175  1
  Gd  Gd32  1  0.20537895  0.55208491  0.06499065  1
  Gd  Gd33  1  0.79105869  0.43667340  0.28571660  1
  Gd  Gd34  1  0.56191608  0.53733362  0.57595781  1
  Gd  Gd35  1  0.56161902  0.84913421  0.08683014  1
  N  N36  1  0.22596479  0.21077878  0.37252871  1
  N  N37  1  0.09222739  0.07461431  0.04134223  1
  N  N38  1  0.85004677  0.21727803  0.84966829  1
  N  N39  1  0.78028932  0.09360909  0.60062859  1
  N  N40  1  0.53110384  0.22673607  0.37818891  1
  N  N41  1  0.44953127  0.09083703  0.14974918  1
  N  N42  1  0.24421476  0.22225746  0.85633296  1
  N  N43  1  0.12031577  0.08715387  0.57639102  1
  N  N44  1  0.91109730  0.20308099  0.37781007  1
  N  N45  1  0.79267560  0.08547480  0.09254610  1
  N  N46  1  0.55546280  0.20033261  0.82071114  1
  N  N47  1  0.44562319  0.09141544  0.60601745  1
  N  N48  1  0.22248736  0.54255227  0.35943981  1
  N  N49  1  0.06226940  0.44147465  0.14645535  1
  N  N50  1  0.89813880  0.53518789  0.85305517  1
  N  N51  1  0.81800278  0.40880839  0.62587003  1
  N  N52  1  0.54040945  0.55251197  0.35794062  1
  N  N53  1  0.45665283  0.43472111  0.12863003  1
  N  N54  1  0.21987537  0.54075125  0.84652816  1
  N  N55  1  0.11750284  0.42609567  0.61106387  1
  N  N56  1  0.90336841  0.55010438  0.39047869  1
  N  N57  1  0.76860861  0.43412690  0.06669828  1
  N  N58  1  0.55245356  0.53081503  0.83874999  1
  N  N59  1  0.42321731  0.41988392  0.61051955  1
  N  N60  1  0.22848575  0.88274911  0.30900345  1
  N  N61  1  0.08299579  0.79085332  0.13434117  1
  N  N62  1  0.89394235  0.87115710  0.84935789  1
  N  N63  1  0.77636613  0.76237046  0.61766377  1
  N  N64  1  0.57303865  0.87263764  0.36200327  1
  N  N65  1  0.40583133  0.74710492  0.04129276  1
  N  N66  1  0.24042897  0.83963369  0.78809690  1
  N  N67  1  0.11021822  0.75431285  0.60204736  1
  N  N68  1  0.90756255  0.84939306  0.38213517  1
  N  N69  1  0.81525744  0.74560647  0.09455010  1
  N  N70  1  0.55328249  0.87220008  0.85221467  1
  N  N71  1  0.42755563  0.79600678  0.55069304  1
