# generated using pymatgen
data_Gd2Al7N9
_symmetry_space_group_name_H-M   'P 1'
_cell_length_a   9.88406957
_cell_length_b   9.83890205
_cell_length_c   10.76546862
_cell_angle_alpha   89.51518266
_cell_angle_beta   89.09063891
_cell_angle_gamma   59.78049961
_symmetry_Int_Tables_number   1
_chemical_formula_structural   Gd2Al7N9
_chemical_formula_sum   'Gd8 Al28 N36'
_cell_volume   904.53711755
_cell_formula_units_Z   4
loop_
 _symmetry_equiv_pos_site_id
 _symmetry_equiv_pos_as_xyz
  1  'x, y, z'
loop_
 _atom_site_type_symbol
 _atom_site_label
 _atom_site_symmetry_multiplicity
 _atom_site_fract_x
 _atom_site_fract_y
 _atom_site_fract_z
 _atom_site_occupancy
  Al  Al0  1  0.12634331  0.08432891  0.38389440  1
  Al  Al1  1  0.76941718  0.09974274  0.78128337  1
  Al  Al2  1  0.89547231  0.20360778  0.55513913  1
  Al  Al3  1  0.44484819  0.10066198  0.32270881  1
  Al  Al4  1  0.23231632  0.20715566  0.55280665  1
  Al  Al5  1  0.87356655  0.20648354  0.02517734  1
  Al  Al6  1  0.44344846  0.10312260  0.78745997  1
  Al  Al7  1  0.54996961  0.20467669  0.55346389  1
  Al  Al8  1  0.10201547  0.43928922  0.32148952  1
  Al  Al9  1  0.77676799  0.42607954  0.80459501  1
  Al  Al10  1  0.90567076  0.52638304  0.57284958  1
  Al  Al11  1  0.44245872  0.43740584  0.30732650  1
  Al  Al12  1  0.54605380  0.53727947  0.03419804  1
  Al  Al13  1  0.12059120  0.42870220  0.79324760  1
  Al  Al14  1  0.22672628  0.52634808  0.54958252  1
  Al  Al15  1  0.88396134  0.53766844  0.02915435  1
  Al  Al16  1  0.43621068  0.42491641  0.78805027  1
  Al  Al17  1  0.12096325  0.75906298  0.37340701  1
  Al  Al18  1  0.20763332  0.87794988  0.11419926  1
  Al  Al19  1  0.77745213  0.76158789  0.84429172  1
  Al  Al20  1  0.89384381  0.87310038  0.56522854  1
  Al  Al21  1  0.43972177  0.77498883  0.38000024  1
  Al  Al22  1  0.11514608  0.75309776  0.80619878  1
  Al  Al23  1  0.23219366  0.86490453  0.61262065  1
  Al  Al24  1  0.77866835  0.75855965  0.40458773  1
  Al  Al25  1  0.89346574  0.88254648  0.02063380  1
  Al  Al26  1  0.43675472  0.76146949  0.86022064  1
  Al  Al27  1  0.55549023  0.87240922  0.62168002  1
  Gd  Gd28  1  0.20817581  0.21026606  0.07612767  1
  Gd  Gd29  1  0.54814272  0.20845452  0.03740691  1
  Gd  Gd30  1  0.10812918  0.10116306  0.81756043  1
  Gd  Gd31  1  0.78709799  0.08229001  0.29991112  1
  Gd  Gd32  1  0.20224364  0.54796170  0.06641152  1
  Gd  Gd33  1  0.79372427  0.43493755  0.28486797  1
  Gd  Gd34  1  0.56481938  0.53239262  0.57125558  1
  Gd  Gd35  1  0.57302375  0.83832877  0.12761827  1
  N  N36  1  0.22544959  0.20940479  0.37130117  1
  N  N37  1  0.09081465  0.08076178  0.04373738  1
  N  N38  1  0.85025698  0.21742407  0.85120663  1
  N  N39  1  0.77839615  0.09790578  0.60135355  1
  N  N40  1  0.53484658  0.22228774  0.37553378  1
  N  N41  1  0.44824343  0.09173781  0.14862840  1
  N  N42  1  0.24415329  0.22427923  0.86188633  1
  N  N43  1  0.12158609  0.08649954  0.57574483  1
  N  N44  1  0.90971448  0.20040102  0.37808618  1
  N  N45  1  0.79124775  0.08558590  0.08840692  1
  N  N46  1  0.55568680  0.20273717  0.82566852  1
  N  N47  1  0.44351308  0.09634059  0.60784223  1
  N  N48  1  0.22573673  0.53502657  0.36317798  1
  N  N49  1  0.04343943  0.45352272  0.15040823  1
  N  N50  1  0.90206772  0.52447550  0.84758103  1
  N  N51  1  0.81794197  0.40463514  0.62793813  1
  N  N52  1  0.54055936  0.55260524  0.35954361  1
  N  N53  1  0.45504068  0.44247569  0.12927302  1
  N  N54  1  0.22036303  0.54030679  0.84472022  1
  N  N55  1  0.12137621  0.42157531  0.61404262  1
  N  N56  1  0.90420440  0.54097415  0.39804489  1
  N  N57  1  0.76485754  0.43719645  0.06675530  1
  N  N58  1  0.55106438  0.53283563  0.84052185  1
  N  N59  1  0.42863316  0.41431755  0.61298432  1
  N  N60  1  0.22597761  0.87659676  0.31225238  1
  N  N61  1  0.08786510  0.79025483  0.08634408  1
  N  N62  1  0.89360476  0.87806820  0.83010367  1
  N  N63  1  0.77771232  0.76080160  0.58960189  1
  N  N64  1  0.57098953  0.86502663  0.34296914  1
  N  N65  1  0.41462416  0.76071979  0.03797517  1
  N  N66  1  0.24027227  0.84128597  0.78648723  1
  N  N67  1  0.12315592  0.75498019  0.57271506  1
  N  N68  1  0.90375304  0.84959560  0.38628120  1
  N  N69  1  0.79662430  0.75889762  0.02404197  1
  N  N70  1  0.55172874  0.86819919  0.80516606  1
  N  N71  1  0.43339305  0.79414045  0.55537867  1
