# generated using pymatgen
data_Gd2Al7N9
_symmetry_space_group_name_H-M   'P 1'
_cell_length_a   9.95764374
_cell_length_b   9.87659103
_cell_length_c   10.50390414
_cell_angle_alpha   89.16309870
_cell_angle_beta   88.76644024
_cell_angle_gamma   59.99626461
_symmetry_Int_Tables_number   1
_chemical_formula_structural   Gd2Al7N9
_chemical_formula_sum   'Gd8 Al28 N36'
_cell_volume   894.38344838
_cell_formula_units_Z   4
loop_
 _symmetry_equiv_pos_site_id
 _symmetry_equiv_pos_as_xyz
  1  'x, y, z'
loop_
 _atom_site_type_symbol
 _atom_site_label
 _atom_site_symmetry_multiplicity
 _atom_site_fract_x
 _atom_site_fract_y
 _atom_site_fract_z
 _atom_site_occupancy
  Al  Al0  1  0.12520361  0.08794168  0.38919975  1
  Al  Al1  1  0.77082628  0.09314830  0.78466196  1
  Al  Al2  1  0.89422414  0.20932186  0.55946043  1
  Al  Al3  1  0.44459557  0.10114601  0.32321288  1
  Al  Al4  1  0.23113573  0.21299683  0.55591034  1
  Al  Al5  1  0.87361006  0.20313093  0.02524095  1
  Al  Al6  1  0.44824542  0.09089210  0.78888134  1
  Al  Al7  1  0.54565094  0.20885182  0.55823745  1
  Al  Al8  1  0.10717282  0.43553936  0.32055401  1
  Al  Al9  1  0.77951950  0.42894241  0.80934211  1
  Al  Al10  1  0.90060906  0.54006998  0.56404518  1
  Al  Al11  1  0.44129203  0.43843212  0.31075087  1
  Al  Al12  1  0.55188713  0.52784679  0.03041641  1
  Al  Al13  1  0.11833021  0.43219932  0.79434216  1
  Al  Al14  1  0.21818288  0.53921701  0.54533242  1
  Al  Al15  1  0.88868114  0.54150771  0.04163488  1
  Al  Al16  1  0.43201147  0.42206252  0.78831313  1
  Al  Al17  1  0.11596669  0.76634215  0.31145599  1
  Al  Al18  1  0.20180396  0.86963033  0.05382216  1
  Al  Al19  1  0.77655532  0.76381250  0.80033267  1
  Al  Al20  1  0.89467213  0.86424640  0.55368999  1
  Al  Al21  1  0.43701372  0.77175474  0.38347149  1
  Al  Al22  1  0.10872391  0.75046335  0.78794893  1
  Al  Al23  1  0.22423653  0.86669413  0.59550997  1
  Al  Al24  1  0.80056072  0.75483917  0.31130670  1
  Al  Al25  1  0.89441468  0.87202441  0.04816640  1
  Al  Al26  1  0.43884386  0.75729348  0.84954374  1
  Al  Al27  1  0.56561429  0.87771831  0.55385553  1
  Gd  Gd28  1  0.21004362  0.20056012  0.07568118  1
  Gd  Gd29  1  0.55638942  0.20041703  0.03945972  1
  Gd  Gd30  1  0.10495709  0.10405602  0.80783328  1
  Gd  Gd31  1  0.78261724  0.09481399  0.31326898  1
  Gd  Gd32  1  0.21396204  0.54244069  0.06814865  1
  Gd  Gd33  1  0.78601095  0.44101365  0.28813553  1
  Gd  Gd34  1  0.56486202  0.53310577  0.58164629  1
  Gd  Gd35  1  0.55768072  0.85025722  0.08307970  1
  N  N36  1  0.22591914  0.21049963  0.37087733  1
  N  N37  1  0.08743632  0.07812289  0.03473478  1
  N  N38  1  0.84671509  0.21824382  0.84822463  1
  N  N39  1  0.78061325  0.09348409  0.59811947  1
  N  N40  1  0.52905414  0.22637800  0.37652298  1
  N  N41  1  0.44750359  0.08944151  0.14729678  1
  N  N42  1  0.24316212  0.22355819  0.85580662  1
  N  N43  1  0.11900194  0.09334729  0.58017725  1
  N  N44  1  0.91154858  0.20870257  0.37911460  1
  N  N45  1  0.79595687  0.08230843  0.09832280  1
  N  N46  1  0.55511163  0.19992563  0.82207043  1
  N  N47  1  0.44595792  0.09133684  0.60507712  1
  N  N48  1  0.22242579  0.54295781  0.35580949  1
  N  N49  1  0.06575027  0.43987608  0.14370222  1
  N  N50  1  0.89658447  0.54062540  0.85721020  1
  N  N51  1  0.82049133  0.41197499  0.62734398  1
  N  N52  1  0.53850807  0.55290499  0.36221246  1
  N  N53  1  0.46338421  0.43238756  0.12792146  1
  N  N54  1  0.21951821  0.54095650  0.84843153  1
  N  N55  1  0.11591393  0.42904455  0.60988962  1
  N  N56  1  0.90217573  0.55374334  0.38578186  1
  N  N57  1  0.76939659  0.43449503  0.06533160  1
  N  N58  1  0.55360116  0.52929848  0.83450415  1
  N  N59  1  0.42082121  0.41967187  0.61020155  1
  N  N60  1  0.22183838  0.87413351  0.35965544  1
  N  N61  1  0.09118633  0.78704755  0.12674702  1
  N  N62  1  0.89012375  0.87027759  0.85559348  1
  N  N63  1  0.77912287  0.76344587  0.61673568  1
  N  N64  1  0.57203293  0.87068061  0.36197553  1
  N  N65  1  0.41128979  0.74349633  0.03349728  1
  N  N66  1  0.23261115  0.84446406  0.79861545  1
  N  N67  1  0.10776825  0.75454770  0.60460472  1
  N  N68  1  0.90900165  0.84812189  0.37486844  1
  N  N69  1  0.81135231  0.74550542  0.11986557  1
  N  N70  1  0.55574841  0.87251341  0.85091444  1
  N  N71  1  0.43656210  0.79067811  0.56830151  1
