# generated using pymatgen
data_Gd2Al7N9
_symmetry_space_group_name_H-M   'P 1'
_cell_length_a   9.73708145
_cell_length_b   9.80130821
_cell_length_c   11.07074185
_cell_angle_alpha   89.88598376
_cell_angle_beta   89.62827243
_cell_angle_gamma   60.00668786
_symmetry_Int_Tables_number   1
_chemical_formula_structural   Gd2Al7N9
_chemical_formula_sum   'Gd8 Al28 N36'
_cell_volume   915.03956579
_cell_formula_units_Z   4
loop_
 _symmetry_equiv_pos_site_id
 _symmetry_equiv_pos_as_xyz
  1  'x, y, z'
loop_
 _atom_site_type_symbol
 _atom_site_label
 _atom_site_symmetry_multiplicity
 _atom_site_fract_x
 _atom_site_fract_y
 _atom_site_fract_z
 _atom_site_occupancy
  Al  Al0  1  0.12623910  0.08552513  0.40700296  1
  Al  Al1  1  0.77686035  0.09525704  0.79544314  1
  Al  Al2  1  0.89736709  0.20187974  0.57093654  1
  Al  Al3  1  0.44290748  0.09482621  0.40863679  1
  Al  Al4  1  0.22931625  0.20768460  0.62938654  1
  Al  Al5  1  0.87098430  0.20936844  0.04444754  1
  Al  Al6  1  0.44824291  0.08905213  0.84857012  1
  Al  Al7  1  0.55571867  0.20895738  0.57085857  1
  Al  Al8  1  0.12585665  0.42650742  0.41284502  1
  Al  Al9  1  0.78059135  0.41951384  0.80829434  1
  Al  Al10  1  0.89693082  0.53152131  0.58247434  1
  Al  Al11  1  0.43825485  0.43875464  0.31985030  1
  Al  Al12  1  0.54432473  0.53973918  0.05065376  1
  Al  Al13  1  0.11904126  0.42527024  0.86357703  1
  Al  Al14  1  0.21344830  0.54259582  0.64049831  1
  Al  Al15  1  0.88164786  0.53089886  0.02080644  1
  Al  Al16  1  0.44613094  0.41968653  0.80051858  1
  Al  Al17  1  0.12730779  0.75075626  0.40326048  1
  Al  Al18  1  0.21027975  0.87654273  0.12471135  1
  Al  Al19  1  0.77771288  0.76094831  0.85465044  1
  Al  Al20  1  0.89421439  0.87369818  0.57578259  1
  Al  Al21  1  0.43354666  0.78105192  0.39017299  1
  Al  Al22  1  0.12269003  0.75528158  0.86629317  1
  Al  Al23  1  0.22805965  0.87043637  0.63293526  1
  Al  Al24  1  0.77539733  0.76137969  0.41297713  1
  Al  Al25  1  0.88477470  0.88810858  0.02381627  1
  Al  Al26  1  0.44589860  0.75277297  0.87203577  1
  Al  Al27  1  0.55407032  0.87627279  0.63306510  1
  Gd  Gd28  1  0.20824812  0.20846388  0.15128196  1
  Gd  Gd29  1  0.54201390  0.22459472  0.04338357  1
  Gd  Gd30  1  0.13030377  0.08314801  0.87442417  1
  Gd  Gd31  1  0.78633352  0.08197900  0.31263041  1
  Gd  Gd32  1  0.17149770  0.57258762  0.13867414  1
  Gd  Gd33  1  0.78469772  0.43313756  0.30223532  1
  Gd  Gd34  1  0.55803751  0.53704511  0.57435343  1
  Gd  Gd35  1  0.56968146  0.85447897  0.13290271  1
  N  N36  1  0.22522630  0.20567746  0.36531681  1
  N  N37  1  0.08793749  0.09044596  0.08165316  1
  N  N38  1  0.86345461  0.21209026  0.86927834  1
  N  N39  1  0.78199870  0.09577376  0.62015487  1
  N  N40  1  0.53470555  0.22838765  0.39114159  1
  N  N41  1  0.42798960  0.08152471  0.04062888  1
  N  N42  1  0.23813044  0.22016798  0.79899424  1
  N  N43  1  0.12266546  0.08739160  0.58775986  1
  N  N44  1  0.90516591  0.20120366  0.39759126  1
  N  N45  1  0.78875844  0.08132932  0.10364508  1
  N  N46  1  0.55881641  0.20053585  0.83950927  1
  N  N47  1  0.45182986  0.08976035  0.58329370  1
  N  N48  1  0.21586267  0.54202757  0.34669191  1
  N  N49  1  0.10097144  0.42002839  0.03679039  1
  N  N50  1  0.88577025  0.53425747  0.84681372  1
  N  N51  1  0.81168088  0.40639778  0.63692249  1
  N  N52  1  0.53367222  0.55808515  0.37094207  1
  N  N53  1  0.44138954  0.45403535  0.14370833  1
  N  N54  1  0.21554521  0.54335911  0.81821314  1
  N  N55  1  0.12041132  0.42681739  0.58488425  1
  N  N56  1  0.89947276  0.54337176  0.39927535  1
  N  N57  1  0.76937460  0.43482361  0.08783714  1
  N  N58  1  0.55681456  0.52507552  0.86235119  1
  N  N59  1  0.43461901  0.41279905  0.63214197  1
  N  N60  1  0.21957754  0.87583093  0.32286163  1
  N  N61  1  0.10431056  0.79081263  0.03947704  1
  N  N62  1  0.88875358  0.87870702  0.84538647  1
  N  N63  1  0.77570856  0.76106967  0.59246224  1
  N  N64  1  0.56253197  0.87759586  0.34794703  1
  N  N65  1  0.42111538  0.76161905  0.04866290  1
  N  N66  1  0.24544213  0.83701840  0.80074367  1
  N  N67  1  0.12641641  0.75565046  0.57947696  1
  N  N68  1  0.90338296  0.85173757  0.39911791  1
  N  N69  1  0.80264804  0.74951980  0.03834753  1
  N  N70  1  0.55375990  0.86539753  0.81002564  1
  N  N71  1  0.42925551  0.79874735  0.56379137  1
