# generated using pymatgen
data_Gd2Al7N9
_symmetry_space_group_name_H-M   'P 1'
_cell_length_a   9.88968845
_cell_length_b   9.84033468
_cell_length_c   10.76072712
_cell_angle_alpha   89.53201720
_cell_angle_beta   89.13219265
_cell_angle_gamma   59.77675563
_symmetry_Int_Tables_number   1
_chemical_formula_structural   Gd2Al7N9
_chemical_formula_sum   'Gd8 Al28 N36'
_cell_volume   904.76013039
_cell_formula_units_Z   4
loop_
 _symmetry_equiv_pos_site_id
 _symmetry_equiv_pos_as_xyz
  1  'x, y, z'
loop_
 _atom_site_type_symbol
 _atom_site_label
 _atom_site_symmetry_multiplicity
 _atom_site_fract_x
 _atom_site_fract_y
 _atom_site_fract_z
 _atom_site_occupancy
  Al  Al0  1  0.12624916  0.08361680  0.38340984  1
  Al  Al1  1  0.76952381  0.09922127  0.78086643  1
  Al  Al2  1  0.89572852  0.20353587  0.55516587  1
  Al  Al3  1  0.44443956  0.10079920  0.32293736  1
  Al  Al4  1  0.23220961  0.20697630  0.55284799  1
  Al  Al5  1  0.87395974  0.20619732  0.02552936  1
  Al  Al6  1  0.44355481  0.10302871  0.78746886  1
  Al  Al7  1  0.54957287  0.20486390  0.55390523  1
  Al  Al8  1  0.10169644  0.43876344  0.32192629  1
  Al  Al9  1  0.77677979  0.42589889  0.80478387  1
  Al  Al10  1  0.90569023  0.52646989  0.57302771  1
  Al  Al11  1  0.44236160  0.43734280  0.30755494  1
  Al  Al12  1  0.54632854  0.53739003  0.03373331  1
  Al  Al13  1  0.12092816  0.42943610  0.79357041  1
  Al  Al14  1  0.22653058  0.52733844  0.54983723  1
  Al  Al15  1  0.88359794  0.53752059  0.02902644  1
  Al  Al16  1  0.43571755  0.42521539  0.78846779  1
  Al  Al17  1  0.12143688  0.75918242  0.37818643  1
  Al  Al18  1  0.20820656  0.87780284  0.11117063  1
  Al  Al19  1  0.77753470  0.76157490  0.84357164  1
  Al  Al20  1  0.89564879  0.87198741  0.56558524  1
  Al  Al21  1  0.43881527  0.77487133  0.37981906  1
  Al  Al22  1  0.11672850  0.75724749  0.83697145  1
  Al  Al23  1  0.23097789  0.86274920  0.61402085  1
  Al  Al24  1  0.77834296  0.75868730  0.40448324  1
  Al  Al25  1  0.88831059  0.88490583  0.01944833  1
  Al  Al26  1  0.43741565  0.76174769  0.85982016  1
  Al  Al27  1  0.55518165  0.87251981  0.62118526  1
  Gd  Gd28  1  0.20819311  0.21031400  0.07592750  1
  Gd  Gd29  1  0.54924625  0.20814802  0.03747295  1
  Gd  Gd30  1  0.10773163  0.10228586  0.81616855  1
  Gd  Gd31  1  0.78541900  0.08389711  0.30191356  1
  Gd  Gd32  1  0.20370071  0.54445931  0.06965403  1
  Gd  Gd33  1  0.79350412  0.43505603  0.28488176  1
  Gd  Gd34  1  0.56459250  0.53257354  0.57156335  1
  Gd  Gd35  1  0.57267360  0.83873556  0.12811300  1
  N  N36  1  0.22523510  0.20888583  0.37126780  1
  N  N37  1  0.09061599  0.08191974  0.04451221  1
  N  N38  1  0.85012067  0.21703756  0.85160848  1
  N  N39  1  0.77862465  0.09768003  0.60076718  1
  N  N40  1  0.53367974  0.22284140  0.37605234  1
  N  N41  1  0.44839239  0.09242190  0.14857225  1
  N  N42  1  0.24421602  0.22406391  0.86180316  1
  N  N43  1  0.12183532  0.08574442  0.57596661  1
  N  N44  1  0.90988177  0.20071014  0.37821910  1
  N  N45  1  0.79251270  0.08452667  0.09048850  1
  N  N46  1  0.55587645  0.20259141  0.82564550  1
  N  N47  1  0.44334786  0.09641583  0.60781306  1
  N  N48  1  0.22534350  0.53476736  0.36078724  1
  N  N49  1  0.04248507  0.45352675  0.15068255  1
  N  N50  1  0.90213126  0.52445461  0.84763647  1
  N  N51  1  0.81808762  0.40452799  0.62813084  1
  N  N52  1  0.54030578  0.55252047  0.35964808  1
  N  N53  1  0.45596718  0.44222409  0.12921025  1
  N  N54  1  0.22197339  0.53808473  0.84778230  1
  N  N55  1  0.12150001  0.42194816  0.61406350  1
  N  N56  1  0.90395103  0.54092483  0.39814270  1
  N  N57  1  0.76486923  0.43684951  0.06664271  1
  N  N58  1  0.55122437  0.53291898  0.84035830  1
  N  N59  1  0.42837532  0.41456505  0.61322273  1
  N  N60  1  0.22445847  0.87592839  0.30892946  1
  N  N61  1  0.09452948  0.78946299  0.05701129  1
  N  N62  1  0.89155839  0.87888240  0.83019297  1
  N  N63  1  0.77788399  0.76090992  0.58940006  1
  N  N64  1  0.57009774  0.86513961  0.34336424  1
  N  N65  1  0.41595855  0.76071717  0.03772699  1
  N  N66  1  0.23952949  0.84129276  0.78784471  1
  N  N67  1  0.12517763  0.75568258  0.56391316  1
  N  N68  1  0.90310423  0.84939162  0.38403194  1
  N  N69  1  0.79589147  0.75866592  0.02453410  1
  N  N70  1  0.55193329  0.86810582  0.80481284  1
  N  N71  1  0.43221784  0.79451142  0.55555690  1
