# generated using pymatgen
data_Gd2Al7N9
_symmetry_space_group_name_H-M   'P 1'
_cell_length_a   9.73137066
_cell_length_b   9.79175356
_cell_length_c   11.12505677
_cell_angle_alpha   90.17864040
_cell_angle_beta   89.86213965
_cell_angle_gamma   59.96629177
_symmetry_Int_Tables_number   1
_chemical_formula_structural   Gd2Al7N9
_chemical_formula_sum   'Gd8 Al28 N36'
_cell_volume   917.72607581
_cell_formula_units_Z   4
loop_
 _symmetry_equiv_pos_site_id
 _symmetry_equiv_pos_as_xyz
  1  'x, y, z'
loop_
 _atom_site_type_symbol
 _atom_site_label
 _atom_site_symmetry_multiplicity
 _atom_site_fract_x
 _atom_site_fract_y
 _atom_site_fract_z
 _atom_site_occupancy
  Al  Al0  1  0.12506805  0.08239573  0.40930703  1
  Al  Al1  1  0.77967290  0.09565467  0.79572552  1
  Al  Al2  1  0.89586886  0.20142390  0.57008139  1
  Al  Al3  1  0.44430715  0.09277994  0.40725458  1
  Al  Al4  1  0.21880475  0.21230969  0.62335063  1
  Al  Al5  1  0.86972418  0.20991331  0.04219411  1
  Al  Al6  1  0.45440105  0.09759560  0.78685634  1
  Al  Al7  1  0.55862992  0.20981204  0.56937742  1
  Al  Al8  1  0.12544557  0.42794859  0.41408925  1
  Al  Al9  1  0.78201774  0.42016455  0.80747641  1
  Al  Al10  1  0.89657463  0.53129069  0.58221601  1
  Al  Al11  1  0.43903140  0.43576950  0.31833146  1
  Al  Al12  1  0.54640330  0.53752577  0.04822812  1
  Al  Al13  1  0.11935536  0.42770058  0.86246668  1
  Al  Al14  1  0.21328479  0.54379567  0.64167930  1
  Al  Al15  1  0.88319329  0.53261914  0.01950980  1
  Al  Al16  1  0.44745970  0.42148358  0.80048205  1
  Al  Al17  1  0.12772423  0.74975746  0.40235634  1
  Al  Al18  1  0.21145061  0.87767715  0.12070345  1
  Al  Al19  1  0.77558803  0.76422414  0.85634521  1
  Al  Al20  1  0.89514223  0.87360117  0.57487370  1
  Al  Al21  1  0.43216226  0.77939073  0.39232544  1
  Al  Al22  1  0.12215820  0.75762562  0.86689417  1
  Al  Al23  1  0.22678503  0.87016917  0.63460971  1
  Al  Al24  1  0.77778237  0.75883544  0.41380685  1
  Al  Al25  1  0.88386287  0.88965936  0.02358491  1
  Al  Al26  1  0.44665564  0.75499258  0.87152371  1
  Al  Al27  1  0.55944735  0.86549873  0.62895487  1
  Gd  Gd28  1  0.19003447  0.21943137  0.16466497  1
  Gd  Gd29  1  0.53287134  0.21712573  0.04120226  1
  Gd  Gd30  1  0.13513964  0.08657529  0.87636011  1
  Gd  Gd31  1  0.78439901  0.08051224  0.30901962  1
  Gd  Gd32  1  0.17636101  0.57037409  0.13578983  1
  Gd  Gd33  1  0.78251476  0.43207751  0.30115001  1
  Gd  Gd34  1  0.55821336  0.53474308  0.57363410  1
  Gd  Gd35  1  0.57280298  0.84514543  0.14380361  1
  N  N36  1  0.22485100  0.20392178  0.37785150  1
  N  N37  1  0.08780922  0.09013071  0.07980660  1
  N  N38  1  0.86674133  0.21255998  0.86767476  1
  N  N39  1  0.78260730  0.09529637  0.62032123  1
  N  N40  1  0.53513188  0.22598854  0.39491364  1
  N  N41  1  0.42677424  0.08564528  0.10231914  1
  N  N42  1  0.23611356  0.22504725  0.79314781  1
  N  N43  1  0.12044539  0.08599942  0.58751127  1
  N  N44  1  0.90355003  0.19966103  0.39664175  1
  N  N45  1  0.78505168  0.08545431  0.10053306  1
  N  N46  1  0.55976067  0.20063612  0.83595022  1
  N  N47  1  0.45472252  0.08898633  0.59710597  1
  N  N48  1  0.21619077  0.54013708  0.34444030  1
  N  N49  1  0.10442328  0.41926270  0.03354901  1
  N  N50  1  0.88548196  0.53650519  0.84596277  1
  N  N51  1  0.81221424  0.40613328  0.63622660  1
  N  N52  1  0.53258563  0.55648367  0.37121623  1
  N  N53  1  0.44775833  0.44808995  0.14202783  1
  N  N54  1  0.21667741  0.54517694  0.81773191  1
  N  N55  1  0.11868659  0.43055571  0.58433807  1
  N  N56  1  0.89967828  0.54087471  0.39809763  1
  N  N57  1  0.77152441  0.43623395  0.08719430  1
  N  N58  1  0.55832314  0.52634418  0.86070477  1
  N  N59  1  0.43446914  0.41240925  0.63252041  1
  N  N60  1  0.21963210  0.87503343  0.32446942  1
  N  N61  1  0.10395038  0.79056312  0.03933233  1
  N  N62  1  0.88889732  0.87975853  0.84515028  1
  N  N63  1  0.77860850  0.75903431  0.59099908  1
  N  N64  1  0.56357822  0.87367106  0.35751030  1
  N  N65  1  0.42144444  0.76129748  0.04657417  1
  N  N66  1  0.24445613  0.83984722  0.80146956  1
  N  N67  1  0.12672883  0.75508305  0.57860120  1
  N  N68  1  0.90333668  0.85155584  0.39853078  1
  N  N69  1  0.80027877  0.75288695  0.03711607  1
  N  N70  1  0.55327812  0.86840679  0.80580939  1
  N  N71  1  0.42769499  0.79652496  0.56464770  1
