# generated using pymatgen
data_Gd2Al7N9
_symmetry_space_group_name_H-M   'P 1'
_cell_length_a   9.75857399
_cell_length_b   9.81397382
_cell_length_c   11.02422152
_cell_angle_alpha   89.55150752
_cell_angle_beta   89.33669556
_cell_angle_gamma   60.06101373
_symmetry_Int_Tables_number   1
_chemical_formula_structural   Gd2Al7N9
_chemical_formula_sum   'Gd8 Al28 N36'
_cell_volume   914.84218173
_cell_formula_units_Z   4
loop_
 _symmetry_equiv_pos_site_id
 _symmetry_equiv_pos_as_xyz
  1  'x, y, z'
loop_
 _atom_site_type_symbol
 _atom_site_label
 _atom_site_symmetry_multiplicity
 _atom_site_fract_x
 _atom_site_fract_y
 _atom_site_fract_z
 _atom_site_occupancy
  Al  Al0  1  0.12766749  0.08739299  0.40881048  1
  Al  Al1  1  0.77085467  0.09602519  0.79677166  1
  Al  Al2  1  0.89670793  0.20330670  0.57335866  1
  Al  Al3  1  0.44247541  0.09688890  0.40636911  1
  Al  Al4  1  0.23332014  0.20712275  0.63373636  1
  Al  Al5  1  0.87430770  0.20723223  0.04541655  1
  Al  Al6  1  0.44625978  0.08683236  0.86456940  1
  Al  Al7  1  0.55449190  0.20996642  0.57017761  1
  Al  Al8  1  0.12570385  0.42677088  0.41397648  1
  Al  Al9  1  0.77588445  0.42125065  0.81093148  1
  Al  Al10  1  0.89680050  0.53193905  0.58538380  1
  Al  Al11  1  0.43782222  0.44159683  0.32172479  1
  Al  Al12  1  0.54380029  0.54078376  0.05296048  1
  Al  Al13  1  0.11895580  0.42270534  0.86613962  1
  Al  Al14  1  0.21346761  0.54162901  0.64117130  1
  Al  Al15  1  0.88181372  0.52911285  0.02314144  1
  Al  Al16  1  0.44420034  0.41752664  0.80270028  1
  Al  Al17  1  0.12705177  0.75233930  0.40517106  1
  Al  Al18  1  0.21162566  0.87506137  0.12155560  1
  Al  Al19  1  0.77823638  0.75952113  0.85529746  1
  Al  Al20  1  0.89381921  0.87386763  0.57899101  1
  Al  Al21  1  0.43378874  0.78300613  0.39098288  1
  Al  Al22  1  0.12318382  0.75219979  0.86684715  1
  Al  Al23  1  0.22905128  0.86907624  0.63311630  1
  Al  Al24  1  0.77476821  0.76313658  0.41527762  1
  Al  Al25  1  0.88705325  0.88595067  0.02565406  1
  Al  Al26  1  0.44440096  0.75339469  0.87402865  1
  Al  Al27  1  0.55208362  0.88015488  0.63669499  1
  Gd  Gd28  1  0.21243512  0.20240694  0.14656667  1
  Gd  Gd29  1  0.54966930  0.22594568  0.04770878  1
  Gd  Gd30  1  0.11929007  0.08436591  0.86231222  1
  Gd  Gd31  1  0.78908094  0.08279178  0.31648153  1
  Gd  Gd32  1  0.16996713  0.57124209  0.14201192  1
  Gd  Gd33  1  0.78527717  0.43512640  0.30541494  1
  Gd  Gd34  1  0.55616404  0.54003476  0.57809465  1
  Gd  Gd35  1  0.57262703  0.85383695  0.13305788  1
  N  N36  1  0.22500550  0.20757279  0.36175937  1
  N  N37  1  0.09266578  0.08659604  0.07230627  1
  N  N38  1  0.85380556  0.21481602  0.87088066  1
  N  N39  1  0.78014437  0.09674714  0.62076116  1
  N  N40  1  0.53503103  0.22985741  0.38960382  1
  N  N41  1  0.43678241  0.08140285  0.04127512  1
  N  N42  1  0.23997140  0.21673543  0.80467899  1
  N  N43  1  0.12239432  0.08877066  0.59298392  1
  N  N44  1  0.90764201  0.20272719  0.39987883  1
  N  N45  1  0.79525121  0.07737293  0.10771669  1
  N  N46  1  0.55542217  0.19986060  0.84344900  1
  N  N47  1  0.45085487  0.09096956  0.58085973  1
  N  N48  1  0.21625299  0.54366736  0.35045998  1
  N  N49  1  0.09987121  0.41917759  0.03999184  1
  N  N50  1  0.88530181  0.53230981  0.84858049  1
  N  N51  1  0.80972080  0.40760122  0.63874304  1
  N  N52  1  0.53380771  0.55995005  0.37330416  1
  N  N53  1  0.43878375  0.45697393  0.14545568  1
  N  N54  1  0.21423864  0.54124950  0.81929746  1
  N  N55  1  0.12061609  0.42516673  0.58723169  1
  N  N56  1  0.89964965  0.54553980  0.40193154  1
  N  N57  1  0.76943883  0.43262645  0.09015718  1
  N  N58  1  0.55347209  0.52570288  0.86447391  1
  N  N59  1  0.43429606  0.41246059  0.63304550  1
  N  N60  1  0.21936183  0.87831667  0.32488010  1
  N  N61  1  0.10605666  0.78719136  0.04036525  1
  N  N62  1  0.88861618  0.87845537  0.84613058  1
  N  N63  1  0.77441697  0.76215505  0.59622433  1
  N  N64  1  0.56341137  0.87894702  0.34718680  1
  N  N65  1  0.42308946  0.76178406  0.05094719  1
  N  N66  1  0.24642247  0.83342768  0.80138594  1
  N  N67  1  0.12606099  0.75589480  0.58170625  1
  N  N68  1  0.90369298  0.85216045  0.40180496  1
  N  N69  1  0.80606251  0.74652631  0.04042866  1
  N  N70  1  0.55306811  0.86574275  0.81440029  1
  N  N71  1  0.42928508  0.80153113  0.56507705  1
