# generated using pymatgen
data_Gd2Al7N9
_symmetry_space_group_name_H-M   'P 1'
_cell_length_a   9.75647281
_cell_length_b   9.76650811
_cell_length_c   11.23730958
_cell_angle_alpha   89.62678208
_cell_angle_beta   88.86296742
_cell_angle_gamma   59.93143797
_symmetry_Int_Tables_number   1
_chemical_formula_structural   Gd2Al7N9
_chemical_formula_sum   'Gd8 Al28 N36'
_cell_volume   926.47934068
_cell_formula_units_Z   4
loop_
 _symmetry_equiv_pos_site_id
 _symmetry_equiv_pos_as_xyz
  1  'x, y, z'
loop_
 _atom_site_type_symbol
 _atom_site_label
 _atom_site_symmetry_multiplicity
 _atom_site_fract_x
 _atom_site_fract_y
 _atom_site_fract_z
 _atom_site_occupancy
  Al  Al0  1  0.13317040  0.08500507  0.42222216  1
  Al  Al1  1  0.76538466  0.09990892  0.79503132  1
  Al  Al2  1  0.89585368  0.20327759  0.57346898  1
  Al  Al3  1  0.44855757  0.09860534  0.34012104  1
  Al  Al4  1  0.23095697  0.21134514  0.62220742  1
  Al  Al5  1  0.86522009  0.21023238  0.03220227  1
  Al  Al6  1  0.45240786  0.09869808  0.78686541  1
  Al  Al7  1  0.55465369  0.20210438  0.55988341  1
  Al  Al8  1  0.13295858  0.42791494  0.41617120  1
  Al  Al9  1  0.77297889  0.42748479  0.80658651  1
  Al  Al10  1  0.89978178  0.53165628  0.58016070  1
  Al  Al11  1  0.44548101  0.43785386  0.31636541  1
  Al  Al12  1  0.54623415  0.53370909  0.04159741  1
  Al  Al13  1  0.11758030  0.42813479  0.86526172  1
  Al  Al14  1  0.21577433  0.54049311  0.64150030  1
  Al  Al15  1  0.88168665  0.53295198  0.02226200  1
  Al  Al16  1  0.44454467  0.41765197  0.80061683  1
  Al  Al17  1  0.13511177  0.75323846  0.41035949  1
  Al  Al18  1  0.20923375  0.87580339  0.06581645  1
  Al  Al19  1  0.77022431  0.76425155  0.85845701  1
  Al  Al20  1  0.89562073  0.87467260  0.57677837  1
  Al  Al21  1  0.43808059  0.78163460  0.40201461  1
  Al  Al22  1  0.11414836  0.75549198  0.85906753  1
  Al  Al23  1  0.23210888  0.86392119  0.63430195  1
  Al  Al24  1  0.78277134  0.76130234  0.41516665  1
  Al  Al25  1  0.87787298  0.88982422  0.02081366  1
  Al  Al26  1  0.44480122  0.75578172  0.86447303  1
  Al  Al27  1  0.56290408  0.86580474  0.63170140  1
  Gd  Gd28  1  0.17121576  0.21278494  0.16642265  1
  Gd  Gd29  1  0.52860512  0.21134213  0.05352513  1
  Gd  Gd30  1  0.10901974  0.10099707  0.84063691  1
  Gd  Gd31  1  0.80208187  0.07924346  0.30863713  1
  Gd  Gd32  1  0.17457233  0.57165460  0.14524585  1
  Gd  Gd33  1  0.78789019  0.43721041  0.30251105  1
  Gd  Gd34  1  0.56449831  0.52433726  0.57067463  1
  Gd  Gd35  1  0.56718894  0.83592739  0.14837613  1
  N  N36  1  0.22842511  0.20656809  0.38003703  1
  N  N37  1  0.09018880  0.08840235  0.04875642  1
  N  N38  1  0.84520361  0.22168512  0.86347195  1
  N  N39  1  0.77874575  0.09806463  0.62005199  1
  N  N40  1  0.54455802  0.22175226  0.38545500  1
  N  N41  1  0.43017946  0.09412054  0.16636499  1
  N  N42  1  0.23443972  0.22888369  0.79566793  1
  N  N43  1  0.12140013  0.08826086  0.59940505  1
  N  N44  1  0.91098718  0.20532778  0.40097050  1
  N  N45  1  0.78560681  0.08532701  0.09960922  1
  N  N46  1  0.55088048  0.20120184  0.84901855  1
  N  N47  1  0.45957941  0.08702761  0.61430210  1
  N  N48  1  0.22509480  0.54288669  0.35071129  1
  N  N49  1  0.10268282  0.42027492  0.04357447  1
  N  N50  1  0.88479384  0.53441930  0.85178138  1
  N  N51  1  0.81366166  0.40907822  0.63835227  1
  N  N52  1  0.53914220  0.55734602  0.36939920  1
  N  N53  1  0.44640234  0.44810354  0.13908797  1
  N  N54  1  0.21383733  0.54356331  0.81444287  1
  N  N55  1  0.12099383  0.42984872  0.58448918  1
  N  N56  1  0.90718663  0.54218739  0.39854971  1
  N  N57  1  0.76973107  0.43459435  0.08686685  1
  N  N58  1  0.55212379  0.52789794  0.85769020  1
  N  N59  1  0.43723390  0.40502062  0.63240288  1
  N  N60  1  0.22479719  0.88013602  0.35586052  1
  N  N61  1  0.09774596  0.78000623  0.03043699  1
  N  N62  1  0.88136493  0.88199451  0.84429877  1
  N  N63  1  0.78154436  0.75895050  0.59118249  1
  N  N64  1  0.57351485  0.86600407  0.35626032  1
  N  N65  1  0.42402396  0.75896209  0.03728587  1
  N  N66  1  0.24022315  0.83991536  0.80289819  1
  N  N67  1  0.12612691  0.75462200  0.58485578  1
  N  N68  1  0.90988558  0.85342201  0.40151644  1
  N  N69  1  0.78876924  0.75759726  0.03838059  1
  N  N70  1  0.55328076  0.86651469  0.80872737  1
  N  N71  1  0.43822882  0.78647812  0.57342848  1
