# generated using pymatgen
data_Gd2Al7N9
_symmetry_space_group_name_H-M   'P 1'
_cell_length_a   9.89538921
_cell_length_b   9.83473592
_cell_length_c   10.75601975
_cell_angle_alpha   89.61006999
_cell_angle_beta   89.34698341
_cell_angle_gamma   59.79210553
_symmetry_Int_Tables_number   1
_chemical_formula_structural   Gd2Al7N9
_chemical_formula_sum   'Gd8 Al28 N36'
_cell_volume   904.55640286
_cell_formula_units_Z   4
loop_
 _symmetry_equiv_pos_site_id
 _symmetry_equiv_pos_as_xyz
  1  'x, y, z'
loop_
 _atom_site_type_symbol
 _atom_site_label
 _atom_site_symmetry_multiplicity
 _atom_site_fract_x
 _atom_site_fract_y
 _atom_site_fract_z
 _atom_site_occupancy
  Al  Al0  1  0.12545031  0.08256811  0.39002860  1
  Al  Al1  1  0.76983080  0.09790471  0.78846536  1
  Al  Al2  1  0.89548900  0.20312233  0.56269733  1
  Al  Al3  1  0.44251784  0.10141561  0.33129580  1
  Al  Al4  1  0.23166474  0.20633091  0.56162130  1
  Al  Al5  1  0.87521343  0.20684921  0.03495406  1
  Al  Al6  1  0.44442934  0.10152223  0.79460082  1
  Al  Al7  1  0.54829214  0.20531809  0.56317311  1
  Al  Al8  1  0.10087227  0.43632289  0.33006659  1
  Al  Al9  1  0.77747987  0.42523510  0.81386601  1
  Al  Al10  1  0.90563427  0.52587276  0.58114447  1
  Al  Al11  1  0.44276750  0.43639827  0.31685945  1
  Al  Al12  1  0.54707035  0.53825324  0.04109979  1
  Al  Al13  1  0.12221266  0.43008154  0.80279282  1
  Al  Al14  1  0.22591973  0.52772357  0.55717033  1
  Al  Al15  1  0.88427344  0.53819362  0.03741225  1
  Al  Al16  1  0.43446280  0.42528950  0.79855245  1
  Al  Al17  1  0.12032061  0.75957869  0.38632276  1
  Al  Al18  1  0.20860606  0.88044340  0.11547847  1
  Al  Al19  1  0.77918061  0.76109386  0.85101123  1
  Al  Al20  1  0.89639984  0.87045882  0.57411437  1
  Al  Al21  1  0.43746063  0.77389138  0.38732894  1
  Al  Al22  1  0.12082336  0.75820672  0.86277223  1
  Al  Al23  1  0.23042876  0.86060054  0.62304564  1
  Al  Al24  1  0.77752901  0.75780146  0.41192102  1
  Al  Al25  1  0.88594657  0.88815488  0.02492427  1
  Al  Al26  1  0.43861078  0.76214834  0.86688113  1
  Al  Al27  1  0.55506759  0.87197974  0.62814446  1
  Gd  Gd28  1  0.21007244  0.21332344  0.07870731  1
  Gd  Gd29  1  0.55147753  0.20933043  0.04545914  1
  Gd  Gd30  1  0.10603467  0.10225310  0.82138729  1
  Gd  Gd31  1  0.78240470  0.08483236  0.31238364  1
  Gd  Gd32  1  0.20301947  0.54973379  0.08809457  1
  Gd  Gd33  1  0.79083239  0.43520398  0.29330507  1
  Gd  Gd34  1  0.56379368  0.53285234  0.58209199  1
  Gd  Gd35  1  0.57283066  0.84111499  0.13542706  1
  N  N36  1  0.22431272  0.20789674  0.37990378  1
  N  N37  1  0.09120470  0.08586507  0.05488589  1
  N  N38  1  0.84929823  0.21646507  0.86123080  1
  N  N39  1  0.77842036  0.09726666  0.60796609  1
  N  N40  1  0.53099264  0.22374646  0.38560362  1
  N  N41  1  0.44844257  0.09545288  0.15640334  1
  N  N42  1  0.24424523  0.22134159  0.86516387  1
  N  N43  1  0.12142614  0.08444443  0.58396822  1
  N  N44  1  0.90929758  0.20036392  0.38602687  1
  N  N45  1  0.79503033  0.08397963  0.10115799  1
  N  N46  1  0.55637216  0.20148020  0.83356794  1
  N  N47  1  0.44346461  0.09562239  0.61515189  1
  N  N48  1  0.22405016  0.53484384  0.36495349  1
  N  N49  1  0.04387824  0.45361437  0.15821905  1
  N  N50  1  0.90303309  0.52400247  0.85624196  1
  N  N51  1  0.81865435  0.40350191  0.63689455  1
  N  N52  1  0.53956307  0.55141340  0.36995684  1
  N  N53  1  0.45830082  0.44269025  0.13827681  1
  N  N54  1  0.22461968  0.53469290  0.86398475  1
  N  N55  1  0.12137500  0.42285585  0.62221807  1
  N  N56  1  0.90335561  0.53966617  0.40584209  1
  N  N57  1  0.76515136  0.43797668  0.07483622  1
  N  N58  1  0.55189598  0.53275518  0.84849317  1
  N  N59  1  0.42672776  0.41533051  0.62266037  1
  N  N60  1  0.22269987  0.87462584  0.31365942  1
  N  N61  1  0.09814122  0.79388433  0.04493181  1
  N  N62  1  0.89155520  0.87830552  0.83708477  1
  N  N63  1  0.77764531  0.76020739  0.59632913  1
  N  N64  1  0.56852831  0.86459896  0.35071841  1
  N  N65  1  0.41720349  0.76169131  0.04524293  1
  N  N66  1  0.24001211  0.84018928  0.79656843  1
  N  N67  1  0.12578622  0.75525310  0.56803384  1
  N  N68  1  0.90220226  0.84823558  0.39034189  1
  N  N69  1  0.79714791  0.75928570  0.03348177  1
  N  N70  1  0.55373160  0.86676860  0.81203736  1
  N  N71  1  0.43068455  0.79481495  0.56317720  1
