# generated using pymatgen
data_Gd2Al7N9
_symmetry_space_group_name_H-M   'P 1'
_cell_length_a   9.76051055
_cell_length_b   9.81909288
_cell_length_c   10.97483613
_cell_angle_alpha   89.42790997
_cell_angle_beta   89.09564148
_cell_angle_gamma   60.03841725
_symmetry_Int_Tables_number   1
_chemical_formula_structural   Gd2Al7N9
_chemical_formula_sum   'Gd8 Al28 N36'
_cell_volume   911.14016593
_cell_formula_units_Z   4
loop_
 _symmetry_equiv_pos_site_id
 _symmetry_equiv_pos_as_xyz
  1  'x, y, z'
loop_
 _atom_site_type_symbol
 _atom_site_label
 _atom_site_symmetry_multiplicity
 _atom_site_fract_x
 _atom_site_fract_y
 _atom_site_fract_z
 _atom_site_occupancy
  Al  Al0  1  0.12930233  0.08764088  0.42783182  1
  Al  Al1  1  0.77031508  0.09629235  0.81486550  1
  Al  Al2  1  0.89800090  0.20290186  0.59196534  1
  Al  Al3  1  0.44443904  0.09680955  0.42338237  1
  Al  Al4  1  0.23405319  0.20749772  0.64969322  1
  Al  Al5  1  0.87305013  0.20501259  0.06303521  1
  Al  Al6  1  0.44623228  0.08743449  0.88327640  1
  Al  Al7  1  0.55599173  0.20978821  0.58666426  1
  Al  Al8  1  0.11678475  0.43227215  0.43240061  1
  Al  Al9  1  0.76970938  0.41793071  0.83243040  1
  Al  Al10  1  0.89938426  0.53403331  0.66043992  1
  Al  Al11  1  0.43782566  0.44309165  0.34010639  1
  Al  Al12  1  0.53818262  0.54214904  0.07124940  1
  Al  Al13  1  0.12625509  0.42094936  0.88394080  1
  Al  Al14  1  0.21541303  0.54215396  0.65606434  1
  Al  Al15  1  0.88055809  0.52946804  0.03715469  1
  Al  Al16  1  0.44409787  0.41777259  0.82022153  1
  Al  Al17  1  0.12930724  0.75278735  0.42537708  1
  Al  Al18  1  0.21095639  0.87354226  0.14171510  1
  Al  Al19  1  0.77540828  0.76640764  0.87346887  1
  Al  Al20  1  0.89491178  0.87285840  0.59763580  1
  Al  Al21  1  0.43554318  0.78363473  0.40858535  1
  Al  Al22  1  0.12460948  0.75152581  0.88648466  1
  Al  Al23  1  0.23003690  0.86903951  0.65260391  1
  Al  Al24  1  0.78365665  0.75300338  0.43073904  1
  Al  Al25  1  0.88630635  0.88590532  0.04355161  1
  Al  Al26  1  0.44393448  0.75497990  0.89280145  1
  Al  Al27  1  0.55278107  0.87975962  0.65303333  1
  Gd  Gd28  1  0.20762972  0.20439652  0.16592309  1
  Gd  Gd29  1  0.54540419  0.22672888  0.06988657  1
  Gd  Gd30  1  0.11969306  0.08597375  0.87993059  1
  Gd  Gd31  1  0.79229253  0.08128575  0.33621584  1
  Gd  Gd32  1  0.15646115  0.57341858  0.16884156  1
  Gd  Gd33  1  0.78733700  0.43252392  0.31758781  1
  Gd  Gd34  1  0.55959375  0.53873734  0.59308567  1
  Gd  Gd35  1  0.57317354  0.85212142  0.15256665  1
  N  N36  1  0.22638740  0.20817946  0.38211130  1
  N  N37  1  0.09091408  0.08558294  0.09144289  1
  N  N38  1  0.85447045  0.21248367  0.88923771  1
  N  N39  1  0.78022186  0.09626891  0.63873154  1
  N  N40  1  0.53758101  0.22951488  0.40611384  1
  N  N41  1  0.43351354  0.08110065  0.06106353  1
  N  N42  1  0.24173060  0.21709648  0.82137498  1
  N  N43  1  0.12350231  0.08873626  0.61303582  1
  N  N44  1  0.91003128  0.20241964  0.41882277  1
  N  N45  1  0.79285745  0.07672379  0.12610461  1
  N  N46  1  0.55519688  0.20094925  0.86405080  1
  N  N47  1  0.45255183  0.09095929  0.59873797  1
  N  N48  1  0.22038640  0.54302959  0.37613776  1
  N  N49  1  0.09678473  0.41952898  0.05393076  1
  N  N50  1  0.88767110  0.53569547  0.85109219  1
  N  N51  1  0.80884051  0.40486129  0.66084665  1
  N  N52  1  0.53557810  0.56163585  0.38852507  1
  N  N53  1  0.42997211  0.46085740  0.16329843  1
  N  N54  1  0.21556000  0.54230705  0.83559888  1
  N  N55  1  0.11307200  0.43010401  0.60733624  1
  N  N56  1  0.90920788  0.54993869  0.37723469  1
  N  N57  1  0.76679682  0.43277113  0.10060677  1
  N  N58  1  0.55056294  0.52741317  0.88280171  1
  N  N59  1  0.43596963  0.41208779  0.64977600  1
  N  N60  1  0.22055329  0.87900228  0.34304933  1
  N  N61  1  0.10497414  0.78394801  0.06194391  1
  N  N62  1  0.88985780  0.87952070  0.86357094  1
  N  N63  1  0.77849378  0.75512082  0.61500218  1
  N  N64  1  0.56597095  0.87863498  0.36669119  1
  N  N65  1  0.42202310  0.76267647  0.06993778  1
  N  N66  1  0.24608088  0.83507406  0.82179262  1
  N  N67  1  0.12661072  0.75757806  0.60193904  1
  N  N68  1  0.90581524  0.85124898  0.42201941  1
  N  N69  1  0.80377803  0.74589092  0.05234145  1
  N  N70  1  0.55285774  0.86712459  0.83186322  1
  N  N71  1  0.43029397  0.80038021  0.58397199  1
