# generated using pymatgen
data_Gd2Al7N9
_symmetry_space_group_name_H-M   'P 1'
_cell_length_a   9.87553868
_cell_length_b   9.85697252
_cell_length_c   10.43290207
_cell_angle_alpha   90.44047943
_cell_angle_beta   90.33294488
_cell_angle_gamma   60.03235811
_symmetry_Int_Tables_number   1
_chemical_formula_structural   Gd2Al7N9
_chemical_formula_sum   'Gd8 Al28 N36'
_cell_volume   879.76698296
_cell_formula_units_Z   4
loop_
 _symmetry_equiv_pos_site_id
 _symmetry_equiv_pos_as_xyz
  1  'x, y, z'
loop_
 _atom_site_type_symbol
 _atom_site_label
 _atom_site_symmetry_multiplicity
 _atom_site_fract_x
 _atom_site_fract_y
 _atom_site_fract_z
 _atom_site_occupancy
  Al  Al0  1  0.11461936  0.08621758  0.42433439  1
  Al  Al1  1  0.78144467  0.09358321  0.89790684  1
  Al  Al2  1  0.88751211  0.20864987  0.66592515  1
  Al  Al3  1  0.44471870  0.09182814  0.43002773  1
  Al  Al4  1  0.22474883  0.21116416  0.63886513  1
  Al  Al5  1  0.89894985  0.19411528  0.15063009  1
  Al  Al6  1  0.44410987  0.09801482  0.88571041  1
  Al  Al7  1  0.55427138  0.20400109  0.66855097  1
  Al  Al8  1  0.11157862  0.43604925  0.42653151  1
  Al  Al9  1  0.77407491  0.43281285  0.91416457  1
  Al  Al10  1  0.89269327  0.53778311  0.66023731  1
  Al  Al11  1  0.42765918  0.42927294  0.41611077  1
  Al  Al12  1  0.53999762  0.54729594  0.15196472  1
  Al  Al13  1  0.11110689  0.42958259  0.88866672  1
  Al  Al14  1  0.21660496  0.54093450  0.65797593  1
  Al  Al15  1  0.89332010  0.54132117  0.14170839  1
  Al  Al16  1  0.44159341  0.43432287  0.90232334  1
  Al  Al17  1  0.11415791  0.75751647  0.41293737  1
  Al  Al18  1  0.21411843  0.87352332  0.15881799  1
  Al  Al19  1  0.78740200  0.75710703  0.89703663  1
  Al  Al20  1  0.89168449  0.87041142  0.66202265  1
  Al  Al21  1  0.43320584  0.77123559  0.40649009  1
  Al  Al22  1  0.11490205  0.75987481  0.89832246  1
  Al  Al23  1  0.22208405  0.86974918  0.65260686  1
  Al  Al24  1  0.79173477  0.75621847  0.40623491  1
  Al  Al25  1  0.90122238  0.86994093  0.14302057  1
  Al  Al26  1  0.44407129  0.75367703  0.90768336  1
  Al  Al27  1  0.55787894  0.87353882  0.65432811  1
  Gd  Gd28  1  0.21187775  0.20977875  0.18066465  1
  Gd  Gd29  1  0.55495805  0.20676239  0.13874147  1
  Gd  Gd30  1  0.12226996  0.09232969  0.89189992  1
  Gd  Gd31  1  0.77701024  0.08959322  0.40882243  1
  Gd  Gd32  1  0.20186389  0.55101689  0.15557836  1
  Gd  Gd33  1  0.78139916  0.43506273  0.38411237  1
  Gd  Gd34  1  0.55509711  0.54342749  0.65511382  1
  Gd  Gd35  1  0.56453047  0.86329834  0.14722111  1
  N  N36  1  0.22091552  0.20420986  0.40749833  1
  N  N37  1  0.10751469  0.08057601  0.10415801  1
  N  N38  1  0.86367700  0.22449393  0.84818201  1
  N  N39  1  0.77720492  0.09523603  0.62453532  1
  N  N40  1  0.51944386  0.21800504  0.35558871  1
  N  N41  1  0.42570840  0.09551354  0.06416454  1
  N  N42  1  0.23780030  0.22362200  0.82113556  1
  N  N43  1  0.10527690  0.09052126  0.61299574  1
  N  N44  1  0.92134630  0.18610601  0.33298192  1
  N  N45  1  0.80515185  0.08068503  0.08585468  1
  N  N46  1  0.55822822  0.20794677  0.85510536  1
  N  N47  1  0.45671525  0.08926188  0.61136090  1
  N  N48  1  0.21747576  0.54060472  0.37507114  1
  N  N49  1  0.08799620  0.42391086  0.06694954  1
  N  N50  1  0.88476842  0.53963505  0.84333576  1
  N  N51  1  0.80788402  0.41322601  0.59925797  1
  N  N52  1  0.51733837  0.55431066  0.34436807  1
  N  N53  1  0.44169687  0.44764037  0.08065660  1
  N  N54  1  0.22045736  0.54232103  0.84595246  1
  N  N55  1  0.10347221  0.43942183  0.60666086  1
  N  N56  1  0.91776618  0.54889263  0.32898307  1
  N  N57  1  0.77191091  0.43385316  0.11007168  1
  N  N58  1  0.56015776  0.53829176  0.86778738  1
  N  N59  1  0.43087907  0.41301160  0.60161485  1
  N  N60  1  0.21850544  0.87351125  0.35055917  1
  N  N61  1  0.10340800  0.78715821  0.07994353  1
  N  N62  1  0.89347513  0.87038148  0.84364949  1
  N  N63  1  0.78303981  0.75862690  0.59641465  1
  N  N64  1  0.56146253  0.87175539  0.36706274  1
  N  N65  1  0.42303373  0.75606962  0.09218870  1
  N  N66  1  0.24353177  0.83681800  0.83143696  1
  N  N67  1  0.10778069  0.76447479  0.59815516  1
  N  N68  1  0.90872253  0.84568235  0.33250673  1
  N  N69  1  0.81268744  0.74849007  0.07916080  1
  N  N70  1  0.56007256  0.86490212  0.84580559  1
  N  N71  1  0.42846315  0.79327531  0.58700796  1
