# generated using pymatgen
data_Gd2Al7N9
_symmetry_space_group_name_H-M   'P 1'
_cell_length_a   9.89171993
_cell_length_b   9.91018048
_cell_length_c   10.51040767
_cell_angle_alpha   90.53836981
_cell_angle_beta   90.26837748
_cell_angle_gamma   59.83010271
_symmetry_Int_Tables_number   1
_chemical_formula_structural   Gd2Al7N9
_chemical_formula_sum   'Gd8 Al28 N36'
_cell_volume   890.71411734
_cell_formula_units_Z   4
loop_
 _symmetry_equiv_pos_site_id
 _symmetry_equiv_pos_as_xyz
  1  'x, y, z'
loop_
 _atom_site_type_symbol
 _atom_site_label
 _atom_site_symmetry_multiplicity
 _atom_site_fract_x
 _atom_site_fract_y
 _atom_site_fract_z
 _atom_site_occupancy
  Al  Al0  1  0.11794525  0.08539767  0.41592708  1
  Al  Al1  1  0.77826899  0.09345066  0.87545707  1
  Al  Al2  1  0.88920669  0.20273735  0.65267026  1
  Al  Al3  1  0.44458588  0.09077222  0.42364710  1
  Al  Al4  1  0.22328456  0.21105738  0.63620150  1
  Al  Al5  1  0.89841327  0.19537504  0.15602704  1
  Al  Al6  1  0.44336697  0.09700013  0.88261183  1
  Al  Al7  1  0.55024843  0.20112506  0.66021870  1
  Al  Al8  1  0.11216202  0.43323814  0.41735462  1
  Al  Al9  1  0.78213747  0.43333576  0.82878567  1
  Al  Al10  1  0.89373550  0.54620296  0.64945677  1
  Al  Al11  1  0.42540461  0.42498784  0.42199686  1
  Al  Al12  1  0.56885141  0.53424875  0.06220204  1
  Al  Al13  1  0.11057225  0.43160856  0.88598458  1
  Al  Al14  1  0.21085751  0.53957640  0.65355297  1
  Al  Al15  1  0.89380613  0.53981337  0.13972564  1
  Al  Al16  1  0.43847196  0.42791384  0.88580888  1
  Al  Al17  1  0.12033680  0.75184446  0.40668160  1
  Al  Al18  1  0.21898475  0.87015905  0.15167747  1
  Al  Al19  1  0.78748393  0.75930384  0.89409277  1
  Al  Al20  1  0.89343991  0.86757006  0.65441298  1
  Al  Al21  1  0.43119424  0.77382423  0.41237937  1
  Al  Al22  1  0.11410252  0.76120809  0.89383963  1
  Al  Al23  1  0.21558903  0.87820233  0.64851422  1
  Al  Al24  1  0.79386603  0.75408119  0.40127397  1
  Al  Al25  1  0.90311614  0.86718954  0.14219273  1
  Al  Al26  1  0.44188663  0.76534187  0.89160074  1
  Al  Al27  1  0.55663520  0.87768492  0.64918912  1
  Gd  Gd28  1  0.21505180  0.21105267  0.17293616  1
  Gd  Gd29  1  0.55606303  0.20850651  0.13561461  1
  Gd  Gd30  1  0.11693470  0.09542836  0.89380283  1
  Gd  Gd31  1  0.77965776  0.08380345  0.40214034  1
  Gd  Gd32  1  0.21347185  0.54885370  0.14772903  1
  Gd  Gd33  1  0.76822979  0.44150398  0.36912095  1
  Gd  Gd34  1  0.53177682  0.55485049  0.63336944  1
  Gd  Gd35  1  0.56397296  0.85894037  0.14570591  1
  N  N36  1  0.22310002  0.20227484  0.39532596  1
  N  N37  1  0.10769808  0.08110361  0.10530204  1
  N  N38  1  0.86637072  0.21759925  0.83418362  1
  N  N39  1  0.77602914  0.09232427  0.61968411  1
  N  N40  1  0.52116963  0.21717942  0.35317326  1
  N  N41  1  0.43178514  0.09094300  0.05980745  1
  N  N42  1  0.23457484  0.22381131  0.81858760  1
  N  N43  1  0.10339183  0.09444392  0.60271664  1
  N  N44  1  0.91976493  0.18751300  0.33937490  1
  N  N45  1  0.80611810  0.07976320  0.09660235  1
  N  N46  1  0.55668057  0.20447301  0.84459554  1
  N  N47  1  0.45271736  0.09029672  0.60390343  1
  N  N48  1  0.22015947  0.53561938  0.36634966  1
  N  N49  1  0.08964455  0.42876691  0.06346392  1
  N  N50  1  0.89124392  0.54634274  0.83186206  1
  N  N51  1  0.79673551  0.42274989  0.62509831  1
  N  N52  1  0.51279092  0.55547925  0.40754822  1
  N  N53  1  0.44825191  0.44284086  0.06174338  1
  N  N54  1  0.21695710  0.54455347  0.83905525  1
  N  N55  1  0.10229573  0.43687889  0.59661373  1
  N  N56  1  0.91574671  0.54852910  0.32885404  1
  N  N57  1  0.77368929  0.43181610  0.13167463  1
  N  N58  1  0.56545826  0.53977115  0.86600209  1
  N  N59  1  0.42134863  0.40697806  0.60554780  1
  N  N60  1  0.22284178  0.87011998  0.34297654  1
  N  N61  1  0.10469549  0.78615050  0.07435131  1
  N  N62  1  0.89350243  0.87025524  0.83641141  1
  N  N63  1  0.78295184  0.76154764  0.58952898  1
  N  N64  1  0.56280765  0.86830769  0.36469019  1
  N  N65  1  0.42654514  0.75373573  0.07392236  1
  N  N66  1  0.23790395  0.84271008  0.82548914  1
  N  N67  1  0.11075371  0.76259895  0.59202631  1
  N  N68  1  0.91427645  0.83935917  0.32919459  1
  N  N69  1  0.81129306  0.74815597  0.07523722  1
  N  N70  1  0.56164727  0.86778797  0.83774749  1
  N  N71  1  0.41957900  0.81015165  0.59011818  1
