# generated using pymatgen
data_Gd2Al7N9
_symmetry_space_group_name_H-M   'P 1'
_cell_length_a   9.94514248
_cell_length_b   9.87788644
_cell_length_c   10.51037751
_cell_angle_alpha   89.23032056
_cell_angle_beta   88.70393935
_cell_angle_gamma   60.09595216
_symmetry_Int_Tables_number   1
_chemical_formula_structural   Gd2Al7N9
_chemical_formula_sum   'Gd8 Al28 N36'
_cell_volume   894.80956482
_cell_formula_units_Z   4
loop_
 _symmetry_equiv_pos_site_id
 _symmetry_equiv_pos_as_xyz
  1  'x, y, z'
loop_
 _atom_site_type_symbol
 _atom_site_label
 _atom_site_symmetry_multiplicity
 _atom_site_fract_x
 _atom_site_fract_y
 _atom_site_fract_z
 _atom_site_occupancy
  Al  Al0  1  0.12222681  0.09395008  0.38486793  1
  Al  Al1  1  0.77073435  0.09263605  0.78508615  1
  Al  Al2  1  0.89276823  0.21010268  0.55939023  1
  Al  Al3  1  0.44413905  0.10227371  0.32294937  1
  Al  Al4  1  0.23060817  0.21330653  0.55637789  1
  Al  Al5  1  0.87612933  0.20222809  0.02586028  1
  Al  Al6  1  0.44753215  0.09084620  0.78795552  1
  Al  Al7  1  0.54584901  0.20898402  0.55828344  1
  Al  Al8  1  0.10720429  0.43645520  0.31983428  1
  Al  Al9  1  0.78018410  0.42775157  0.80986488  1
  Al  Al10  1  0.90002888  0.54009386  0.56359136  1
  Al  Al11  1  0.44131630  0.43846859  0.31122505  1
  Al  Al12  1  0.55392125  0.52757151  0.03391451  1
  Al  Al13  1  0.11715840  0.43125672  0.79342005  1
  Al  Al14  1  0.21852430  0.53949288  0.54584968  1
  Al  Al15  1  0.88939301  0.54107280  0.04192247  1
  Al  Al16  1  0.43151438  0.42131225  0.78861005  1
  Al  Al17  1  0.11575861  0.76678513  0.30731177  1
  Al  Al18  1  0.20332502  0.86585671  0.03117685  1
  Al  Al19  1  0.77629448  0.76347864  0.80010826  1
  Al  Al20  1  0.89455233  0.86466128  0.55441784  1
  Al  Al21  1  0.44118511  0.77047858  0.38105382  1
  Al  Al22  1  0.10941767  0.75048353  0.79063702  1
  Al  Al23  1  0.21808635  0.86911893  0.56109877  1
  Al  Al24  1  0.80156775  0.75429298  0.31126010  1
  Al  Al25  1  0.89608409  0.87157855  0.04858410  1
  Al  Al26  1  0.44106436  0.75433759  0.85509119  1
  Al  Al27  1  0.56397282  0.87839555  0.55475095  1
  Gd  Gd28  1  0.21079774  0.20153936  0.07183794  1
  Gd  Gd29  1  0.55701823  0.20111699  0.03958347  1
  Gd  Gd30  1  0.10677328  0.09760423  0.80593892  1
  Gd  Gd31  1  0.78221895  0.09422337  0.31262582  1
  Gd  Gd32  1  0.21495605  0.54275942  0.06749474  1
  Gd  Gd33  1  0.78555109  0.44137836  0.28767047  1
  Gd  Gd34  1  0.56305409  0.53561758  0.58353066  1
  Gd  Gd35  1  0.55970591  0.85280213  0.08114198  1
  N  N36  1  0.22555865  0.21193210  0.37100507  1
  N  N37  1  0.08805998  0.07941072  0.03891869  1
  N  N38  1  0.84839312  0.21685275  0.84812288  1
  N  N39  1  0.78051725  0.09318474  0.59831861  1
  N  N40  1  0.52908071  0.22678541  0.37698664  1
  N  N41  1  0.44697388  0.09145395  0.14772179  1
  N  N42  1  0.24122868  0.22182357  0.85157954  1
  N  N43  1  0.11763774  0.09331488  0.57898970  1
  N  N44  1  0.90959366  0.20972169  0.37880873  1
  N  N45  1  0.79627830  0.08193440  0.09822508  1
  N  N46  1  0.55461146  0.19965682  0.82197552  1
  N  N47  1  0.44561746  0.09177766  0.60441320  1
  N  N48  1  0.22219285  0.54442453  0.35618987  1
  N  N49  1  0.06672461  0.43995150  0.14345746  1
  N  N50  1  0.89560126  0.54093745  0.85720088  1
  N  N51  1  0.81942344  0.41241710  0.62718209  1
  N  N52  1  0.53834939  0.55314021  0.36345336  1
  N  N53  1  0.46413147  0.43177149  0.12923532  1
  N  N54  1  0.21873402  0.53882073  0.84741340  1
  N  N55  1  0.11514799  0.43002458  0.60902486  1
  N  N56  1  0.90207164  0.55375845  0.38558532  1
  N  N57  1  0.77141565  0.43257287  0.06558121  1
  N  N58  1  0.55334720  0.52852712  0.83540603  1
  N  N59  1  0.42110962  0.41963939  0.61027695  1
  N  N60  1  0.21984647  0.87431216  0.36931612  1
  N  N61  1  0.09468213  0.78806525  0.12438939  1
  N  N62  1  0.88886042  0.87004678  0.85543760  1
  N  N63  1  0.77870173  0.76342955  0.61646110  1
  N  N64  1  0.57175319  0.87092955  0.36237483  1
  N  N65  1  0.41902857  0.74132645  0.04216954  1
  N  N66  1  0.22563355  0.84110634  0.83968877  1
  N  N67  1  0.11012970  0.75722595  0.60724084  1
  N  N68  1  0.91036894  0.84767134  0.37542858  1
  N  N69  1  0.81335758  0.74467563  0.12101423  1
  N  N70  1  0.55445446  0.87269935  0.84951871  1
  N  N71  1  0.43206402  0.79329438  0.56967751  1
