# generated using pymatgen
data_Gd2Al7N9
_symmetry_space_group_name_H-M   'P 1'
_cell_length_a   9.78610005
_cell_length_b   9.73760351
_cell_length_c   11.23871204
_cell_angle_alpha   88.95281940
_cell_angle_beta   88.21639373
_cell_angle_gamma   60.08884797
_symmetry_Int_Tables_number   1
_chemical_formula_structural   Gd2Al7N9
_chemical_formula_sum   'Gd8 Al28 N36'
_cell_volume   927.86411506
_cell_formula_units_Z   4
loop_
 _symmetry_equiv_pos_site_id
 _symmetry_equiv_pos_as_xyz
  1  'x, y, z'
loop_
 _atom_site_type_symbol
 _atom_site_label
 _atom_site_symmetry_multiplicity
 _atom_site_fract_x
 _atom_site_fract_y
 _atom_site_fract_z
 _atom_site_occupancy
  Al  Al0  1  0.13449355  0.08511057  0.42867306  1
  Al  Al1  1  0.76465468  0.09845284  0.79413877  1
  Al  Al2  1  0.89659243  0.20619385  0.57444019  1
  Al  Al3  1  0.45341324  0.10103281  0.34297591  1
  Al  Al4  1  0.23956960  0.20269634  0.60955447  1
  Al  Al5  1  0.86342355  0.20832302  0.03012009  1
  Al  Al6  1  0.45300623  0.09692914  0.78489761  1
  Al  Al7  1  0.55853139  0.20254913  0.55831292  1
  Al  Al8  1  0.13119677  0.43348950  0.41940164  1
  Al  Al9  1  0.76973963  0.42630227  0.80945545  1
  Al  Al10  1  0.89497552  0.53754208  0.57975732  1
  Al  Al11  1  0.44969021  0.44157862  0.31339382  1
  Al  Al12  1  0.54117331  0.53207096  0.04093807  1
  Al  Al13  1  0.10404621  0.43508936  0.79367554  1
  Al  Al14  1  0.22442848  0.54807568  0.63250456  1
  Al  Al15  1  0.88224850  0.52684064  0.02860890  1
  Al  Al16  1  0.44435365  0.41714585  0.79777322  1
  Al  Al17  1  0.13530429  0.76083576  0.40865108  1
  Al  Al18  1  0.20614067  0.87077973  0.05552163  1
  Al  Al19  1  0.76915229  0.76304887  0.85996431  1
  Al  Al20  1  0.89612572  0.87815520  0.57679753  1
  Al  Al21  1  0.44153990  0.78369539  0.39998416  1
  Al  Al22  1  0.11253274  0.75204537  0.85811363  1
  Al  Al23  1  0.23517088  0.86258377  0.63573991  1
  Al  Al24  1  0.78419052  0.76607239  0.41666419  1
  Al  Al25  1  0.87757645  0.88460965  0.02071327  1
  Al  Al26  1  0.44449337  0.75428323  0.86363743  1
  Al  Al27  1  0.56490060  0.86453735  0.63155778  1
  Gd  Gd28  1  0.17367558  0.18539232  0.18285490  1
  Gd  Gd29  1  0.53165352  0.20719307  0.05348092  1
  Gd  Gd30  1  0.10627577  0.10181694  0.83802923  1
  Gd  Gd31  1  0.80293675  0.08625279  0.30725099  1
  Gd  Gd32  1  0.17078006  0.56543363  0.15440123  1
  Gd  Gd33  1  0.80569279  0.44265203  0.29218902  1
  Gd  Gd34  1  0.57366018  0.52082582  0.56173287  1
  Gd  Gd35  1  0.56332853  0.83572998  0.14845605  1
  N  N36  1  0.23651714  0.20681414  0.40050939  1
  N  N37  1  0.08826035  0.08533648  0.04430504  1
  N  N38  1  0.84372348  0.21877671  0.86153218  1
  N  N39  1  0.77930565  0.10081159  0.61859823  1
  N  N40  1  0.54795776  0.22549675  0.38520845  1
  N  N41  1  0.42944626  0.09629281  0.17114561  1
  N  N42  1  0.23719422  0.22233659  0.78911933  1
  N  N43  1  0.12074432  0.08675453  0.60088124  1
  N  N44  1  0.91576025  0.21163890  0.39891047  1
  N  N45  1  0.78727873  0.07934206  0.09981452  1
  N  N46  1  0.54975529  0.20009177  0.84671868  1
  N  N47  1  0.46511421  0.08525652  0.61234700  1
  N  N48  1  0.22914756  0.54655165  0.35752383  1
  N  N49  1  0.04650122  0.43263215  0.13209214  1
  N  N50  1  0.89268245  0.52707117  0.85425494  1
  N  N51  1  0.81484026  0.41065228  0.64138167  1
  N  N52  1  0.54761439  0.56107133  0.35947061  1
  N  N53  1  0.44314431  0.44312791  0.13870961  1
  N  N54  1  0.21408549  0.54324613  0.80705640  1
  N  N55  1  0.11633572  0.43635861  0.60065996  1
  N  N56  1  0.90906120  0.54616904  0.40907749  1
  N  N57  1  0.75837241  0.43164245  0.07880913  1
  N  N58  1  0.54914923  0.52746744  0.85592175  1
  N  N59  1  0.44125381  0.40703248  0.62796765  1
  N  N60  1  0.22800540  0.88678194  0.35456644  1
  N  N61  1  0.09636337  0.77061566  0.02892580  1
  N  N62  1  0.88161852  0.87955613  0.84240271  1
  N  N63  1  0.78193452  0.76341304  0.59321907  1
  N  N64  1  0.57771055  0.86844482  0.35713624  1
  N  N65  1  0.42145422  0.75840165  0.03616575  1
  N  N66  1  0.23955761  0.83891146  0.80432115  1
  N  N67  1  0.12578773  0.76115627  0.58210400  1
  N  N68  1  0.91113717  0.85888429  0.40084930  1
  N  N69  1  0.78129426  0.75746896  0.03463318  1
  N  N70  1  0.55413829  0.86372067  0.80724897  1
  N  N71  1  0.44083755  0.78399881  0.57251692  1
