# generated using pymatgen
data_Gd2Al7N9
_symmetry_space_group_name_H-M   'P 1'
_cell_length_a   9.79553090
_cell_length_b   9.84799262
_cell_length_c   10.76503849
_cell_angle_alpha   90.25954315
_cell_angle_beta   88.93804041
_cell_angle_gamma   60.19867770
_symmetry_Int_Tables_number   1
_chemical_formula_structural   Gd2Al7N9
_chemical_formula_sum   'Gd8 Al28 N36'
_cell_volume   900.86314393
_cell_formula_units_Z   4
loop_
 _symmetry_equiv_pos_site_id
 _symmetry_equiv_pos_as_xyz
  1  'x, y, z'
loop_
 _atom_site_type_symbol
 _atom_site_label
 _atom_site_symmetry_multiplicity
 _atom_site_fract_x
 _atom_site_fract_y
 _atom_site_fract_z
 _atom_site_occupancy
  Al  Al0  1  0.13264964  0.07985412  0.43093408  1
  Al  Al1  1  0.77860123  0.09819767  0.82869782  1
  Al  Al2  1  0.90053142  0.19968728  0.59730888  1
  Al  Al3  1  0.45198572  0.09653923  0.41805930  1
  Al  Al4  1  0.23455489  0.20455994  0.64715158  1
  Al  Al5  1  0.87211346  0.21246075  0.06815746  1
  Al  Al6  1  0.44610111  0.08961088  0.88807662  1
  Al  Al7  1  0.55510581  0.19488573  0.66071669  1
  Al  Al8  1  0.12432078  0.42214710  0.43637868  1
  Al  Al9  1  0.76890148  0.42099229  0.83714871  1
  Al  Al10  1  0.89961344  0.53306179  0.66498967  1
  Al  Al11  1  0.43371167  0.44402812  0.33065217  1
  Al  Al12  1  0.52793339  0.55195747  0.07267643  1
  Al  Al13  1  0.12661260  0.42407151  0.88793522  1
  Al  Al14  1  0.21561693  0.53999011  0.65103871  1
  Al  Al15  1  0.87595522  0.53621943  0.04210297  1
  Al  Al16  1  0.43543998  0.43045037  0.82949623  1
  Al  Al17  1  0.12746268  0.75278419  0.42467077  1
  Al  Al18  1  0.20845350  0.87709527  0.14998019  1
  Al  Al19  1  0.77378266  0.76982990  0.87928052  1
  Al  Al20  1  0.89974925  0.86419319  0.65506294  1
  Al  Al21  1  0.44352409  0.77488632  0.40922177  1
  Al  Al22  1  0.12363661  0.75316982  0.89408370  1
  Al  Al23  1  0.23028204  0.86710764  0.65480614  1
  Al  Al24  1  0.80496470  0.74267554  0.41726009  1
  Al  Al25  1  0.88381990  0.89209984  0.07217465  1
  Al  Al26  1  0.44350480  0.75886485  0.89206373  1
  Al  Al27  1  0.55935239  0.87379550  0.64636074  1
  Gd  Gd28  1  0.20284155  0.21589799  0.17447735  1
  Gd  Gd29  1  0.53139344  0.23407497  0.10453980  1
  Gd  Gd30  1  0.12745038  0.08689556  0.88735836  1
  Gd  Gd31  1  0.78939013  0.07619430  0.34747782  1
  Gd  Gd32  1  0.11981657  0.59637478  0.19164440  1
  Gd  Gd33  1  0.79382934  0.42281707  0.31826002  1
  Gd  Gd34  1  0.56048385  0.53032540  0.59440572  1
  Gd  Gd35  1  0.56529317  0.86104538  0.15461688  1
  N  N36  1  0.23082552  0.19830657  0.39407565  1
  N  N37  1  0.08792142  0.09276532  0.10283381  1
  N  N38  1  0.86216972  0.21478012  0.89217673  1
  N  N39  1  0.78310300  0.09236243  0.64506446  1
  N  N40  1  0.52192615  0.21858828  0.33119949  1
  N  N41  1  0.42395820  0.08713690  0.06157965  1
  N  N42  1  0.24515841  0.21948832  0.82229464  1
  N  N43  1  0.12479505  0.08474988  0.61923349  1
  N  N44  1  0.91450668  0.19547847  0.42237711  1
  N  N45  1  0.78858952  0.09259492  0.13097908  1
  N  N46  1  0.55676110  0.20085237  0.85339577  1
  N  N47  1  0.45957306  0.08846689  0.59803757  1
  N  N48  1  0.23043611  0.53403091  0.39424642  1
  N  N49  1  0.08937352  0.42877896  0.05983445  1
  N  N50  1  0.88425144  0.54104806  0.85415620  1
  N  N51  1  0.80804122  0.40524376  0.66200578  1
  N  N52  1  0.54171099  0.55228379  0.38624998  1
  N  N53  1  0.40377056  0.48656569  0.15592157  1
  N  N54  1  0.21132012  0.54732026  0.83704159  1
  N  N55  1  0.11102331  0.42727754  0.61197873  1
  N  N56  1  0.92847282  0.53472998  0.36136687  1
  N  N57  1  0.75822677  0.44188559  0.10018445  1
  N  N58  1  0.54918036  0.53243397  0.88177238  1
  N  N59  1  0.43435466  0.40902153  0.65359251  1
  N  N60  1  0.22897756  0.87224630  0.34564636  1
  N  N61  1  0.09783471  0.79161805  0.06766023  1
  N  N62  1  0.89416374  0.87286405  0.84380168  1
  N  N63  1  0.78947344  0.75198165  0.60737719  1
  N  N64  1  0.57591353  0.86805711  0.37056627  1
  N  N65  1  0.41702472  0.77119638  0.07085909  1
  N  N66  1  0.24427457  0.83615250  0.82596270  1
  N  N67  1  0.11705962  0.76220434  0.60273566  1
  N  N68  1  0.93122253  0.82144684  0.35339446  1
  N  N69  1  0.80191484  0.75556460  0.05714888  1
  N  N70  1  0.55596165  0.86842220  0.83097817  1
  N  N71  1  0.43332671  0.79291300  0.58739678  1
