# generated using pymatgen
data_Gd2Al7N9
_symmetry_space_group_name_H-M   'P 1'
_cell_length_a   9.83690859
_cell_length_b   9.74820808
_cell_length_c   11.13926670
_cell_angle_alpha   88.97713464
_cell_angle_beta   89.16038240
_cell_angle_gamma   59.86715708
_symmetry_Int_Tables_number   1
_chemical_formula_structural   Gd2Al7N9
_chemical_formula_sum   'Gd8 Al28 N36'
_cell_volume   923.65360812
_cell_formula_units_Z   4
loop_
 _symmetry_equiv_pos_site_id
 _symmetry_equiv_pos_as_xyz
  1  'x, y, z'
loop_
 _atom_site_type_symbol
 _atom_site_label
 _atom_site_symmetry_multiplicity
 _atom_site_fract_x
 _atom_site_fract_y
 _atom_site_fract_z
 _atom_site_occupancy
  Al  Al0  1  0.12526147  0.08635024  0.42472469  1
  Al  Al1  1  0.76915216  0.09635538  0.79337901  1
  Al  Al2  1  0.89374321  0.20890527  0.57516784  1
  Al  Al3  1  0.44849899  0.10483300  0.34262869  1
  Al  Al4  1  0.23505435  0.21347643  0.57944568  1
  Al  Al5  1  0.86750083  0.20313053  0.02938494  1
  Al  Al6  1  0.44939706  0.10031146  0.79085233  1
  Al  Al7  1  0.55433434  0.20613562  0.56164223  1
  Al  Al8  1  0.10219815  0.44582385  0.34858771  1
  Al  Al9  1  0.77544778  0.42611996  0.81207173  1
  Al  Al10  1  0.90300566  0.53344226  0.58081495  1
  Al  Al11  1  0.44385345  0.44355955  0.31161457  1
  Al  Al12  1  0.55148927  0.52825817  0.03880997  1
  Al  Al13  1  0.11383404  0.42741480  0.80273349  1
  Al  Al14  1  0.22060173  0.54518719  0.63595043  1
  Al  Al15  1  0.88703545  0.52470580  0.04249075  1
  Al  Al16  1  0.44843172  0.41704860  0.79933527  1
  Al  Al17  1  0.12953971  0.75930274  0.39919103  1
  Al  Al18  1  0.21213651  0.86810481  0.05591305  1
  Al  Al19  1  0.77573938  0.75755335  0.86267419  1
  Al  Al20  1  0.89660214  0.87693580  0.57522668  1
  Al  Al21  1  0.43456080  0.78701607  0.39934940  1
  Al  Al22  1  0.11493365  0.75463771  0.85711065  1
  Al  Al23  1  0.23438292  0.86350719  0.63372691  1
  Al  Al24  1  0.77806625  0.76785019  0.41824019  1
  Al  Al25  1  0.88390371  0.88146667  0.02327109  1
  Al  Al26  1  0.44738331  0.75584139  0.86323538  1
  Al  Al27  1  0.56308678  0.86875000  0.63324907  1
  Gd  Gd28  1  0.17823843  0.17372653  0.17712666  1
  Gd  Gd29  1  0.53868065  0.19979855  0.04838285  1
  Gd  Gd30  1  0.10868508  0.10639128  0.83287037  1
  Gd  Gd31  1  0.79350274  0.08862985  0.30863826  1
  Gd  Gd32  1  0.19574605  0.54369069  0.12247977  1
  Gd  Gd33  1  0.79215854  0.44311310  0.29625643  1
  Gd  Gd34  1  0.56907168  0.52679532  0.56812881  1
  Gd  Gd35  1  0.56710860  0.83835282  0.14806196  1
  N  N36  1  0.22647624  0.21379199  0.39662736  1
  N  N37  1  0.08851832  0.08079327  0.04176283  1
  N  N38  1  0.84596796  0.21823419  0.86130992  1
  N  N39  1  0.77968545  0.10024717  0.61727703  1
  N  N40  1  0.53986560  0.22900486  0.38711953  1
  N  N41  1  0.42879619  0.09988056  0.17022759  1
  N  N42  1  0.24770206  0.22097620  0.84147004  1
  N  N43  1  0.12096140  0.09072583  0.59863697  1
  N  N44  1  0.90836849  0.21150903  0.39933695  1
  N  N45  1  0.79106759  0.07612568  0.10015161  1
  N  N46  1  0.55828371  0.19791168  0.84282931  1
  N  N47  1  0.45350374  0.09395722  0.61586921  1
  N  N48  1  0.21864264  0.55314481  0.33114517  1
  N  N49  1  0.03859530  0.43877776  0.17310327  1
  N  N50  1  0.90110253  0.52123087  0.86583984  1
  N  N51  1  0.81518172  0.41225180  0.64234895  1
  N  N52  1  0.53609604  0.56437549  0.36379085  1
  N  N53  1  0.46095829  0.43286270  0.13442851  1
  N  N54  1  0.22034189  0.54269368  0.81567932  1
  N  N55  1  0.11412717  0.43070932  0.62523098  1
  N  N56  1  0.90026881  0.54802405  0.41090861  1
  N  N57  1  0.76747369  0.42589138  0.08255306  1
  N  N58  1  0.55470747  0.52844977  0.85521540  1
  N  N59  1  0.43788128  0.41083178  0.62845417  1
  N  N60  1  0.22126769  0.89065883  0.34895052  1
  N  N61  1  0.10099926  0.77130482  0.02975818  1
  N  N62  1  0.88508803  0.87648684  0.84346426  1
  N  N63  1  0.78049147  0.76471640  0.59434401  1
  N  N64  1  0.57031026  0.87189086  0.35810453  1
  N  N65  1  0.42701089  0.75583568  0.03784262  1
  N  N66  1  0.24132082  0.84053002  0.80383153  1
  N  N67  1  0.12792267  0.75750721  0.57764361  1
  N  N68  1  0.90553242  0.85874686  0.39953419  1
  N  N69  1  0.79023241  0.75358704  0.04073589  1
  N  N70  1  0.55918273  0.86228730  0.80953592  1
  N  N71  1  0.43745366  0.79021603  0.57263772  1
