# generated using pymatgen
data_Gd2Al7N9
_symmetry_space_group_name_H-M   'P 1'
_cell_length_a   9.89984893
_cell_length_b   9.87136668
_cell_length_c   10.58876727
_cell_angle_alpha   90.24226806
_cell_angle_beta   89.26960197
_cell_angle_gamma   60.23836154
_symmetry_Int_Tables_number   1
_chemical_formula_structural   Gd2Al7N9
_chemical_formula_sum   'Gd8 Al28 N36'
_cell_volume   898.15771581
_cell_formula_units_Z   4
loop_
 _symmetry_equiv_pos_site_id
 _symmetry_equiv_pos_as_xyz
  1  'x, y, z'
loop_
 _atom_site_type_symbol
 _atom_site_label
 _atom_site_symmetry_multiplicity
 _atom_site_fract_x
 _atom_site_fract_y
 _atom_site_fract_z
 _atom_site_occupancy
  Al  Al0  1  0.13051071  0.07978070  0.42850846  1
  Al  Al1  1  0.77652477  0.09827987  0.82606715  1
  Al  Al2  1  0.90087424  0.20485839  0.59712761  1
  Al  Al3  1  0.44544575  0.09369770  0.41938912  1
  Al  Al4  1  0.23364456  0.20903359  0.64208649  1
  Al  Al5  1  0.87880971  0.20271016  0.07296534  1
  Al  Al6  1  0.44489735  0.09407923  0.88835437  1
  Al  Al7  1  0.54602638  0.20517896  0.66129679  1
  Al  Al8  1  0.11251974  0.42924379  0.42990547  1
  Al  Al9  1  0.77741283  0.42360115  0.83820552  1
  Al  Al10  1  0.89805016  0.53947468  0.65638583  1
  Al  Al11  1  0.42912266  0.42713803  0.41221141  1
  Al  Al12  1  0.55023555  0.54353707  0.05285773  1
  Al  Al13  1  0.12163948  0.42780747  0.88172561  1
  Al  Al14  1  0.21453173  0.54358102  0.65612266  1
  Al  Al15  1  0.88181961  0.54151338  0.05021508  1
  Al  Al16  1  0.43292091  0.43297958  0.87970399  1
  Al  Al17  1  0.11977802  0.75094521  0.40836549  1
  Al  Al18  1  0.21028437  0.87900079  0.14691432  1
  Al  Al19  1  0.77776237  0.77698876  0.88634680  1
  Al  Al20  1  0.89810172  0.86484117  0.65222078  1
  Al  Al21  1  0.43771361  0.77093058  0.41137404  1
  Al  Al22  1  0.10974818  0.76499929  0.89637967  1
  Al  Al23  1  0.22506008  0.86852620  0.65082074  1
  Al  Al24  1  0.79464056  0.74479783  0.41306701  1
  Al  Al25  1  0.89926494  0.87006691  0.15049518  1
  Al  Al26  1  0.43940631  0.76644557  0.88751625  1
  Al  Al27  1  0.55723989  0.87861504  0.64797280  1
  Gd  Gd28  1  0.20475340  0.21195032  0.17094052  1
  Gd  Gd29  1  0.55318239  0.20951285  0.12570922  1
  Gd  Gd30  1  0.11912317  0.09471064  0.87514029  1
  Gd  Gd31  1  0.77896409  0.08060225  0.38376747  1
  Gd  Gd32  1  0.19882245  0.55432877  0.15158756  1
  Gd  Gd33  1  0.77842277  0.42537869  0.32363574  1
  Gd  Gd34  1  0.55639761  0.54125583  0.62164495  1
  Gd  Gd35  1  0.56497863  0.85360233  0.15023255  1
  N  N36  1  0.22629431  0.20077415  0.39501213  1
  N  N37  1  0.09583924  0.08861214  0.09334120  1
  N  N38  1  0.85562359  0.21702558  0.89381366  1
  N  N39  1  0.77876978  0.09789785  0.63600969  1
  N  N40  1  0.51742644  0.22235204  0.34477360  1
  N  N41  1  0.42941370  0.08477638  0.06456554  1
  N  N42  1  0.24498438  0.22241538  0.82077136  1
  N  N43  1  0.12241285  0.08728243  0.61975194  1
  N  N44  1  0.91628699  0.19517525  0.41977178  1
  N  N45  1  0.80429211  0.08889328  0.15847311  1
  N  N46  1  0.55542403  0.20346888  0.84597552  1
  N  N47  1  0.45729780  0.09074376  0.59913406  1
  N  N48  1  0.22104891  0.53429288  0.37041788  1
  N  N49  1  0.09268611  0.42571375  0.05748723  1
  N  N50  1  0.88671485  0.54665097  0.85367408  1
  N  N51  1  0.81300583  0.40712787  0.65992686  1
  N  N52  1  0.52921826  0.54903111  0.39798310  1
  N  N53  1  0.43297502  0.44870008  0.05878505  1
  N  N54  1  0.21299519  0.55076303  0.83878673  1
  N  N55  1  0.11012618  0.43372624  0.61015956  1
  N  N56  1  0.90873237  0.53550457  0.37712187  1
  N  N57  1  0.76582672  0.44167506  0.09871591  1
  N  N58  1  0.55681810  0.54257613  0.86156661  1
  N  N59  1  0.42608338  0.41231001  0.61338777  1
  N  N60  1  0.22570605  0.87190094  0.34260694  1
  N  N61  1  0.09602857  0.79214349  0.07519845  1
  N  N62  1  0.89499777  0.87364739  0.83258929  1
  N  N63  1  0.78355840  0.76053934  0.60181891  1
  N  N64  1  0.56691878  0.86867971  0.36813104  1
  N  N65  1  0.41915920  0.76071634  0.07021619  1
  N  N66  1  0.23809892  0.83984454  0.82615558  1
  N  N67  1  0.11250686  0.76352935  0.59161369  1
  N  N68  1  0.91861988  0.82532522  0.33371715  1
  N  N69  1  0.80535331  0.75975025  0.06598337  1
  N  N70  1  0.55748381  0.87189478  0.83455612  1
  N  N71  1  0.42801940  0.80035456  0.58995781  1
