# generated using pymatgen
data_Gd2Al7N9
_symmetry_space_group_name_H-M   'P 1'
_cell_length_a   9.87561473
_cell_length_b   9.86295341
_cell_length_c   10.48334290
_cell_angle_alpha   89.87151040
_cell_angle_beta   89.51617209
_cell_angle_gamma   60.09750954
_symmetry_Int_Tables_number   1
_chemical_formula_structural   Gd2Al7N9
_chemical_formula_sum   'Gd8 Al28 N36'
_cell_volume   885.13767721
_cell_formula_units_Z   4
loop_
 _symmetry_equiv_pos_site_id
 _symmetry_equiv_pos_as_xyz
  1  'x, y, z'
loop_
 _atom_site_type_symbol
 _atom_site_label
 _atom_site_symmetry_multiplicity
 _atom_site_fract_x
 _atom_site_fract_y
 _atom_site_fract_z
 _atom_site_occupancy
  Al  Al0  1  0.12024214  0.09077844  0.37031745  1
  Al  Al1  1  0.77413978  0.09259824  0.78581026  1
  Al  Al2  1  0.89433935  0.20685674  0.55805595  1
  Al  Al3  1  0.44296386  0.09740733  0.32250828  1
  Al  Al4  1  0.22678395  0.21175721  0.55178764  1
  Al  Al5  1  0.88125079  0.20269142  0.03006710  1
  Al  Al6  1  0.44742820  0.09368347  0.78140095  1
  Al  Al7  1  0.54701396  0.20842532  0.55806549  1
  Al  Al8  1  0.10525379  0.43654695  0.31935249  1
  Al  Al9  1  0.77956862  0.42830855  0.81247724  1
  Al  Al10  1  0.89799205  0.53858442  0.56237938  1
  Al  Al11  1  0.43798125  0.43491453  0.30917893  1
  Al  Al12  1  0.54688712  0.54355705  0.04151806  1
  Al  Al13  1  0.11664839  0.42994825  0.79038076  1
  Al  Al14  1  0.21911774  0.54001692  0.54870765  1
  Al  Al15  1  0.88709574  0.54359872  0.04265210  1
  Al  Al16  1  0.43540721  0.42655223  0.78796497  1
  Al  Al17  1  0.11134775  0.76259047  0.31039349  1
  Al  Al18  1  0.21341885  0.86679835  0.05383426  1
  Al  Al19  1  0.77948966  0.76230601  0.79653602  1
  Al  Al20  1  0.89436152  0.86410383  0.55690953  1
  Al  Al21  1  0.43518729  0.76033449  0.30222411  1
  Al  Al22  1  0.11599335  0.75076094  0.79657872  1
  Al  Al23  1  0.22504722  0.86691403  0.55173867  1
  Al  Al24  1  0.79364950  0.75316008  0.31247147  1
  Al  Al25  1  0.89633336  0.87366640  0.04913269  1
  Al  Al26  1  0.44194999  0.76134835  0.80159657  1
  Al  Al27  1  0.55544375  0.87453136  0.55313348  1
  Gd  Gd28  1  0.21527202  0.20652380  0.06861697  1
  Gd  Gd29  1  0.55583220  0.20836720  0.03604083  1
  Gd  Gd30  1  0.11567654  0.08437868  0.80476832  1
  Gd  Gd31  1  0.77907213  0.08856464  0.31041478  1
  Gd  Gd32  1  0.20922362  0.54738466  0.06333264  1
  Gd  Gd33  1  0.78697295  0.43414515  0.28462529  1
  Gd  Gd34  1  0.56217735  0.54002028  0.56663865  1
  Gd  Gd35  1  0.56261187  0.86234383  0.06052664  1
  N  N36  1  0.22201367  0.21056190  0.36532482  1
  N  N37  1  0.09142415  0.08191078  0.06620341  1
  N  N38  1  0.85816353  0.21361344  0.85072610  1
  N  N39  1  0.78188925  0.09130485  0.59951153  1
  N  N40  1  0.52711080  0.22541172  0.37656777  1
  N  N41  1  0.45423532  0.09217048  0.14636510  1
  N  N42  1  0.23993855  0.21905342  0.84659797  1
  N  N43  1  0.11882507  0.09088563  0.57763128  1
  N  N44  1  0.90650998  0.20443492  0.37760547  1
  N  N45  1  0.79577151  0.08493616  0.09565954  1
  N  N46  1  0.55579190  0.20238708  0.81828137  1
  N  N47  1  0.44398239  0.09192766  0.59853153  1
  N  N48  1  0.22044578  0.54301408  0.35951675  1
  N  N49  1  0.06667690  0.44272675  0.14263788  1
  N  N50  1  0.89610095  0.54240527  0.85736128  1
  N  N51  1  0.81596483  0.41138943  0.62748567  1
  N  N52  1  0.53674976  0.55063593  0.35624781  1
  N  N53  1  0.45737352  0.43855093  0.12648346  1
  N  N54  1  0.22100769  0.53656399  0.84355860  1
  N  N55  1  0.11507897  0.42908505  0.60635382  1
  N  N56  1  0.89868194  0.55112534  0.38416805  1
  N  N57  1  0.77042642  0.43475562  0.06468180  1
  N  N58  1  0.55054466  0.53926478  0.84601747  1
  N  N59  1  0.42607482  0.42148026  0.60943692  1
  N  N60  1  0.22400152  0.86859891  0.36742957  1
  N  N61  1  0.09315589  0.78917970  0.12951702  1
  N  N62  1  0.89193471  0.86974068  0.85580783  1
  N  N63  1  0.77750789  0.76146792  0.61419004  1
  N  N64  1  0.56093278  0.86472015  0.36308651  1
  N  N65  1  0.42368788  0.75049630  0.11799282  1
  N  N66  1  0.23765793  0.83188862  0.87016830  1
  N  N67  1  0.11390537  0.76075545  0.61120707  1
  N  N68  1  0.90700817  0.84407928  0.37847374  1
  N  N69  1  0.81090127  0.74809213  0.12203795  1
  N  N70  1  0.55476852  0.87559069  0.84150967  1
  N  N71  1  0.42582211  0.79411666  0.62087685  1
