# generated using pymatgen
data_Gd2Al7N9
_symmetry_space_group_name_H-M   'P 1'
_cell_length_a   9.87042582
_cell_length_b   9.82133115
_cell_length_c   10.74290932
_cell_angle_alpha   89.47597185
_cell_angle_beta   89.34908789
_cell_angle_gamma   59.96684836
_symmetry_Int_Tables_number   1
_chemical_formula_structural   Gd2Al7N9
_chemical_formula_sum   'Gd8 Al28 N36'
_cell_volume   901.53400732
_cell_formula_units_Z   4
loop_
 _symmetry_equiv_pos_site_id
 _symmetry_equiv_pos_as_xyz
  1  'x, y, z'
loop_
 _atom_site_type_symbol
 _atom_site_label
 _atom_site_symmetry_multiplicity
 _atom_site_fract_x
 _atom_site_fract_y
 _atom_site_fract_z
 _atom_site_occupancy
  Al  Al0  1  0.12588095  0.08460169  0.38364483  1
  Al  Al1  1  0.77145029  0.09697330  0.78282720  1
  Al  Al2  1  0.89400206  0.20466498  0.55499674  1
  Al  Al3  1  0.44326107  0.10220338  0.32320414  1
  Al  Al4  1  0.22912970  0.21116228  0.55261584  1
  Al  Al5  1  0.87448413  0.20575098  0.02473213  1
  Al  Al6  1  0.44782959  0.09413167  0.78661671  1
  Al  Al7  1  0.54703874  0.20893253  0.55584532  1
  Al  Al8  1  0.10642202  0.43627561  0.31776037  1
  Al  Al9  1  0.77747493  0.42766199  0.80381059  1
  Al  Al10  1  0.90447855  0.52875180  0.56916550  1
  Al  Al11  1  0.44017178  0.43798557  0.30725933  1
  Al  Al12  1  0.54853908  0.53231133  0.03300341  1
  Al  Al13  1  0.12095017  0.42872629  0.79217165  1
  Al  Al14  1  0.21877069  0.53784936  0.54559176  1
  Al  Al15  1  0.89047956  0.53292052  0.03103453  1
  Al  Al16  1  0.43485100  0.42502524  0.78686848  1
  Al  Al17  1  0.10844142  0.76083075  0.30935720  1
  Al  Al18  1  0.20957534  0.87958002  0.11827780  1
  Al  Al19  1  0.77797676  0.76413638  0.85442523  1
  Al  Al20  1  0.89679149  0.87218153  0.56017437  1
  Al  Al21  1  0.43488774  0.77470362  0.37690928  1
  Al  Al22  1  0.11370306  0.75007991  0.78380010  1
  Al  Al23  1  0.22803092  0.86636675  0.61335283  1
  Al  Al24  1  0.78497918  0.75725876  0.39851534  1
  Al  Al25  1  0.90019943  0.88009291  0.03195939  1
  Al  Al26  1  0.43743834  0.76257300  0.86211425  1
  Al  Al27  1  0.55401472  0.87827524  0.59156405  1
  Gd  Gd28  1  0.21347276  0.20273706  0.07243124  1
  Gd  Gd29  1  0.55106403  0.20210051  0.03394676  1
  Gd  Gd30  1  0.10763486  0.09945683  0.81587329  1
  Gd  Gd31  1  0.78130157  0.08715839  0.30230858  1
  Gd  Gd32  1  0.20583053  0.55091464  0.06065220  1
  Gd  Gd33  1  0.79039778  0.43497833  0.28661739  1
  Gd  Gd34  1  0.56167470  0.53664914  0.57363746  1
  Gd  Gd35  1  0.57418446  0.83393365  0.12754918  1
  N  N36  1  0.22480974  0.21046372  0.37086120  1
  N  N37  1  0.09150318  0.07472973  0.04034968  1
  N  N38  1  0.84899667  0.21937482  0.85087876  1
  N  N39  1  0.77864939  0.09652815  0.60116021  1
  N  N40  1  0.53087780  0.22562766  0.37729811  1
  N  N41  1  0.45173473  0.08685346  0.14922238  1
  N  N42  1  0.24597755  0.22197295  0.85885402  1
  N  N43  1  0.11964716  0.08765852  0.57502289  1
  N  N44  1  0.90919000  0.20068025  0.37766230  1
  N  N45  1  0.79235340  0.08624292  0.09093660  1
  N  N46  1  0.55580222  0.20168326  0.82145567  1
  N  N47  1  0.44155247  0.09755065  0.60573886  1
  N  N48  1  0.22226569  0.54217413  0.35922344  1
  N  N49  1  0.05955987  0.44646640  0.14415723  1
  N  N50  1  0.90253324  0.52604852  0.84953947  1
  N  N51  1  0.81683367  0.40689476  0.62580711  1
  N  N52  1  0.53922338  0.55287648  0.35877199  1
  N  N53  1  0.45646499  0.43571569  0.12725106  1
  N  N54  1  0.22011682  0.54169362  0.84495680  1
  N  N55  1  0.11924244  0.42477055  0.61191201  1
  N  N56  1  0.90733898  0.54047240  0.39209363  1
  N  N57  1  0.76756423  0.43575733  0.06897182  1
  N  N58  1  0.55218697  0.53250839  0.84045731  1
  N  N59  1  0.42340712  0.42002356  0.61086956  1
  N  N60  1  0.22807691  0.88181150  0.30717520  1
  N  N61  1  0.08225033  0.78959726  0.13207822  1
  N  N62  1  0.89836039  0.87754365  0.84308150  1
  N  N63  1  0.77625571  0.76257347  0.58217059  1
  N  N64  1  0.56980758  0.86779449  0.35032360  1
  N  N65  1  0.41185831  0.75455616  0.04092943  1
  N  N66  1  0.24231122  0.84121929  0.78810435  1
  N  N67  1  0.11220237  0.75399378  0.60281640  1
  N  N68  1  0.90940062  0.84987731  0.38353375  1
  N  N69  1  0.80547053  0.75325901  0.03583752  1
  N  N70  1  0.55470075  0.86932816  0.82031265  1
  N  N71  1  0.42596582  0.79669059  0.55125206  1
