# generated using pymatgen
data_Gd2Al7N9
_symmetry_space_group_name_H-M   'P 1'
_cell_length_a   9.87524889
_cell_length_b   9.82529181
_cell_length_c   10.73337358
_cell_angle_alpha   89.46768529
_cell_angle_beta   89.33504367
_cell_angle_gamma   59.96020719
_symmetry_Int_Tables_number   1
_chemical_formula_structural   Gd2Al7N9
_chemical_formula_sum   'Gd8 Al28 N36'
_cell_volume   901.47428401
_cell_formula_units_Z   4
loop_
 _symmetry_equiv_pos_site_id
 _symmetry_equiv_pos_as_xyz
  1  'x, y, z'
loop_
 _atom_site_type_symbol
 _atom_site_label
 _atom_site_symmetry_multiplicity
 _atom_site_fract_x
 _atom_site_fract_y
 _atom_site_fract_z
 _atom_site_occupancy
  Al  Al0  1  0.12589363  0.08474592  0.38369372  1
  Al  Al1  1  0.77140625  0.09696592  0.78285584  1
  Al  Al2  1  0.89393704  0.20481369  0.55502370  1
  Al  Al3  1  0.44291582  0.10316916  0.32311676  1
  Al  Al4  1  0.22890388  0.21139171  0.55292318  1
  Al  Al5  1  0.87449292  0.20564344  0.02475733  1
  Al  Al6  1  0.44897669  0.09181514  0.78702861  1
  Al  Al7  1  0.54705197  0.20915192  0.55629870  1
  Al  Al8  1  0.10670435  0.43602493  0.31779496  1
  Al  Al9  1  0.77745809  0.42767210  0.80396362  1
  Al  Al10  1  0.90422921  0.52902290  0.56944786  1
  Al  Al11  1  0.44028133  0.43786470  0.30727389  1
  Al  Al12  1  0.54844571  0.53192931  0.03313817  1
  Al  Al13  1  0.12105975  0.42856759  0.79229116  1
  Al  Al14  1  0.21875182  0.53790785  0.54563151  1
  Al  Al15  1  0.89089382  0.53252571  0.03105808  1
  Al  Al16  1  0.43477682  0.42482419  0.78695487  1
  Al  Al17  1  0.10857907  0.76086943  0.30940126  1
  Al  Al18  1  0.20933245  0.87957661  0.11835703  1
  Al  Al19  1  0.77754239  0.76441699  0.85504253  1
  Al  Al20  1  0.89667358  0.87227740  0.56051639  1
  Al  Al21  1  0.43401232  0.77402083  0.37614874  1
  Al  Al22  1  0.11376681  0.75001165  0.78398081  1
  Al  Al23  1  0.22776724  0.86650675  0.61345282  1
  Al  Al24  1  0.78697917  0.75649480  0.39767002  1
  Al  Al25  1  0.90040562  0.87998144  0.03211280  1
  Al  Al26  1  0.43739564  0.76286652  0.86289174  1
  Al  Al27  1  0.55331798  0.88051559  0.57831599  1
  Gd  Gd28  1  0.21373168  0.20250068  0.07231827  1
  Gd  Gd29  1  0.55104925  0.20174462  0.03368050  1
  Gd  Gd30  1  0.10778100  0.09935324  0.81595205  1
  Gd  Gd31  1  0.78128622  0.08740249  0.30241723  1
  Gd  Gd32  1  0.20571876  0.55098072  0.06089648  1
  Gd  Gd33  1  0.79057814  0.43496397  0.28653834  1
  Gd  Gd34  1  0.56140662  0.53718239  0.57430366  1
  Gd  Gd35  1  0.57389456  0.83437871  0.12486614  1
  N  N36  1  0.22483855  0.21052458  0.37102044  1
  N  N37  1  0.09146147  0.07480190  0.04052547  1
  N  N38  1  0.84906689  0.21929810  0.85076968  1
  N  N39  1  0.77870131  0.09659646  0.60101650  1
  N  N40  1  0.53090074  0.22579019  0.37750524  1
  N  N41  1  0.45187611  0.08667109  0.14965871  1
  N  N42  1  0.24609363  0.22181565  0.85855541  1
  N  N43  1  0.11954353  0.08778947  0.57509452  1
  N  N44  1  0.90933033  0.20077073  0.37750864  1
  N  N45  1  0.79225694  0.08623038  0.09091581  1
  N  N46  1  0.55570277  0.20150904  0.82096221  1
  N  N47  1  0.44175421  0.09703522  0.60561557  1
  N  N48  1  0.22231655  0.54218998  0.35914769  1
  N  N49  1  0.05986223  0.44588743  0.14425079  1
  N  N50  1  0.90250392  0.52603130  0.84942085  1
  N  N51  1  0.81667767  0.40704254  0.62564526  1
  N  N52  1  0.53940524  0.55271681  0.35861541  1
  N  N53  1  0.45655209  0.43513955  0.12723676  1
  N  N54  1  0.22009296  0.54161679  0.84506908  1
  N  N55  1  0.11912046  0.42497186  0.61186183  1
  N  N56  1  0.90765502  0.54029201  0.39205035  1
  N  N57  1  0.76753840  0.43573004  0.06887572  1
  N  N58  1  0.55212066  0.53250413  0.84036449  1
  N  N59  1  0.42333116  0.42022075  0.61077591  1
  N  N60  1  0.22774440  0.88205723  0.30712135  1
  N  N61  1  0.08219834  0.78968901  0.13221333  1
  N  N62  1  0.89831202  0.87751452  0.84307524  1
  N  N63  1  0.77571877  0.76300315  0.58199694  1
  N  N64  1  0.56932691  0.86905020  0.35378868  1
  N  N65  1  0.41128893  0.75363256  0.04178185  1
  N  N66  1  0.24243811  0.84107423  0.78825168  1
  N  N67  1  0.11211953  0.75402542  0.60283506  1
  N  N68  1  0.90977535  0.85007511  0.38357697  1
  N  N69  1  0.80718299  0.75220027  0.03683233  1
  N  N70  1  0.55408279  0.87063231  0.82906720  1
  N  N71  1  0.42501711  0.79673754  0.55056409  1
