# generated using pymatgen
data_Gd2Al7N9
_symmetry_space_group_name_H-M   'P 1'
_cell_length_a   9.89574258
_cell_length_b   9.91524482
_cell_length_c   10.51248616
_cell_angle_alpha   90.53505707
_cell_angle_beta   90.23274963
_cell_angle_gamma   59.82711331
_symmetry_Int_Tables_number   1
_chemical_formula_structural   Gd2Al7N9
_chemical_formula_sum   'Gd8 Al28 N36'
_cell_volume   891.68120846
_cell_formula_units_Z   4
loop_
 _symmetry_equiv_pos_site_id
 _symmetry_equiv_pos_as_xyz
  1  'x, y, z'
loop_
 _atom_site_type_symbol
 _atom_site_label
 _atom_site_symmetry_multiplicity
 _atom_site_fract_x
 _atom_site_fract_y
 _atom_site_fract_z
 _atom_site_occupancy
  Al  Al0  1  0.11852140  0.08539546  0.41614018  1
  Al  Al1  1  0.77691320  0.09376783  0.86244009  1
  Al  Al2  1  0.88989484  0.20360843  0.65171448  1
  Al  Al3  1  0.44473488  0.09071092  0.42336096  1
  Al  Al4  1  0.22322935  0.21102033  0.63620595  1
  Al  Al5  1  0.89867706  0.19531992  0.15779850  1
  Al  Al6  1  0.44304668  0.09685300  0.88266172  1
  Al  Al7  1  0.54837931  0.20194862  0.65917063  1
  Al  Al8  1  0.11230232  0.43312235  0.41722572  1
  Al  Al9  1  0.78191694  0.43375476  0.82872332  1
  Al  Al10  1  0.89380479  0.54616669  0.64945723  1
  Al  Al11  1  0.42546327  0.42494053  0.42168555  1
  Al  Al12  1  0.56892776  0.53427693  0.06232808  1
  Al  Al13  1  0.11057842  0.43157431  0.88602297  1
  Al  Al14  1  0.21081500  0.53953517  0.65356856  1
  Al  Al15  1  0.89389761  0.53977943  0.13974242  1
  Al  Al16  1  0.43827604  0.42835760  0.88589728  1
  Al  Al17  1  0.12075642  0.75139845  0.40680085  1
  Al  Al18  1  0.21870448  0.87031803  0.15164008  1
  Al  Al19  1  0.78742153  0.75935206  0.89432204  1
  Al  Al20  1  0.89426345  0.86590338  0.65345255  1
  Al  Al21  1  0.43115161  0.77382763  0.41234947  1
  Al  Al22  1  0.11403063  0.76131465  0.89400534  1
  Al  Al23  1  0.21572601  0.87817125  0.64866794  1
  Al  Al24  1  0.79404902  0.75375537  0.40137773  1
  Al  Al25  1  0.90329958  0.86684358  0.14366936  1
  Al  Al26  1  0.44180585  0.76540625  0.89169648  1
  Al  Al27  1  0.55658597  0.87759051  0.64915729  1
  Gd  Gd28  1  0.21513464  0.21103863  0.17282312  1
  Gd  Gd29  1  0.55604658  0.20841361  0.13524746  1
  Gd  Gd30  1  0.11655360  0.09554045  0.89413225  1
  Gd  Gd31  1  0.78040226  0.08354648  0.40094203  1
  Gd  Gd32  1  0.21361161  0.54882059  0.14754905  1
  Gd  Gd33  1  0.76795083  0.44208485  0.36900537  1
  Gd  Gd34  1  0.53165958  0.55489646  0.63321045  1
  Gd  Gd35  1  0.56402803  0.85887274  0.14572449  1
  N  N36  1  0.22347113  0.20219595  0.39527004  1
  N  N37  1  0.10747186  0.08133394  0.10547305  1
  N  N38  1  0.86648077  0.21806951  0.83351470  1
  N  N39  1  0.77589112  0.09228129  0.62216450  1
  N  N40  1  0.52138287  0.21707789  0.35339355  1
  N  N41  1  0.43167010  0.09041617  0.05958891  1
  N  N42  1  0.23439304  0.22376505  0.81856927  1
  N  N43  1  0.10386133  0.09425012  0.60281249  1
  N  N44  1  0.92040774  0.18852246  0.34124195  1
  N  N45  1  0.80602631  0.07941800  0.10750961  1
  N  N46  1  0.55547195  0.20506494  0.84369189  1
  N  N47  1  0.45245563  0.09008511  0.60365470  1
  N  N48  1  0.22036557  0.53539292  0.36618102  1
  N  N49  1  0.08975715  0.42874715  0.06342351  1
  N  N50  1  0.89124097  0.54639657  0.83186929  1
  N  N51  1  0.79660958  0.42317937  0.62495547  1
  N  N52  1  0.51251442  0.55565533  0.40766057  1
  N  N53  1  0.44827185  0.44318424  0.06154582  1
  N  N54  1  0.21685340  0.54465645  0.83900522  1
  N  N55  1  0.10232567  0.43686005  0.59658626  1
  N  N56  1  0.91596690  0.54834069  0.32883791  1
  N  N57  1  0.77372112  0.43196318  0.13186750  1
  N  N58  1  0.56542337  0.53989387  0.86583526  1
  N  N59  1  0.42099131  0.40733925  0.60522244  1
  N  N60  1  0.22285567  0.87014204  0.34303188  1
  N  N61  1  0.10439002  0.78625975  0.07431497  1
  N  N62  1  0.89364339  0.86980239  0.83567677  1
  N  N63  1  0.78291884  0.76126859  0.58950400  1
  N  N64  1  0.56296888  0.86812622  0.36475447  1
  N  N65  1  0.42648709  0.75380930  0.07390884  1
  N  N66  1  0.23775992  0.84288126  0.82562298  1
  N  N67  1  0.11117659  0.76232697  0.59208077  1
  N  N68  1  0.91504413  0.83822566  0.33064385  1
  N  N69  1  0.81146021  0.74812139  0.07536753  1
  N  N70  1  0.56171726  0.86778211  0.83762055  1
  N  N71  1  0.41962322  0.81005892  0.59017166  1
