# generated using pymatgen
data_Gd2Al7N9
_symmetry_space_group_name_H-M   'P 1'
_cell_length_a   9.87553258
_cell_length_b   9.85695407
_cell_length_c   10.43294128
_cell_angle_alpha   90.44062688
_cell_angle_beta   90.33449286
_cell_angle_gamma   60.03241770
_symmetry_Int_Tables_number   1
_chemical_formula_structural   Gd2Al7N9
_chemical_formula_sum   'Gd8 Al28 N36'
_cell_volume   879.76854965
_cell_formula_units_Z   4
loop_
 _symmetry_equiv_pos_site_id
 _symmetry_equiv_pos_as_xyz
  1  'x, y, z'
loop_
 _atom_site_type_symbol
 _atom_site_label
 _atom_site_symmetry_multiplicity
 _atom_site_fract_x
 _atom_site_fract_y
 _atom_site_fract_z
 _atom_site_occupancy
  Al  Al0  1  0.11461375  0.08619138  0.42054218  1
  Al  Al1  1  0.78144836  0.09355415  0.89412403  1
  Al  Al2  1  0.88751227  0.20862125  0.66213997  1
  Al  Al3  1  0.44470946  0.09180274  0.42625002  1
  Al  Al4  1  0.22474106  0.21113897  0.63508377  1
  Al  Al5  1  0.89895456  0.19408846  0.14684584  1
  Al  Al6  1  0.44411361  0.09798525  0.88192228  1
  Al  Al7  1  0.55426980  0.20397337  0.66476453  1
  Al  Al8  1  0.11157052  0.43602417  0.42274105  1
  Al  Al9  1  0.77407957  0.43278469  0.91037763  1
  Al  Al10  1  0.89269248  0.53775576  0.65644961  1
  Al  Al11  1  0.42765331  0.42924575  0.41232415  1
  Al  Al12  1  0.54000500  0.54726620  0.14817344  1
  Al  Al13  1  0.11110866  0.42955648  0.88488509  1
  Al  Al14  1  0.21660150  0.54090728  0.65418800  1
  Al  Al15  1  0.89332588  0.54129441  0.13792703  1
  Al  Al16  1  0.44159842  0.43429159  0.89853132  1
  Al  Al17  1  0.11414938  0.75749173  0.40915383  1
  Al  Al18  1  0.21412280  0.87349577  0.15503334  1
  Al  Al19  1  0.78740359  0.75707846  0.89325380  1
  Al  Al20  1  0.89168186  0.87038442  0.65823899  1
  Al  Al21  1  0.43320088  0.77120835  0.40271042  1
  Al  Al22  1  0.11490402  0.75984600  0.89454025  1
  Al  Al23  1  0.22207974  0.86972344  0.64882095  1
  Al  Al24  1  0.79172624  0.75619501  0.40245650  1
  Al  Al25  1  0.90122581  0.86991092  0.13923473  1
  Al  Al26  1  0.44407285  0.75364950  0.90389668  1
  Al  Al27  1  0.55787540  0.87351099  0.65054973  1
  Gd  Gd28  1  0.21189701  0.20974856  0.17687799  1
  Gd  Gd29  1  0.55496909  0.20672962  0.13495592  1
  Gd  Gd30  1  0.12227242  0.09230018  0.88812099  1
  Gd  Gd31  1  0.77700164  0.08956813  0.40503921  1
  Gd  Gd32  1  0.20188448  0.55098544  0.15179286  1
  Gd  Gd33  1  0.78139431  0.43503451  0.38032783  1
  Gd  Gd34  1  0.55509741  0.54339707  0.65132836  1
  Gd  Gd35  1  0.56453665  0.86326655  0.14344215  1
  N  N36  1  0.22090743  0.20418524  0.40370861  1
  N  N37  1  0.10752059  0.08055225  0.10038020  1
  N  N38  1  0.86368019  0.22446512  0.84439637  1
  N  N39  1  0.77720155  0.09520905  0.62075038  1
  N  N40  1  0.51943160  0.21797863  0.35180182  1
  N  N41  1  0.42572211  0.09547884  0.06037581  1
  N  N42  1  0.23779742  0.22359557  0.81735438  1
  N  N43  1  0.10527383  0.09049497  0.60920642  1
  N  N44  1  0.92133570  0.18607841  0.32919650  1
  N  N45  1  0.80515980  0.08065516  0.08206728  1
  N  N46  1  0.55823145  0.20791726  0.85131724  1
  N  N47  1  0.45670766  0.08923602  0.60758199  1
  N  N48  1  0.21746783  0.54058044  0.37128540  1
  N  N49  1  0.08800302  0.42388890  0.06317047  1
  N  N50  1  0.88477177  0.53960683  0.83954917  1
  N  N51  1  0.80788140  0.41319855  0.59547279  1
  N  N52  1  0.51733307  0.55428303  0.34057981  1
  N  N53  1  0.44171058  0.44760481  0.07686349  1
  N  N54  1  0.22045899  0.54229298  0.84216540  1
  N  N55  1  0.10346869  0.43939427  0.60287107  1
  N  N56  1  0.91775212  0.54887300  0.32520204  1
  N  N57  1  0.77191768  0.43382518  0.10628450  1
  N  N58  1  0.56016033  0.53826461  0.86400055  1
  N  N59  1  0.43087496  0.41298438  0.59782787  1
  N  N60  1  0.21850121  0.87348241  0.34677456  1
  N  N61  1  0.10341100  0.78713009  0.07616070  1
  N  N62  1  0.89347636  0.87035293  0.83986553  1
  N  N63  1  0.78303478  0.75860170  0.59263313  1
  N  N64  1  0.56145247  0.87173190  0.36328407  1
  N  N65  1  0.42303605  0.75604225  0.08840163  1
  N  N66  1  0.24352936  0.83679241  0.82765215  1
  N  N67  1  0.10777535  0.76444863  0.59437045  1
  N  N68  1  0.90871158  0.84565996  0.32872301  1
  N  N69  1  0.81268851  0.74846244  0.07537587  1
  N  N70  1  0.56007358  0.86487307  0.84202141  1
  N  N71  1  0.42845944  0.79324660  0.58322758  1
