# generated using pymatgen
data_Gd2Al7N9
_symmetry_space_group_name_H-M   'P 1'
_cell_length_a   9.89546128
_cell_length_b   9.85613936
_cell_length_c   10.65577199
_cell_angle_alpha   89.29663543
_cell_angle_beta   89.18301586
_cell_angle_gamma   59.91155530
_symmetry_Int_Tables_number   1
_chemical_formula_structural   Gd2Al7N9
_chemical_formula_sum   'Gd8 Al28 N36'
_cell_volume   899.12258129
_cell_formula_units_Z   4
loop_
 _symmetry_equiv_pos_site_id
 _symmetry_equiv_pos_as_xyz
  1  'x, y, z'
loop_
 _atom_site_type_symbol
 _atom_site_label
 _atom_site_symmetry_multiplicity
 _atom_site_fract_x
 _atom_site_fract_y
 _atom_site_fract_z
 _atom_site_occupancy
  Al  Al0  1  0.12628638  0.08552621  0.38360615  1
  Al  Al1  1  0.77151059  0.09683966  0.78298908  1
  Al  Al2  1  0.89402878  0.20527416  0.55505758  1
  Al  Al3  1  0.44398810  0.10374089  0.32280410  1
  Al  Al4  1  0.22963352  0.21079950  0.55392990  1
  Al  Al5  1  0.87496977  0.20456130  0.02524003  1
  Al  Al6  1  0.44935078  0.08989816  0.78912212  1
  Al  Al7  1  0.54728828  0.20876779  0.55763917  1
  Al  Al8  1  0.10664293  0.43620142  0.31954401  1
  Al  Al9  1  0.77769059  0.42642166  0.80453413  1
  Al  Al10  1  0.90379537  0.52996656  0.57232197  1
  Al  Al11  1  0.44078836  0.43808801  0.30799189  1
  Al  Al12  1  0.54791144  0.53076516  0.03382307  1
  Al  Al13  1  0.12198421  0.42767247  0.79276068  1
  Al  Al14  1  0.21911528  0.53744624  0.54585002  1
  Al  Al15  1  0.89094441  0.53342442  0.02973768  1
  Al  Al16  1  0.43426114  0.42401772  0.78726521  1
  Al  Al17  1  0.10882855  0.76154327  0.31137874  1
  Al  Al18  1  0.20831199  0.87945216  0.11906501  1
  Al  Al19  1  0.77918538  0.76258968  0.84078200  1
  Al  Al20  1  0.89637592  0.87164234  0.56361677  1
  Al  Al21  1  0.43490479  0.77348482  0.37421378  1
  Al  Al22  1  0.11414392  0.74920896  0.78431038  1
  Al  Al23  1  0.22781016  0.86619297  0.61255310  1
  Al  Al24  1  0.78965969  0.75665307  0.39319070  1
  Al  Al25  1  0.89964933  0.87893933  0.03217269  1
  Al  Al26  1  0.43508272  0.76069129  0.86270555  1
  Al  Al27  1  0.55316896  0.88268407  0.56178794  1
  Gd  Gd28  1  0.21221963  0.20352049  0.07494482  1
  Gd  Gd29  1  0.55050117  0.20360327  0.03470489  1
  Gd  Gd30  1  0.10865358  0.09859028  0.81645761  1
  Gd  Gd31  1  0.78218645  0.08810360  0.30373878  1
  Gd  Gd32  1  0.20357737  0.55245688  0.06359275  1
  Gd  Gd33  1  0.79129999  0.43725002  0.28566857  1
  Gd  Gd34  1  0.56128317  0.53729494  0.57521119  1
  Gd  Gd35  1  0.57020161  0.84087795  0.10032702  1
  N  N36  1  0.22553151  0.21068622  0.37103266  1
  N  N37  1  0.09173112  0.07490473  0.04150169  1
  N  N38  1  0.84993520  0.21804139  0.85014192  1
  N  N39  1  0.77897603  0.09669052  0.60032700  1
  N  N40  1  0.53122621  0.22624005  0.37756247  1
  N  N41  1  0.45156568  0.08755362  0.14956809  1
  N  N42  1  0.24567622  0.22179074  0.85918318  1
  N  N43  1  0.11970351  0.08764817  0.57535270  1
  N  N44  1  0.91008505  0.20235574  0.37617028  1
  N  N45  1  0.79220490  0.08547253  0.09070077  1
  N  N46  1  0.55563961  0.20078358  0.82059404  1
  N  N47  1  0.44305374  0.09452265  0.60665747  1
  N  N48  1  0.22227073  0.54239456  0.35887493  1
  N  N49  1  0.05807268  0.44547625  0.14569072  1
  N  N50  1  0.90218637  0.52608932  0.84672190  1
  N  N51  1  0.81655874  0.40685766  0.62510847  1
  N  N52  1  0.54006662  0.55301962  0.35766808  1
  N  N53  1  0.45566141  0.43523121  0.12765365  1
  N  N54  1  0.21985460  0.54112653  0.84603309  1
  N  N55  1  0.11987802  0.42431430  0.61167344  1
  N  N56  1  0.90706066  0.54263634  0.39399723  1
  N  N57  1  0.76761567  0.43540248  0.06670215  1
  N  N58  1  0.55195272  0.53164203  0.83895213  1
  N  N59  1  0.42337753  0.41978713  0.61037296  1
  N  N60  1  0.22776237  0.88251482  0.30820469  1
  N  N61  1  0.08084167  0.79125281  0.13357171  1
  N  N62  1  0.89792647  0.87690378  0.84105007  1
  N  N63  1  0.77545770  0.76326804  0.59367847  1
  N  N64  1  0.56973224  0.87268645  0.36175922  1
  N  N65  1  0.40784723  0.74979806  0.04193035  1
  N  N66  1  0.24110461  0.84099645  0.78854669  1
  N  N67  1  0.11302127  0.75318120  0.60229618  1
  N  N68  1  0.90978269  0.85053791  0.38562846  1
  N  N69  1  0.81363230  0.74823826  0.03846561  1
  N  N70  1  0.55158754  0.87280105  0.84671647  1
  N  N71  1  0.42549078  0.79591165  0.55095378  1
