# generated using pymatgen
data_Gd2Al7N9
_symmetry_space_group_name_H-M   'P 1'
_cell_length_a   9.87447638
_cell_length_b   9.86311336
_cell_length_c   10.63053736
_cell_angle_alpha   90.39159056
_cell_angle_beta   89.48198227
_cell_angle_gamma   60.16862696
_symmetry_Int_Tables_number   1
_chemical_formula_structural   Gd2Al7N9
_chemical_formula_sum   'Gd8 Al28 N36'
_cell_volume   898.03773626
_cell_formula_units_Z   4
loop_
 _symmetry_equiv_pos_site_id
 _symmetry_equiv_pos_as_xyz
  1  'x, y, z'
loop_
 _atom_site_type_symbol
 _atom_site_label
 _atom_site_symmetry_multiplicity
 _atom_site_fract_x
 _atom_site_fract_y
 _atom_site_fract_z
 _atom_site_occupancy
  Al  Al0  1  0.13125144  0.07838405  0.42692618  1
  Al  Al1  1  0.77406157  0.09950242  0.82460566  1
  Al  Al2  1  0.90041425  0.20496627  0.59731998  1
  Al  Al3  1  0.44435479  0.09113550  0.42122338  1
  Al  Al4  1  0.23050388  0.21088149  0.64467058  1
  Al  Al5  1  0.87707587  0.20320117  0.07227211  1
  Al  Al6  1  0.44432869  0.09907483  0.88771087  1
  Al  Al7  1  0.54416133  0.20582084  0.65694440  1
  Al  Al8  1  0.11066033  0.42760901  0.42222637  1
  Al  Al9  1  0.78137426  0.42670238  0.83850226  1
  Al  Al10  1  0.89812042  0.54000145  0.65948014  1
  Al  Al11  1  0.42768922  0.42487700  0.42201300  1
  Al  Al12  1  0.55562182  0.54385457  0.05203753  1
  Al  Al13  1  0.11478695  0.43483478  0.88571281  1
  Al  Al14  1  0.21385182  0.54064881  0.65281454  1
  Al  Al15  1  0.88662436  0.54535575  0.09799766  1
  Al  Al16  1  0.43533199  0.43079847  0.88417431  1
  Al  Al17  1  0.12133217  0.74865176  0.40845290  1
  Al  Al18  1  0.20916739  0.88035267  0.14547042  1
  Al  Al19  1  0.78187952  0.76918038  0.89122763  1
  Al  Al20  1  0.89781116  0.86180631  0.65267699  1
  Al  Al21  1  0.43793797  0.76919888  0.41209493  1
  Al  Al22  1  0.11090991  0.76332112  0.89430985  1
  Al  Al23  1  0.22446962  0.86902521  0.65036873  1
  Al  Al24  1  0.79569330  0.74106494  0.40624055  1
  Al  Al25  1  0.90012354  0.87036493  0.15086877  1
  Al  Al26  1  0.43980666  0.76809407  0.88777574  1
  Al  Al27  1  0.55768147  0.87783255  0.64872156  1
  Gd  Gd28  1  0.20330001  0.21432855  0.16786488  1
  Gd  Gd29  1  0.55094951  0.21284673  0.14037555  1
  Gd  Gd30  1  0.11733361  0.09503016  0.87383179  1
  Gd  Gd31  1  0.78264066  0.07387702  0.39052693  1
  Gd  Gd32  1  0.20864424  0.55630434  0.15423458  1
  Gd  Gd33  1  0.77155264  0.42057628  0.32703148  1
  Gd  Gd34  1  0.55166960  0.54352753  0.62723288  1
  Gd  Gd35  1  0.55934597  0.86045900  0.14969292  1
  N  N36  1  0.22635139  0.19841417  0.38869440  1
  N  N37  1  0.09535946  0.08923615  0.09090523  1
  N  N38  1  0.85313697  0.21940324  0.89349141  1
  N  N39  1  0.77912657  0.09567299  0.63493172  1
  N  N40  1  0.52151394  0.21883967  0.35510858  1
  N  N41  1  0.43018827  0.09152631  0.06365763  1
  N  N42  1  0.23984963  0.22727728  0.82299509  1
  N  N43  1  0.12231069  0.08784451  0.61937984  1
  N  N44  1  0.91666667  0.19286147  0.42112422  1
  N  N45  1  0.80371806  0.08952548  0.15981231  1
  N  N46  1  0.55247334  0.20808706  0.83917624  1
  N  N47  1  0.45361921  0.09022313  0.60023530  1
  N  N48  1  0.22194606  0.53201927  0.37069969  1
  N  N49  1  0.09424879  0.43477346  0.06155301  1
  N  N50  1  0.89066469  0.54829506  0.84433187  1
  N  N51  1  0.81042512  0.40846931  0.65761566  1
  N  N52  1  0.52618470  0.54893840  0.40329645  1
  N  N53  1  0.44177457  0.44539301  0.06004295  1
  N  N54  1  0.21673447  0.54823853  0.83577133  1
  N  N55  1  0.10673890  0.43306927  0.60182102  1
  N  N56  1  0.91122006  0.53417457  0.34618319  1
  N  N57  1  0.76857723  0.44017115  0.10461130  1
  N  N58  1  0.55923117  0.54350950  0.86298292  1
  N  N59  1  0.42394693  0.41057116  0.60375045  1
  N  N60  1  0.22553252  0.87025009  0.34146996  1
  N  N61  1  0.09609581  0.79208020  0.07297987  1
  N  N62  1  0.89336445  0.87265543  0.83281944  1
  N  N63  1  0.78482168  0.75702332  0.59469616  1
  N  N64  1  0.56647538  0.86718814  0.36668632  1
  N  N65  1  0.41907842  0.76137654  0.06964620  1
  N  N66  1  0.23871512  0.83940821  0.82488697  1
  N  N67  1  0.11247104  0.76272802  0.59101421  1
  N  N68  1  0.92147229  0.82225410  0.33173702  1
  N  N69  1  0.80291124  0.76065840  0.07126532  1
  N  N70  1  0.55850435  0.87303383  0.83561528  1
  N  N71  1  0.42747175  0.80127668  0.58968020  1
