# generated using pymatgen
data_Gd2Al7N9
_symmetry_space_group_name_H-M   'P 1'
_cell_length_a   9.86776577
_cell_length_b   9.77688880
_cell_length_c   10.99791157
_cell_angle_alpha   89.25726047
_cell_angle_beta   89.25661466
_cell_angle_gamma   59.66172724
_symmetry_Int_Tables_number   1
_chemical_formula_structural   Gd2Al7N9
_chemical_formula_sum   'Gd8 Al28 N36'
_cell_volume   915.63281979
_cell_formula_units_Z   4
loop_
 _symmetry_equiv_pos_site_id
 _symmetry_equiv_pos_as_xyz
  1  'x, y, z'
loop_
 _atom_site_type_symbol
 _atom_site_label
 _atom_site_symmetry_multiplicity
 _atom_site_fract_x
 _atom_site_fract_y
 _atom_site_fract_z
 _atom_site_occupancy
  Al  Al0  1  0.12374868  0.08559697  0.40853756  1
  Al  Al1  1  0.77131956  0.09638622  0.79146152  1
  Al  Al2  1  0.89497566  0.20636131  0.57130224  1
  Al  Al3  1  0.44707473  0.10235320  0.33962915  1
  Al  Al4  1  0.23223900  0.21207682  0.56730535  1
  Al  Al5  1  0.86742319  0.20366033  0.03055342  1
  Al  Al6  1  0.44423744  0.10467302  0.80126863  1
  Al  Al7  1  0.54983772  0.20711587  0.56489347  1
  Al  Al8  1  0.10049169  0.44488609  0.34000882  1
  Al  Al9  1  0.77674426  0.42581120  0.81257946  1
  Al  Al10  1  0.90597356  0.52929618  0.58593854  1
  Al  Al11  1  0.44259881  0.44155742  0.31184477  1
  Al  Al12  1  0.55040438  0.53023209  0.03994800  1
  Al  Al13  1  0.12006684  0.42461836  0.81526808  1
  Al  Al14  1  0.21933163  0.54293313  0.63860000  1
  Al  Al15  1  0.88207834  0.53142441  0.04168078  1
  Al  Al16  1  0.45010981  0.41994852  0.80031804  1
  Al  Al17  1  0.12783158  0.75475311  0.39686336  1
  Al  Al18  1  0.21003063  0.86925452  0.07694679  1
  Al  Al19  1  0.77568172  0.76009549  0.85916140  1
  Al  Al20  1  0.89608843  0.87511012  0.57660787  1
  Al  Al21  1  0.43394618  0.78310317  0.39753336  1
  Al  Al22  1  0.11595834  0.75971669  0.85861038  1
  Al  Al23  1  0.23199526  0.86464645  0.63026713  1
  Al  Al24  1  0.77830610  0.76338499  0.42061300  1
  Al  Al25  1  0.88374947  0.88284751  0.02401596  1
  Al  Al26  1  0.44302360  0.75985719  0.86587058  1
  Al  Al27  1  0.55789581  0.87221842  0.63508488  1
  Gd  Gd28  1  0.19579647  0.19384860  0.12636347  1
  Gd  Gd29  1  0.54312422  0.19897901  0.04669336  1
  Gd  Gd30  1  0.11126857  0.11033808  0.83156174  1
  Gd  Gd31  1  0.78792876  0.08643994  0.31066039  1
  Gd  Gd32  1  0.19811975  0.54381856  0.11389682  1
  Gd  Gd33  1  0.79551139  0.43875210  0.29594885  1
  Gd  Gd34  1  0.56881919  0.52720931  0.57003330  1
  Gd  Gd35  1  0.57206151  0.83280108  0.14965750  1
  N  N36  1  0.22461467  0.21297321  0.38708058  1
  N  N37  1  0.08568909  0.07830577  0.04261532  1
  N  N38  1  0.85087620  0.21613491  0.85979970  1
  N  N39  1  0.77876306  0.09967920  0.61495304  1
  N  N40  1  0.53485442  0.22769108  0.38926317  1
  N  N41  1  0.44613603  0.08969232  0.16855681  1
  N  N42  1  0.25206903  0.22528704  0.89068214  1
  N  N43  1  0.12165346  0.09001850  0.59191725  1
  N  N44  1  0.90576233  0.20774804  0.39585164  1
  N  N45  1  0.79233669  0.07775403  0.10042937  1
  N  N46  1  0.55977347  0.20025078  0.83939691  1
  N  N47  1  0.44282331  0.09949957  0.62311639  1
  N  N48  1  0.21841090  0.54985721  0.32776671  1
  N  N49  1  0.03292665  0.44893017  0.16978893  1
  N  N50  1  0.90201384  0.52157556  0.86494519  1
  N  N51  1  0.81625995  0.40915316  0.64165788  1
  N  N52  1  0.53813784  0.55992040  0.36349361  1
  N  N53  1  0.46184809  0.43248786  0.13316216  1
  N  N54  1  0.22206062  0.54398527  0.82152946  1
  N  N55  1  0.11863074  0.42017740  0.63545956  1
  N  N56  1  0.90432083  0.54333641  0.41414465  1
  N  N57  1  0.76652600  0.42860087  0.08052696  1
  N  N58  1  0.55520759  0.53134469  0.85432904  1
  N  N59  1  0.43581833  0.41338396  0.62865096  1
  N  N60  1  0.22180827  0.88174936  0.34167751  1
  N  N61  1  0.09997579  0.77595604  0.03365088  1
  N  N62  1  0.88660174  0.87724265  0.84198943  1
  N  N63  1  0.77914856  0.76352805  0.59968210  1
  N  N64  1  0.56962562  0.86910732  0.36142599  1
  N  N65  1  0.42290396  0.75771409  0.04149949  1
  N  N66  1  0.23858093  0.84621458  0.80211321  1
  N  N67  1  0.12703767  0.75448270  0.57806814  1
  N  N68  1  0.90424710  0.85433673  0.39931648  1
  N  N69  1  0.78993619  0.75692092  0.03847847  1
  N  N70  1  0.55460981  0.86695934  0.81352153  1
  N  N71  1  0.43597142  0.79058650  0.57239789  1
