# generated using pymatgen
data_Gd2Al7N9
_symmetry_space_group_name_H-M   'P 1'
_cell_length_a   9.74313350
_cell_length_b   9.79493539
_cell_length_c   11.11638725
_cell_angle_alpha   90.41372126
_cell_angle_beta   89.99087809
_cell_angle_gamma   59.91108719
_symmetry_Int_Tables_number   1
_chemical_formula_structural   Gd2Al7N9
_chemical_formula_sum   'Gd8 Al28 N36'
_cell_volume   917.88708986
_cell_formula_units_Z   4
loop_
 _symmetry_equiv_pos_site_id
 _symmetry_equiv_pos_as_xyz
  1  'x, y, z'
loop_
 _atom_site_type_symbol
 _atom_site_label
 _atom_site_symmetry_multiplicity
 _atom_site_fract_x
 _atom_site_fract_y
 _atom_site_fract_z
 _atom_site_occupancy
  Al  Al0  1  0.12488703  0.08097720  0.41082834  1
  Al  Al1  1  0.77685515  0.09691023  0.79567158  1
  Al  Al2  1  0.89472823  0.20105910  0.57045009  1
  Al  Al3  1  0.44448681  0.09316645  0.38555221  1
  Al  Al4  1  0.22145930  0.21093165  0.62054614  1
  Al  Al5  1  0.87081507  0.21086582  0.04031765  1
  Al  Al6  1  0.45428678  0.09922342  0.78294045  1
  Al  Al7  1  0.55640171  0.20743579  0.56650852  1
  Al  Al8  1  0.12486441  0.42812042  0.41447505  1
  Al  Al9  1  0.78073858  0.42197375  0.80706987  1
  Al  Al10  1  0.89657210  0.53064270  0.58276851  1
  Al  Al11  1  0.43964963  0.43453296  0.31764437  1
  Al  Al12  1  0.54829106  0.53779434  0.04637375  1
  Al  Al13  1  0.11953541  0.42816510  0.86171416  1
  Al  Al14  1  0.21371153  0.54293978  0.64197466  1
  Al  Al15  1  0.88418367  0.53435644  0.01934694  1
  Al  Al16  1  0.44745169  0.42039435  0.80141939  1
  Al  Al17  1  0.12766925  0.74862019  0.40210870  1
  Al  Al18  1  0.21230326  0.87852042  0.11692173  1
  Al  Al19  1  0.77488647  0.76542974  0.85565034  1
  Al  Al20  1  0.89488449  0.87309243  0.57520177  1
  Al  Al21  1  0.43163094  0.77779510  0.39342977  1
  Al  Al22  1  0.12194014  0.75809545  0.86621215  1
  Al  Al23  1  0.22681657  0.86895870  0.63424354  1
  Al  Al24  1  0.77850649  0.75690471  0.41455334  1
  Al  Al25  1  0.88458472  0.89073593  0.02298945  1
  Al  Al26  1  0.44631697  0.75664801  0.87076633  1
  Al  Al27  1  0.55865908  0.86647388  0.62758969  1
  Gd  Gd28  1  0.18270921  0.22385056  0.16714018  1
  Gd  Gd29  1  0.53260530  0.21454413  0.04578555  1
  Gd  Gd30  1  0.13056862  0.08948795  0.86922701  1
  Gd  Gd31  1  0.78630351  0.07832673  0.30830792  1
  Gd  Gd32  1  0.17971303  0.56989535  0.13441071  1
  Gd  Gd33  1  0.78063889  0.43163338  0.30186659  1
  Gd  Gd34  1  0.55714200  0.53373708  0.57510225  1
  Gd  Gd35  1  0.57414950  0.84363958  0.14618160  1
  N  N36  1  0.22213915  0.20411111  0.38019018  1
  N  N37  1  0.09136750  0.08978004  0.07385996  1
  N  N38  1  0.86324851  0.21503505  0.86638232  1
  N  N39  1  0.78098022  0.09538164  0.61985703  1
  N  N40  1  0.53595893  0.22477517  0.39250746  1
  N  N41  1  0.43300570  0.09368773  0.14088443  1
  N  N42  1  0.23602401  0.22593597  0.79267141  1
  N  N43  1  0.11941555  0.08560916  0.58912129  1
  N  N44  1  0.90359702  0.19859645  0.39657210  1
  N  N45  1  0.78702365  0.08742673  0.09977749  1
  N  N46  1  0.55830873  0.20063424  0.83956880  1
  N  N47  1  0.45521615  0.08848363  0.60033012  1
  N  N48  1  0.21656035  0.53847026  0.34310493  1
  N  N49  1  0.10599148  0.41956999  0.03315706  1
  N  N50  1  0.88545355  0.53729165  0.84592428  1
  N  N51  1  0.81160777  0.40638572  0.63593371  1
  N  N52  1  0.53161716  0.55503335  0.37245032  1
  N  N53  1  0.45129323  0.44773591  0.14041904  1
  N  N54  1  0.21670551  0.54551838  0.81786218  1
  N  N55  1  0.11837616  0.43070424  0.58452959  1
  N  N56  1  0.89982499  0.53916682  0.39784369  1
  N  N57  1  0.77350046  0.43743706  0.08715873  1
  N  N58  1  0.55776194  0.52767051  0.86006608  1
  N  N59  1  0.43467431  0.41002875  0.63286424  1
  N  N60  1  0.21918918  0.87447904  0.32535698  1
  N  N61  1  0.10423404  0.79063921  0.03871058  1
  N  N62  1  0.88864916  0.88059008  0.84461957  1
  N  N63  1  0.77886456  0.75831044  0.59155105  1
  N  N64  1  0.56548391  0.86783643  0.35852533  1
  N  N65  1  0.42261693  0.76269353  0.04608233  1
  N  N66  1  0.24437091  0.83946698  0.80115498  1
  N  N67  1  0.12679249  0.75398349  0.57840696  1
  N  N68  1  0.90340272  0.84987893  0.39842860  1
  N  N69  1  0.79941527  0.75562141  0.03718147  1
  N  N70  1  0.55275537  0.86945767  0.80651435  1
  N  N71  1  0.42742138  0.79549007  0.56536710  1
