# generated using pymatgen
data_Gd2Al7N9
_symmetry_space_group_name_H-M   'P 1'
_cell_length_a   9.89543817
_cell_length_b   9.83486371
_cell_length_c   10.75570135
_cell_angle_alpha   89.61172410
_cell_angle_beta   89.34660678
_cell_angle_gamma   59.79108253
_symmetry_Int_Tables_number   1
_chemical_formula_structural   Gd2Al7N9
_chemical_formula_sum   'Gd8 Al28 N36'
_cell_volume   904.53642495
_cell_formula_units_Z   4
loop_
 _symmetry_equiv_pos_site_id
 _symmetry_equiv_pos_as_xyz
  1  'x, y, z'
loop_
 _atom_site_type_symbol
 _atom_site_label
 _atom_site_symmetry_multiplicity
 _atom_site_fract_x
 _atom_site_fract_y
 _atom_site_fract_z
 _atom_site_occupancy
  Al  Al0  1  0.12544068  0.08254597  0.38825100  1
  Al  Al1  1  0.76985318  0.09790911  0.78666599  1
  Al  Al2  1  0.89549191  0.20311234  0.56092095  1
  Al  Al3  1  0.44256354  0.10135925  0.32952019  1
  Al  Al4  1  0.23166051  0.20633296  0.55979761  1
  Al  Al5  1  0.87518288  0.20681392  0.03312750  1
  Al  Al6  1  0.44442887  0.10156203  0.79285737  1
  Al  Al7  1  0.54829275  0.20531406  0.56139162  1
  Al  Al8  1  0.10085746  0.43635315  0.32829504  1
  Al  Al9  1  0.77747641  0.42523025  0.81205593  1
  Al  Al10  1  0.90563516  0.52586551  0.57938921  1
  Al  Al11  1  0.44273887  0.43639810  0.31503787  1
  Al  Al12  1  0.54703425  0.53822561  0.03930491  1
  Al  Al13  1  0.12224404  0.43008354  0.80103368  1
  Al  Al14  1  0.22592007  0.52771923  0.55541082  1
  Al  Al15  1  0.88425593  0.53814847  0.03559234  1
  Al  Al16  1  0.43448583  0.42532006  0.79674281  1
  Al  Al17  1  0.12031260  0.75955914  0.38455134  1
  Al  Al18  1  0.20858733  0.88038072  0.11370021  1
  Al  Al19  1  0.77917524  0.76108827  0.84918580  1
  Al  Al20  1  0.89639745  0.87046116  0.57235392  1
  Al  Al21  1  0.43744789  0.77388915  0.38554458  1
  Al  Al22  1  0.12079606  0.75826740  0.86096273  1
  Al  Al23  1  0.23041948  0.86061277  0.62127995  1
  Al  Al24  1  0.77752696  0.75779384  0.41017303  1
  Al  Al25  1  0.88591745  0.88813140  0.02312526  1
  Al  Al26  1  0.43860324  0.76216056  0.86511060  1
  Al  Al27  1  0.55503770  0.87199344  0.62637894  1
  Gd  Gd28  1  0.21005040  0.21321021  0.07713319  1
  Gd  Gd29  1  0.55140951  0.20928564  0.04365608  1
  Gd  Gd30  1  0.10610554  0.10232004  0.81963895  1
  Gd  Gd31  1  0.78240969  0.08480925  0.31057832  1
  Gd  Gd32  1  0.20297161  0.54964915  0.08617340  1
  Gd  Gd33  1  0.79088770  0.43517007  0.29149669  1
  Gd  Gd34  1  0.56381307  0.53282543  0.58023593  1
  Gd  Gd35  1  0.57288078  0.84099740  0.13367781  1
  N  N36  1  0.22431384  0.20787555  0.37807164  1
  N  N37  1  0.09116873  0.08579790  0.05308479  1
  N  N38  1  0.84936399  0.21644421  0.85939193  1
  N  N39  1  0.77841912  0.09726463  0.60617064  1
  N  N40  1  0.53099737  0.22373341  0.38380818  1
  N  N41  1  0.44851905  0.09531221  0.15463574  1
  N  N42  1  0.24430936  0.22141886  0.86358982  1
  N  N43  1  0.12143401  0.08445179  0.58217785  1
  N  N44  1  0.90929095  0.20034933  0.38423774  1
  N  N45  1  0.79497432  0.08397643  0.09932895  1
  N  N46  1  0.55639235  0.20151403  0.83176005  1
  N  N47  1  0.44342741  0.09564629  0.61339406  1
  N  N48  1  0.22404587  0.53482999  0.36320062  1
  N  N49  1  0.04380515  0.45360318  0.15645498  1
  N  N50  1  0.90304513  0.52398284  0.85442578  1
  N  N51  1  0.81864014  0.40350685  0.63509123  1
  N  N52  1  0.53956716  0.55141602  0.36809222  1
  N  N53  1  0.45821292  0.44267532  0.13644302  1
  N  N54  1  0.22461125  0.53476974  0.86211085  1
  N  N55  1  0.12139014  0.42282014  0.62045227  1
  N  N56  1  0.90335424  0.53966199  0.40408385  1
  N  N57  1  0.76512580  0.43794216  0.07302094  1
  N  N58  1  0.55189715  0.53277203  0.84669441  1
  N  N59  1  0.42674280  0.41533389  0.62085520  1
  N  N60  1  0.22268615  0.87460892  0.31188410  1
  N  N61  1  0.09811096  0.79383070  0.04316494  1
  N  N62  1  0.89154118  0.87831080  0.83528434  1
  N  N63  1  0.77764129  0.76020806  0.59459337  1
  N  N64  1  0.56853285  0.86458298  0.34898309  1
  N  N65  1  0.41718751  0.76166531  0.04347272  1
  N  N66  1  0.23998778  0.84026286  0.79481145  1
  N  N67  1  0.12578208  0.75525348  0.56627400  1
  N  N68  1  0.90219348  0.84822807  0.38857468  1
  N  N69  1  0.79715117  0.75923832  0.03166407  1
  N  N70  1  0.55370094  0.86680371  0.81027240  1
  N  N71  1  0.43068289  0.79479229  0.56140568  1
