# generated using pymatgen
data_Gd2Al7N9
_symmetry_space_group_name_H-M   'P 1'
_cell_length_a   9.88298315
_cell_length_b   9.87149652
_cell_length_c   10.44337940
_cell_angle_alpha   90.47400698
_cell_angle_beta   90.73506264
_cell_angle_gamma   60.00093087
_symmetry_Int_Tables_number   1
_chemical_formula_structural   Gd2Al7N9
_chemical_formula_sum   'Gd8 Al28 N36'
_cell_volume   882.28738825
_cell_formula_units_Z   4
loop_
 _symmetry_equiv_pos_site_id
 _symmetry_equiv_pos_as_xyz
  1  'x, y, z'
loop_
 _atom_site_type_symbol
 _atom_site_label
 _atom_site_symmetry_multiplicity
 _atom_site_fract_x
 _atom_site_fract_y
 _atom_site_fract_z
 _atom_site_occupancy
  Al  Al0  1  0.11324803  0.08674743  0.41659654  1
  Al  Al1  1  0.78209178  0.09300931  0.89124168  1
  Al  Al2  1  0.88698748  0.20899802  0.65825193  1
  Al  Al3  1  0.44237796  0.09264874  0.42465477  1
  Al  Al4  1  0.22351441  0.21175805  0.63388262  1
  Al  Al5  1  0.90184476  0.19096774  0.14451669  1
  Al  Al6  1  0.44524800  0.09736915  0.88069437  1
  Al  Al7  1  0.55354640  0.20292284  0.66274137  1
  Al  Al8  1  0.10864843  0.43650867  0.41969408  1
  Al  Al9  1  0.78048168  0.43094510  0.90227182  1
  Al  Al10  1  0.89208506  0.53804490  0.65298067  1
  Al  Al11  1  0.42581839  0.42995285  0.41593231  1
  Al  Al12  1  0.55132510  0.54294135  0.10286501  1
  Al  Al13  1  0.11189011  0.43015002  0.88389501  1
  Al  Al14  1  0.21414555  0.54131978  0.65205668  1
  Al  Al15  1  0.89580525  0.54256953  0.13638338  1
  Al  Al16  1  0.44061198  0.43070276  0.89119036  1
  Al  Al17  1  0.11336387  0.75736355  0.40687655  1
  Al  Al18  1  0.21590129  0.87255333  0.15329965  1
  Al  Al19  1  0.78743676  0.75772282  0.89098774  1
  Al  Al20  1  0.89130904  0.87041751  0.65618635  1
  Al  Al21  1  0.43211871  0.76973277  0.40559060  1
  Al  Al22  1  0.11501610  0.75960565  0.89305556  1
  Al  Al23  1  0.21978783  0.87151658  0.64672918  1
  Al  Al24  1  0.79002640  0.75696325  0.40118120  1
  Al  Al25  1  0.90228229  0.86895974  0.13733042  1
  Al  Al26  1  0.44337613  0.75887162  0.89651481  1
  Al  Al27  1  0.55678871  0.87496148  0.64830931  1
  Gd  Gd28  1  0.21544437  0.20929190  0.17399687  1
  Gd  Gd29  1  0.55832485  0.20518660  0.13501031  1
  Gd  Gd30  1  0.12227497  0.09213173  0.88613684  1
  Gd  Gd31  1  0.77539686  0.08979584  0.40381570  1
  Gd  Gd32  1  0.20863216  0.54959509  0.15151303  1
  Gd  Gd33  1  0.77715183  0.43578719  0.37576139  1
  Gd  Gd34  1  0.55326801  0.54399598  0.64584546  1
  Gd  Gd35  1  0.56577189  0.86153225  0.14425711  1
  N  N36  1  0.21857921  0.20505417  0.39954868  1
  N  N37  1  0.10998801  0.07997532  0.09856977  1
  N  N38  1  0.86442818  0.22366586  0.84022924  1
  N  N39  1  0.77627223  0.09525109  0.61886771  1
  N  N40  1  0.51670760  0.21928974  0.35125520  1
  N  N41  1  0.43015214  0.09340252  0.05927072  1
  N  N42  1  0.23757066  0.22384149  0.81684245  1
  N  N43  1  0.10388488  0.09167047  0.60584870  1
  N  N44  1  0.91881377  0.18506445  0.32596893  1
  N  N45  1  0.80693266  0.07962119  0.07834488  1
  N  N46  1  0.55929644  0.20590051  0.84830883  1
  N  N47  1  0.45441992  0.09030174  0.60571674  1
  N  N48  1  0.21549156  0.54018630  0.37042885  1
  N  N49  1  0.09065109  0.42632568  0.06280442  1
  N  N50  1  0.88633615  0.54000155  0.83635817  1
  N  N51  1  0.80649187  0.41411478  0.59307385  1
  N  N52  1  0.51622343  0.55338342  0.36617399  1
  N  N53  1  0.44386543  0.44272407  0.06964436  1
  N  N54  1  0.21916835  0.54306550  0.83950296  1
  N  N55  1  0.10207647  0.43908507  0.59996289  1
  N  N56  1  0.91348718  0.55160016  0.32309833  1
  N  N57  1  0.77814830  0.43135375  0.09851540  1
  N  N58  1  0.56143478  0.53900484  0.86760478  1
  N  N59  1  0.42789445  0.41216749  0.60149240  1
  N  N60  1  0.21827569  0.87322399  0.34437541  1
  N  N61  1  0.10472212  0.78593566  0.07495057  1
  N  N62  1  0.89380378  0.87008419  0.83772860  1
  N  N63  1  0.78222591  0.75938212  0.59099898  1
  N  N64  1  0.55899078  0.87251854  0.36349454  1
  N  N65  1  0.42314810  0.75762701  0.08145052  1
  N  N66  1  0.24144955  0.83802107  0.82529532  1
  N  N67  1  0.10660054  0.76504973  0.59200063  1
  N  N68  1  0.90657733  0.84673069  0.32652910  1
  N  N69  1  0.81178921  0.74931794  0.07272440  1
  N  N70  1  0.56039547  0.86595133  0.83904268  1
  N  N71  1  0.42573968  0.79684043  0.58582174  1
