# generated using pymatgen
data_Gd2Al7N9
_symmetry_space_group_name_H-M   'P 1'
_cell_length_a   9.89569070
_cell_length_b   9.85849381
_cell_length_c   10.64560234
_cell_angle_alpha   89.27638125
_cell_angle_beta   89.15299296
_cell_angle_gamma   59.90591730
_symmetry_Int_Tables_number   1
_chemical_formula_structural   Gd2Al7N9
_chemical_formula_sum   'Gd8 Al28 N36'
_cell_volume   898.44126065
_cell_formula_units_Z   4
loop_
 _symmetry_equiv_pos_site_id
 _symmetry_equiv_pos_as_xyz
  1  'x, y, z'
loop_
 _atom_site_type_symbol
 _atom_site_label
 _atom_site_symmetry_multiplicity
 _atom_site_fract_x
 _atom_site_fract_y
 _atom_site_fract_z
 _atom_site_occupancy
  Al  Al0  1  0.12633391  0.08564756  0.38368314  1
  Al  Al1  1  0.77158955  0.09656594  0.78326526  1
  Al  Al2  1  0.89405679  0.20525804  0.55523154  1
  Al  Al3  1  0.44405372  0.10404705  0.32290830  1
  Al  Al4  1  0.22975965  0.21068227  0.55416357  1
  Al  Al5  1  0.87511617  0.20444474  0.02528307  1
  Al  Al6  1  0.44909982  0.09014209  0.78917818  1
  Al  Al7  1  0.54739320  0.20871513  0.55780472  1
  Al  Al8  1  0.10679279  0.43605834  0.31975033  1
  Al  Al9  1  0.77775192  0.42633104  0.80484807  1
  Al  Al10  1  0.90367024  0.53037445  0.57267532  1
  Al  Al11  1  0.44081317  0.43816783  0.30802850  1
  Al  Al12  1  0.54788331  0.53065439  0.03393979  1
  Al  Al13  1  0.12190613  0.42780841  0.79287417  1
  Al  Al14  1  0.21916521  0.53740165  0.54595358  1
  Al  Al15  1  0.89035345  0.53479524  0.02979858  1
  Al  Al16  1  0.43421316  0.42396071  0.78735346  1
  Al  Al17  1  0.10910608  0.76158703  0.31157942  1
  Al  Al18  1  0.20839938  0.87940908  0.11901707  1
  Al  Al19  1  0.77842294  0.76241400  0.82893086  1
  Al  Al20  1  0.89620658  0.87119635  0.56396186  1
  Al  Al21  1  0.43512288  0.77338555  0.37418808  1
  Al  Al22  1  0.11396037  0.74915174  0.78453600  1
  Al  Al23  1  0.22785937  0.86607926  0.61245724  1
  Al  Al24  1  0.79007719  0.75678752  0.38719598  1
  Al  Al25  1  0.89892341  0.87828414  0.03266968  1
  Al  Al26  1  0.43474080  0.76025599  0.86250668  1
  Al  Al27  1  0.55388802  0.88232256  0.56141398  1
  Gd  Gd28  1  0.21228239  0.20353249  0.07509189  1
  Gd  Gd29  1  0.55051664  0.20383157  0.03495305  1
  Gd  Gd30  1  0.10879045  0.09840414  0.81652864  1
  Gd  Gd31  1  0.78226263  0.08833119  0.30373221  1
  Gd  Gd32  1  0.20300158  0.55282577  0.06398641  1
  Gd  Gd33  1  0.79140875  0.43745780  0.28525406  1
  Gd  Gd34  1  0.56141813  0.53710896  0.57531094  1
  Gd  Gd35  1  0.56973456  0.84203303  0.09629820  1
  N  N36  1  0.22556814  0.21076410  0.37126881  1
  N  N37  1  0.09189387  0.07488388  0.04152431  1
  N  N38  1  0.85010347  0.21779950  0.84999295  1
  N  N39  1  0.77910861  0.09638807  0.60035911  1
  N  N40  1  0.53136366  0.22639413  0.37762143  1
  N  N41  1  0.45161358  0.08776992  0.14984474  1
  N  N42  1  0.24546261  0.22193172  0.85903266  1
  N  N43  1  0.11976228  0.08756367  0.57542066  1
  N  N44  1  0.91009288  0.20259878  0.37612758  1
  N  N45  1  0.79228303  0.08548850  0.09070055  1
  N  N46  1  0.55560906  0.20072340  0.82059959  1
  N  N47  1  0.44336601  0.09419229  0.60666845  1
  N  N48  1  0.22220453  0.54246707  0.35897724  1
  N  N49  1  0.05825435  0.44474844  0.14608675  1
  N  N50  1  0.90168731  0.52712644  0.84665884  1
  N  N51  1  0.81670270  0.40688459  0.62516027  1
  N  N52  1  0.54022670  0.55303999  0.35754432  1
  N  N53  1  0.45549865  0.43528298  0.12774579  1
  N  N54  1  0.21985565  0.54106550  0.84613641  1
  N  N55  1  0.11987528  0.42430614  0.61162807  1
  N  N56  1  0.90650356  0.54367584  0.39448124  1
  N  N57  1  0.76775971  0.43518960  0.06631878  1
  N  N58  1  0.55199460  0.53148412  0.83869210  1
  N  N59  1  0.42339124  0.41972447  0.61036611  1
  N  N60  1  0.22791360  0.88258620  0.30849914  1
  N  N61  1  0.08088266  0.79161866  0.13394457  1
  N  N62  1  0.89736562  0.87610802  0.84138338  1
  N  N63  1  0.77593883  0.76290955  0.60155423  1
  N  N64  1  0.57021990  0.87305287  0.36329484  1
  N  N65  1  0.40746613  0.74917726  0.04166639  1
  N  N66  1  0.24082305  0.84091697  0.78853905  1
  N  N67  1  0.11296383  0.75315375  0.60223599  1
  N  N68  1  0.90948546  0.85042801  0.38607891  1
  N  N69  1  0.81481099  0.74746011  0.04481622  1
  N  N70  1  0.55133719  0.87286117  0.84720088  1
  N  N71  1  0.42584266  0.79572976  0.55115959  1
