# generated using pymatgen
data_Gd2Al7N9
_symmetry_space_group_name_H-M   'P 1'
_cell_length_a   9.86316102
_cell_length_b   9.84944248
_cell_length_c   10.47228977
_cell_angle_alpha   90.19535390
_cell_angle_beta   90.06798468
_cell_angle_gamma   60.04248156
_symmetry_Int_Tables_number   1
_chemical_formula_structural   Gd2Al7N9
_chemical_formula_sum   'Gd8 Al28 N36'
_cell_volume   881.42061322
_cell_formula_units_Z   4
loop_
 _symmetry_equiv_pos_site_id
 _symmetry_equiv_pos_as_xyz
  1  'x, y, z'
loop_
 _atom_site_type_symbol
 _atom_site_label
 _atom_site_symmetry_multiplicity
 _atom_site_fract_x
 _atom_site_fract_y
 _atom_site_fract_z
 _atom_site_occupancy
  Al  Al0  1  0.11224866  0.08851202  0.30338807  1
  Al  Al1  1  0.77789462  0.09254481  0.77999725  1
  Al  Al2  1  0.89949883  0.20387958  0.54532361  1
  Al  Al3  1  0.43924231  0.09816297  0.31542934  1
  Al  Al4  1  0.22098658  0.20699810  0.53673744  1
  Al  Al5  1  0.88526425  0.20074858  0.03402384  1
  Al  Al6  1  0.44806220  0.09438325  0.77256700  1
  Al  Al7  1  0.54557335  0.20865812  0.55217631  1
  Al  Al8  1  0.10565072  0.43396795  0.31058791  1
  Al  Al9  1  0.78291330  0.42645801  0.80641753  1
  Al  Al10  1  0.89808642  0.53732487  0.55457319  1
  Al  Al11  1  0.43668294  0.43455520  0.30429035  1
  Al  Al12  1  0.54959305  0.54246461  0.03513157  1
  Al  Al13  1  0.11775095  0.43050222  0.78160743  1
  Al  Al14  1  0.21811084  0.54030801  0.54182011  1
  Al  Al15  1  0.88911043  0.54297909  0.03706094  1
  Al  Al16  1  0.43596628  0.42695108  0.78067637  1
  Al  Al17  1  0.11039111  0.76091799  0.30383988  1
  Al  Al18  1  0.21364620  0.86739567  0.05558498  1
  Al  Al19  1  0.77999698  0.76203974  0.78954232  1
  Al  Al20  1  0.89463170  0.86425194  0.55076158  1
  Al  Al21  1  0.43407219  0.76045358  0.29735594  1
  Al  Al22  1  0.11623852  0.75413256  0.79022862  1
  Al  Al23  1  0.22011874  0.87590010  0.53878955  1
  Al  Al24  1  0.79313168  0.75224348  0.30605577  1
  Al  Al25  1  0.89671518  0.87106419  0.04193942  1
  Al  Al26  1  0.44031037  0.76489309  0.79609425  1
  Al  Al27  1  0.55403553  0.87507909  0.54605525  1
  Gd  Gd28  1  0.21628948  0.20605077  0.05897611  1
  Gd  Gd29  1  0.55759920  0.20753876  0.02751739  1
  Gd  Gd30  1  0.11780496  0.08760789  0.79100164  1
  Gd  Gd31  1  0.77469779  0.08780862  0.30465158  1
  Gd  Gd32  1  0.21446988  0.54564078  0.05484504  1
  Gd  Gd33  1  0.77948298  0.43630320  0.28160933  1
  Gd  Gd34  1  0.56007154  0.54173699  0.56372880  1
  Gd  Gd35  1  0.56224539  0.86271469  0.05473822  1
  N  N36  1  0.21736685  0.20663104  0.35134563  1
  N  N37  1  0.09165944  0.08219264  0.11206449  1
  N  N38  1  0.86588727  0.21090918  0.85334515  1
  N  N39  1  0.78282932  0.09190831  0.59293115  1
  N  N40  1  0.52390684  0.22561720  0.37083578  1
  N  N41  1  0.45263436  0.09535747  0.13839782  1
  N  N42  1  0.24203725  0.22014348  0.84066910  1
  N  N43  1  0.11627108  0.09210520  0.58042368  1
  N  N44  1  0.90755077  0.20141649  0.36619211  1
  N  N45  1  0.79754425  0.08191839  0.08913682  1
  N  N46  1  0.55832423  0.20262183  0.80988434  1
  N  N47  1  0.44112242  0.09276204  0.58979130  1
  N  N48  1  0.21944556  0.54194184  0.35249184  1
  N  N49  1  0.07352553  0.44161853  0.13224769  1
  N  N50  1  0.89733675  0.54180277  0.85121526  1
  N  N51  1  0.81690688  0.40900339  0.62047146  1
  N  N52  1  0.53208038  0.55247499  0.35411833  1
  N  N53  1  0.46315391  0.43600069  0.12127573  1
  N  N54  1  0.22194338  0.53868197  0.83530199  1
  N  N55  1  0.11547338  0.42706577  0.59745185  1
  N  N56  1  0.89890824  0.54943179  0.37555743  1
  N  N57  1  0.77345098  0.43411809  0.06175192  1
  N  N58  1  0.55140577  0.54029895  0.83982263  1
  N  N59  1  0.42540933  0.42185710  0.60287984  1
  N  N60  1  0.22101687  0.87089063  0.35580393  1
  N  N61  1  0.09335916  0.78641265  0.12211367  1
  N  N62  1  0.89278276  0.86945703  0.84893084  1
  N  N63  1  0.77721173  0.76085676  0.60698767  1
  N  N64  1  0.56020161  0.86448267  0.35537739  1
  N  N65  1  0.42613615  0.74861270  0.11291218  1
  N  N66  1  0.23476197  0.84049842  0.87083751  1
  N  N67  1  0.11458696  0.76270556  0.60421506  1
  N  N68  1  0.90657231  0.84309911  0.37216100  1
  N  N69  1  0.81079230  0.74749258  0.11564346  1
  N  N70  1  0.55565839  0.87682178  0.83550797  1
  N  N71  1  0.42216048  0.79761937  0.61478202  1
