# generated using pymatgen
data_Gd2Al7N9
_symmetry_space_group_name_H-M   'P 1'
_cell_length_a   9.87547422
_cell_length_b   9.87717482
_cell_length_c   10.49154699
_cell_angle_alpha   90.50968872
_cell_angle_beta   90.94449770
_cell_angle_gamma   59.96085510
_symmetry_Int_Tables_number   1
_chemical_formula_structural   Gd2Al7N9
_chemical_formula_sum   'Gd8 Al28 N36'
_cell_volume   885.78901105
_cell_formula_units_Z   4
loop_
 _symmetry_equiv_pos_site_id
 _symmetry_equiv_pos_as_xyz
  1  'x, y, z'
loop_
 _atom_site_type_symbol
 _atom_site_label
 _atom_site_symmetry_multiplicity
 _atom_site_fract_x
 _atom_site_fract_y
 _atom_site_fract_z
 _atom_site_occupancy
  Al  Al0  1  0.11234872  0.08748500  0.41415171  1
  Al  Al1  1  0.78319885  0.09207389  0.89146068  1
  Al  Al2  1  0.88633218  0.20918385  0.65594119  1
  Al  Al3  1  0.44120309  0.09292250  0.42462072  1
  Al  Al4  1  0.22274539  0.21197474  0.63528217  1
  Al  Al5  1  0.90200552  0.19202825  0.14499026  1
  Al  Al6  1  0.44652514  0.09672763  0.88233142  1
  Al  Al7  1  0.55387886  0.20065513  0.66310199  1
  Al  Al8  1  0.10714088  0.43560540  0.41806223  1
  Al  Al9  1  0.78713748  0.42906678  0.89068950  1
  Al  Al10  1  0.89126672  0.53935639  0.65068226  1
  Al  Al11  1  0.42325654  0.42782323  0.42378244  1
  Al  Al12  1  0.55834277  0.53976562  0.06401319  1
  Al  Al13  1  0.11227160  0.43082164  0.88506050  1
  Al  Al14  1  0.21104340  0.54128984  0.65261596  1
  Al  Al15  1  0.89635332  0.54163476  0.13653940  1
  Al  Al16  1  0.43882250  0.42617325  0.88535660  1
  Al  Al17  1  0.11462755  0.75561113  0.40620156  1
  Al  Al18  1  0.21879778  0.87090910  0.15205551  1
  Al  Al19  1  0.78803504  0.75843865  0.89136455  1
  Al  Al20  1  0.89146018  0.87048396  0.65617710  1
  Al  Al21  1  0.42998377  0.77274208  0.41244680  1
  Al  Al22  1  0.11514671  0.75976424  0.89328720  1
  Al  Al23  1  0.21634168  0.87553382  0.64678550  1
  Al  Al24  1  0.78981151  0.75632272  0.40122305  1
  Al  Al25  1  0.90332484  0.86765270  0.13719292  1
  Al  Al26  1  0.44215718  0.76511336  0.89053558  1
  Al  Al27  1  0.55644362  0.87751672  0.64871814  1
  Gd  Gd28  1  0.21850678  0.20955414  0.17297055  1
  Gd  Gd29  1  0.56109875  0.20561517  0.13640172  1
  Gd  Gd30  1  0.12199473  0.09239933  0.88880168  1
  Gd  Gd31  1  0.77571898  0.08729934  0.40442297  1
  Gd  Gd32  1  0.21511491  0.54822410  0.15091678  1
  Gd  Gd33  1  0.77039280  0.43769349  0.37484638  1
  Gd  Gd34  1  0.54696144  0.54737807  0.63859762  1
  Gd  Gd35  1  0.56622809  0.85856809  0.14577398  1
  N  N36  1  0.21797611  0.20486121  0.39595610  1
  N  N37  1  0.11137200  0.08007120  0.10068632  1
  N  N38  1  0.86616066  0.22138447  0.83714688  1
  N  N39  1  0.77596207  0.09468324  0.61816677  1
  N  N40  1  0.51635731  0.22007183  0.35255388  1
  N  N41  1  0.43466514  0.09152325  0.06025781  1
  N  N42  1  0.23746080  0.22375313  0.81823429  1
  N  N43  1  0.10197665  0.09401625  0.60306601  1
  N  N44  1  0.91545943  0.18586172  0.32630616  1
  N  N45  1  0.80881819  0.07883809  0.07731127  1
  N  N46  1  0.56106994  0.20291722  0.84719030  1
  N  N47  1  0.45269191  0.09155641  0.60478869  1
  N  N48  1  0.21548156  0.53844618  0.36940591  1
  N  N49  1  0.09238524  0.42850640  0.06362294  1
  N  N50  1  0.88881103  0.54135441  0.83375055  1
  N  N51  1  0.80360183  0.41630589  0.59484506  1
  N  N52  1  0.51333641  0.55470294  0.40166212  1
  N  N53  1  0.44713971  0.43985908  0.06342349  1
  N  N54  1  0.21734157  0.54404581  0.83866780  1
  N  N55  1  0.10095594  0.43825617  0.59791234  1
  N  N56  1  0.90991551  0.55137531  0.32384760  1
  N  N57  1  0.78138495  0.42907632  0.09490376  1
  N  N58  1  0.56354953  0.53995891  0.86961750  1
  N  N59  1  0.42397559  0.40926177  0.60801533  1
  N  N60  1  0.21955562  0.87179475  0.34315136  1
  N  N61  1  0.10597747  0.78502049  0.07455915  1
  N  N62  1  0.89432849  0.86999794  0.83736985  1
  N  N63  1  0.78195685  0.76072525  0.59046066  1
  N  N64  1  0.55809496  0.87185364  0.36464625  1
  N  N65  1  0.42464325  0.75625855  0.07523120  1
  N  N66  1  0.23883783  0.84044210  0.82434803  1
  N  N67  1  0.10667092  0.76499776  0.59112195  1
  N  N68  1  0.90703580  0.84508856  0.32536606  1
  N  N69  1  0.81130382  0.74892349  0.07230592  1
  N  N70  1  0.56148077  0.86768073  0.83792324  1
  N  N71  1  0.42163130  0.80511609  0.59080061  1
