# generated using pymatgen
data_Gd2Al7N9
_symmetry_space_group_name_H-M   'P 1'
_cell_length_a   9.87553722
_cell_length_b   9.85696991
_cell_length_c   10.43290636
_cell_angle_alpha   90.44048292
_cell_angle_beta   90.33299819
_cell_angle_gamma   60.03235509
_symmetry_Int_Tables_number   1
_chemical_formula_structural   Gd2Al7N9
_chemical_formula_sum   'Gd8 Al28 N36'
_cell_volume   879.76695228
_cell_formula_units_Z   4
loop_
 _symmetry_equiv_pos_site_id
 _symmetry_equiv_pos_as_xyz
  1  'x, y, z'
loop_
 _atom_site_type_symbol
 _atom_site_label
 _atom_site_symmetry_multiplicity
 _atom_site_fract_x
 _atom_site_fract_y
 _atom_site_fract_z
 _atom_site_occupancy
  Al  Al0  1  0.11462038  0.08623075  0.42621020  1
  Al  Al1  1  0.78144528  0.09359664  0.89978662  1
  Al  Al2  1  0.88751258  0.20866317  0.66780365  1
  Al  Al3  1  0.44472034  0.09184065  0.43190590  1
  Al  Al4  1  0.22474937  0.21117761  0.64073920  1
  Al  Al5  1  0.89895118  0.19412874  0.15250815  1
  Al  Al6  1  0.44411063  0.09802918  0.88758779  1
  Al  Al7  1  0.55427281  0.20401430  0.67042544  1
  Al  Al8  1  0.11157970  0.43606296  0.42840627  1
  Al  Al9  1  0.77407642  0.43282626  0.91604303  1
  Al  Al10  1  0.89269417  0.53779623  0.66211188  1
  Al  Al11  1  0.42766008  0.42928683  0.41798792  1
  Al  Al12  1  0.53999873  0.54730920  0.15383948  1
  Al  Al13  1  0.11110703  0.42959606  0.89054080  1
  Al  Al14  1  0.21660563  0.54094810  0.65985302  1
  Al  Al15  1  0.89332138  0.54133460  0.14358604  1
  Al  Al16  1  0.44159465  0.43433537  0.90419967  1
  Al  Al17  1  0.11415902  0.75752955  0.41481304  1
  Al  Al18  1  0.21411952  0.87353677  0.16069338  1
  Al  Al19  1  0.78740311  0.75712024  0.89891173  1
  Al  Al20  1  0.89168539  0.87042554  0.66389732  1
  Al  Al21  1  0.43320688  0.77124860  0.40836798  1
  Al  Al22  1  0.11490260  0.75988864  0.90019945  1
  Al  Al23  1  0.22208462  0.86976264  0.65448249  1
  Al  Al24  1  0.79173524  0.75623235  0.40811388  1
  Al  Al25  1  0.90122305  0.86995362  0.14489621  1
  Al  Al26  1  0.44407180  0.75369071  0.90956142  1
  Al  Al27  1  0.55787933  0.87355250  0.65620685  1
  Gd  Gd28  1  0.21187846  0.20979223  0.18254119  1
  Gd  Gd29  1  0.55495832  0.20677628  0.14062005  1
  Gd  Gd30  1  0.12227154  0.09234322  0.89377610  1
  Gd  Gd31  1  0.77701218  0.08960652  0.41069796  1
  Gd  Gd32  1  0.20186487  0.55102983  0.15745345  1
  Gd  Gd33  1  0.78139914  0.43507675  0.38598950  1
  Gd  Gd34  1  0.55509804  0.54344100  0.65699215  1
  Gd  Gd35  1  0.56453216  0.86331144  0.14909855  1
  N  N36  1  0.22091698  0.20422289  0.40937548  1
  N  N37  1  0.10751541  0.08058962  0.10603425  1
  N  N38  1  0.86367788  0.22450703  0.85006052  1
  N  N39  1  0.77720593  0.09524983  0.62641040  1
  N  N40  1  0.51944509  0.21801819  0.35746704  1
  N  N41  1  0.42570958  0.09552709  0.06604199  1
  N  N42  1  0.23780138  0.22363548  0.82301060  1
  N  N43  1  0.10527713  0.09053478  0.61487161  1
  N  N44  1  0.92134758  0.18612034  0.33485882  1
  N  N45  1  0.80515216  0.08069868  0.08773351  1
  N  N46  1  0.55822959  0.20796001  0.85698097  1
  N  N47  1  0.45671637  0.08927487  0.61323824  1
  N  N48  1  0.21747706  0.54061788  0.37694615  1
  N  N49  1  0.08799655  0.42392383  0.06882474  1
  N  N50  1  0.88476905  0.53964844  0.84521038  1
  N  N51  1  0.80788429  0.41323906  0.60113498  1
  N  N52  1  0.51733899  0.55432415  0.34624407  1
  N  N53  1  0.44169785  0.44765320  0.08253270  1
  N  N54  1  0.22045803  0.54233470  0.84782892  1
  N  N55  1  0.10347308  0.43943573  0.60853580  1
  N  N56  1  0.91776641  0.54890652  0.33086031  1
  N  N57  1  0.77191199  0.43386671  0.11194935  1
  N  N58  1  0.56015896  0.53830516  0.86966590  1
  N  N59  1  0.43087961  0.41302580  0.60349162  1
  N  N60  1  0.21850659  0.87352459  0.35243505  1
  N  N61  1  0.10340862  0.78717186  0.08182006  1
  N  N62  1  0.89347577  0.87039565  0.84552496  1
  N  N63  1  0.78304030  0.75864066  0.59829198  1
  N  N64  1  0.56146365  0.87176833  0.36894027  1
  N  N65  1  0.42303465  0.75608355  0.09406559  1
  N  N66  1  0.24353261  0.83683142  0.83331307  1
  N  N67  1  0.10778173  0.76448792  0.60003104  1
  N  N68  1  0.90872312  0.84569531  0.33438299  1
  N  N69  1  0.81268854  0.74850292  0.08103642  1
  N  N70  1  0.56007312  0.86491581  0.84768318  1
  N  N71  1  0.42846426  0.79328855  0.58888568  1
