# generated using pymatgen
data_Gd2Al7N9
_symmetry_space_group_name_H-M   'P 1'
_cell_length_a   9.88441784
_cell_length_b   9.87388699
_cell_length_c   10.44676358
_cell_angle_alpha   90.47853515
_cell_angle_beta   90.76906798
_cell_angle_gamma   59.99855623
_symmetry_Int_Tables_number   1
_chemical_formula_structural   Gd2Al7N9
_chemical_formula_sum   'Gd8 Al28 N36'
_cell_volume   882.88761353
_cell_formula_units_Z   4
loop_
 _symmetry_equiv_pos_site_id
 _symmetry_equiv_pos_as_xyz
  1  'x, y, z'
loop_
 _atom_site_type_symbol
 _atom_site_label
 _atom_site_symmetry_multiplicity
 _atom_site_fract_x
 _atom_site_fract_y
 _atom_site_fract_z
 _atom_site_occupancy
  Al  Al0  1  0.11311702  0.08686693  0.41640878  1
  Al  Al1  1  0.78213923  0.09292022  0.89128793  1
  Al  Al2  1  0.88697033  0.20904743  0.65792727  1
  Al  Al3  1  0.44231871  0.09266434  0.42472719  1
  Al  Al4  1  0.22351750  0.21177132  0.63390029  1
  Al  Al5  1  0.90201412  0.19080169  0.14449400  1
  Al  Al6  1  0.44532950  0.09731392  0.88098034  1
  Al  Al7  1  0.55358371  0.20261992  0.66283901  1
  Al  Al8  1  0.10838355  0.43648461  0.41957657  1
  Al  Al9  1  0.78251838  0.43018710  0.90123153  1
  Al  Al10  1  0.89207732  0.53806254  0.65266180  1
  Al  Al11  1  0.42554552  0.42987357  0.41753227  1
  Al  Al12  1  0.55287881  0.54233869  0.09006381  1
  Al  Al13  1  0.11194137  0.43017127  0.88402336  1
  Al  Al14  1  0.21378030  0.54135229  0.65214228  1
  Al  Al15  1  0.89596122  0.54258832  0.13641475  1
  Al  Al16  1  0.43968586  0.42967636  0.89042201  1
  Al  Al17  1  0.11357904  0.75719766  0.40691017  1
  Al  Al18  1  0.21620193  0.87235868  0.15327482  1
  Al  Al19  1  0.78748789  0.75783399  0.89105964  1
  Al  Al20  1  0.89133600  0.87041534  0.65619470  1
  Al  Al21  1  0.43195683  0.76975630  0.40701994  1
  Al  Al22  1  0.11492586  0.75964388  0.89321889  1
  Al  Al23  1  0.21947168  0.87186882  0.64675581  1
  Al  Al24  1  0.79001692  0.75694533  0.40125281  1
  Al  Al25  1  0.90230806  0.86892023  0.13740394  1
  Al  Al26  1  0.44276256  0.76076371  0.89555078  1
  Al  Al27  1  0.55678948  0.87527133  0.64834711  1
  Gd  Gd28  1  0.21563091  0.20924999  0.17396379  1
  Gd  Gd29  1  0.55851162  0.20525830  0.13547961  1
  Gd  Gd30  1  0.12222148  0.09215214  0.88618784  1
  Gd  Gd31  1  0.77542797  0.08973348  0.40394708  1
  Gd  Gd32  1  0.20911566  0.54953719  0.15177559  1
  Gd  Gd33  1  0.77591403  0.43626448  0.37518563  1
  Gd  Gd34  1  0.55284853  0.54420468  0.64484158  1
  Gd  Gd35  1  0.56578113  0.86109857  0.14470521  1
  N  N36  1  0.21852626  0.20504116  0.39939150  1
  N  N37  1  0.11014687  0.07987665  0.09856694  1
  N  N38  1  0.86454284  0.22347565  0.83986310  1
  N  N39  1  0.77625050  0.09521670  0.61891770  1
  N  N40  1  0.51662240  0.21948443  0.35168798  1
  N  N41  1  0.43057416  0.09316419  0.05954072  1
  N  N42  1  0.23758902  0.22383394  0.81699681  1
  N  N43  1  0.10371598  0.09183690  0.60569416  1
  N  N44  1  0.91855858  0.18508520  0.32588122  1
  N  N45  1  0.80695728  0.07961597  0.07823347  1
  N  N46  1  0.55947121  0.20549344  0.84827601  1
  N  N47  1  0.45430892  0.09040130  0.60572129  1
  N  N48  1  0.21551069  0.53997253  0.37057135  1
  N  N49  1  0.09083870  0.42649227  0.06290391  1
  N  N50  1  0.88661336  0.54011969  0.83608234  1
  N  N51  1  0.80641946  0.41422385  0.59313999  1
  N  N52  1  0.51615655  0.55336045  0.37515101  1
  N  N53  1  0.44357860  0.44218258  0.06902859  1
  N  N54  1  0.21872033  0.54328117  0.83945796  1
  N  N55  1  0.10197564  0.43902327  0.59984196  1
  N  N56  1  0.91308827  0.55177309  0.32309911  1
  N  N57  1  0.77901434  0.43086249  0.09752862  1
  N  N58  1  0.56175610  0.53916799  0.87061345  1
  N  N59  1  0.42740230  0.41177706  0.60304806  1
  N  N60  1  0.21850908  0.87309499  0.34434760  1
  N  N61  1  0.10476651  0.78586869  0.07504270  1
  N  N62  1  0.89381600  0.87009216  0.83774558  1
  N  N63  1  0.78225558  0.75946021  0.59106750  1
  N  N64  1  0.55887743  0.87243928  0.36384890  1
  N  N65  1  0.42301855  0.75790665  0.08057893  1
  N  N66  1  0.24108429  0.83819886  0.82521816  1
  N  N67  1  0.10659712  0.76506585  0.59201403  1
  N  N68  1  0.90658091  0.84671971  0.32652422  1
  N  N69  1  0.81163713  0.74936730  0.07270684  1
  N  N70  1  0.56052164  0.86619128  0.83896551  1
  N  N71  1  0.42532272  0.79789339  0.58708669  1
