# generated using pymatgen
data_Gd2Al7N9
_symmetry_space_group_name_H-M   'P 1'
_cell_length_a   9.83797493
_cell_length_b   9.79813720
_cell_length_c   10.81713059
_cell_angle_alpha   89.44099112
_cell_angle_beta   89.30795898
_cell_angle_gamma   59.94185742
_symmetry_Int_Tables_number   1
_chemical_formula_structural   Gd2Al7N9
_chemical_formula_sum   'Gd8 Al28 N36'
_cell_volume   902.40506676
_cell_formula_units_Z   4
loop_
 _symmetry_equiv_pos_site_id
 _symmetry_equiv_pos_as_xyz
  1  'x, y, z'
loop_
 _atom_site_type_symbol
 _atom_site_label
 _atom_site_symmetry_multiplicity
 _atom_site_fract_x
 _atom_site_fract_y
 _atom_site_fract_z
 _atom_site_occupancy
  Al  Al0  1  0.12607873  0.08394948  0.38461210  1
  Al  Al1  1  0.77158867  0.09742028  0.78354107  1
  Al  Al2  1  0.89545876  0.20249378  0.55560178  1
  Al  Al3  1  0.44393235  0.10024854  0.32245336  1
  Al  Al4  1  0.23198853  0.20828722  0.55258625  1
  Al  Al5  1  0.87332545  0.20675922  0.02458938  1
  Al  Al6  1  0.44416710  0.10225108  0.78733027  1
  Al  Al7  1  0.54801882  0.20582674  0.55519533  1
  Al  Al8  1  0.10483765  0.43787634  0.31967313  1
  Al  Al9  1  0.77718308  0.42757290  0.80376555  1
  Al  Al10  1  0.90616508  0.52666125  0.57046865  1
  Al  Al11  1  0.43957718  0.43869403  0.30733936  1
  Al  Al12  1  0.54719077  0.53450657  0.03332480  1
  Al  Al13  1  0.12116643  0.42948708  0.79274038  1
  Al  Al14  1  0.22003798  0.53638849  0.54679029  1
  Al  Al15  1  0.88753459  0.53539001  0.03088218  1
  Al  Al16  1  0.43581356  0.42624843  0.78682892  1
  Al  Al17  1  0.10788419  0.76051863  0.31101920  1
  Al  Al18  1  0.20925827  0.88007198  0.11924102  1
  Al  Al19  1  0.78059177  0.76304626  0.85227759  1
  Al  Al20  1  0.89768130  0.87094957  0.56099848  1
  Al  Al21  1  0.43828588  0.77641014  0.38018623  1
  Al  Al22  1  0.11410562  0.75057724  0.78314532  1
  Al  Al23  1  0.23154773  0.86433128  0.61357589  1
  Al  Al24  1  0.77937751  0.75889892  0.40371413  1
  Al  Al25  1  0.89835244  0.88200238  0.03136408  1
  Al  Al26  1  0.43669873  0.76132954  0.86088504  1
  Al  Al27  1  0.55726498  0.87060604  0.62293193  1
  Gd  Gd28  1  0.20965815  0.20569068  0.07428636  1
  Gd  Gd29  1  0.54848465  0.20580377  0.03543670  1
  Gd  Gd30  1  0.10753226  0.10075363  0.81597560  1
  Gd  Gd31  1  0.78256205  0.08508477  0.30173180  1
  Gd  Gd32  1  0.20285466  0.55299827  0.06037663  1
  Gd  Gd33  1  0.79192082  0.43475177  0.28586550  1
  Gd  Gd34  1  0.56581137  0.53108350  0.56860390  1
  Gd  Gd35  1  0.57303319  0.83478779  0.12960395  1
  N  N36  1  0.22516013  0.21022616  0.37170736  1
  N  N37  1  0.09079718  0.07472534  0.04029602  1
  N  N38  1  0.84905872  0.21953023  0.85214973  1
  N  N39  1  0.77910620  0.09558366  0.60308174  1
  N  N40  1  0.53170993  0.22422986  0.37733781  1
  N  N41  1  0.44906106  0.08930481  0.14865053  1
  N  N42  1  0.24522993  0.22385164  0.86264849  1
  N  N43  1  0.12161727  0.08554253  0.57453771  1
  N  N44  1  0.90825683  0.20058036  0.37918278  1
  N  N45  1  0.79062287  0.08775488  0.09122603  1
  N  N46  1  0.55618880  0.20310661  0.82470329  1
  N  N47  1  0.44299811  0.09538574  0.60914237  1
  N  N48  1  0.22219515  0.54192001  0.36133834  1
  N  N49  1  0.05451285  0.45085526  0.14671660  1
  N  N50  1  0.90278895  0.52594077  0.85032103  1
  N  N51  1  0.81919953  0.40410351  0.62818461  1
  N  N52  1  0.53985163  0.55329410  0.35794195  1
  N  N53  1  0.45281777  0.44026576  0.12833464  1
  N  N54  1  0.22049327  0.54259128  0.84527643  1
  N  N55  1  0.12124617  0.42227100  0.61354661  1
  N  N56  1  0.90566262  0.54057028  0.39518767  1
  N  N57  1  0.76636266  0.43666609  0.06924884  1
  N  N58  1  0.55228390  0.53261140  0.84190670  1
  N  N59  1  0.42523632  0.41763881  0.61193553  1
  N  N60  1  0.22968884  0.88078885  0.30846661  1
  N  N61  1  0.07989670  0.79114196  0.13412723  1
  N  N62  1  0.89920736  0.87804081  0.84324916  1
  N  N63  1  0.77754016  0.76063550  0.58596786  1
  N  N64  1  0.57133224  0.86532623  0.34251351  1
  N  N65  1  0.41111162  0.75789582  0.03827118  1
  N  N66  1  0.24198929  0.84260434  0.78742183  1
  N  N67  1  0.11392998  0.75282262  0.60350291  1
  N  N68  1  0.90797696  0.84895449  0.38589982  1
  N  N69  1  0.80068220  0.75697426  0.03161156  1
  N  N70  1  0.55576776  0.86675243  0.80720121  1
  N  N71  1  0.43287264  0.79307308  0.55494799  1
