# generated using pymatgen
data_Gd2Al7N9
_symmetry_space_group_name_H-M   'P 1'
_cell_length_a   9.76676443
_cell_length_b   9.82291166
_cell_length_c   10.97953387
_cell_angle_alpha   89.46391710
_cell_angle_beta   89.16416264
_cell_angle_gamma   60.05764771
_symmetry_Int_Tables_number   1
_chemical_formula_structural   Gd2Al7N9
_chemical_formula_sum   'Gd8 Al28 N36'
_cell_volume   912.66209575
_cell_formula_units_Z   4
loop_
 _symmetry_equiv_pos_site_id
 _symmetry_equiv_pos_as_xyz
  1  'x, y, z'
loop_
 _atom_site_type_symbol
 _atom_site_label
 _atom_site_symmetry_multiplicity
 _atom_site_fract_x
 _atom_site_fract_y
 _atom_site_fract_z
 _atom_site_occupancy
  Al  Al0  1  0.12886762  0.08736644  0.42736649  1
  Al  Al1  1  0.77054340  0.09655736  0.81514482  1
  Al  Al2  1  0.89749657  0.20284783  0.59151251  1
  Al  Al3  1  0.44370128  0.09698761  0.42358431  1
  Al  Al4  1  0.23449806  0.20694492  0.65117566  1
  Al  Al5  1  0.87322141  0.20644205  0.06315073  1
  Al  Al6  1  0.44622281  0.08726010  0.88338893  1
  Al  Al7  1  0.55549605  0.20995940  0.58731443  1
  Al  Al8  1  0.12213347  0.42890616  0.43324529  1
  Al  Al9  1  0.77364299  0.42049879  0.83021729  1
  Al  Al10  1  0.89779733  0.53312085  0.62338040  1
  Al  Al11  1  0.43755001  0.44250646  0.33974509  1
  Al  Al12  1  0.54112701  0.54149603  0.07096960  1
  Al  Al13  1  0.12134104  0.42248121  0.88306771  1
  Al  Al14  1  0.21521357  0.54200517  0.65838194  1
  Al  Al15  1  0.88062231  0.52949290  0.03776492  1
  Al  Al16  1  0.44456137  0.41763543  0.82103310  1
  Al  Al17  1  0.12825246  0.75243661  0.42431028  1
  Al  Al18  1  0.21102748  0.87439256  0.14084421  1
  Al  Al19  1  0.77758481  0.76202320  0.87166088  1
  Al  Al20  1  0.89479215  0.87378919  0.59815484  1
  Al  Al21  1  0.43490360  0.78323811  0.40871462  1
  Al  Al22  1  0.12398585  0.75208936  0.88578007  1
  Al  Al23  1  0.22981377  0.86916908  0.65201249  1
  Al  Al24  1  0.77824562  0.75938926  0.43350869  1
  Al  Al25  1  0.88630743  0.88578666  0.04344364  1
  Al  Al26  1  0.44413078  0.75447604  0.89250210  1
  Al  Al27  1  0.55190479  0.88067307  0.65443877  1
  Gd  Gd28  1  0.20932377  0.20338622  0.16500675  1
  Gd  Gd29  1  0.54720567  0.22600811  0.06872233  1
  Gd  Gd30  1  0.11916113  0.08557646  0.87991221  1
  Gd  Gd31  1  0.79119887  0.08157052  0.33533663  1
  Gd  Gd32  1  0.16437498  0.57175646  0.16329447  1
  Gd  Gd33  1  0.78656288  0.43402359  0.32170891  1
  Gd  Gd34  1  0.55750502  0.53967166  0.59491918  1
  Gd  Gd35  1  0.57261426  0.85288421  0.15146407  1
  N  N36  1  0.22585412  0.20801157  0.38106563  1
  N  N37  1  0.09121683  0.08598277  0.09093527  1
  N  N38  1  0.85395861  0.21432021  0.88869195  1
  N  N39  1  0.78018631  0.09679079  0.63861405  1
  N  N40  1  0.53648842  0.22975870  0.40635706  1
  N  N41  1  0.43466067  0.08131700  0.06072964  1
  N  N42  1  0.24122611  0.21675774  0.82250891  1
  N  N43  1  0.12307963  0.08887348  0.61222700  1
  N  N44  1  0.90942931  0.20191259  0.41791627  1
  N  N45  1  0.79385269  0.07700718  0.12575320  1
  N  N46  1  0.55543325  0.20048587  0.86338098  1
  N  N47  1  0.45200649  0.09111374  0.59873277  1
  N  N48  1  0.21772206  0.54335149  0.37202279  1
  N  N49  1  0.09759496  0.41948205  0.05613630  1
  N  N50  1  0.88643829  0.53366553  0.85902172  1
  N  N51  1  0.80902782  0.40606466  0.65793293  1
  N  N52  1  0.53441750  0.56070821  0.38972375  1
  N  N53  1  0.43395483  0.45931036  0.16294941  1
  N  N54  1  0.21537024  0.54180660  0.83709904  1
  N  N55  1  0.11930079  0.42669561  0.60739237  1
  N  N56  1  0.90176927  0.54584686  0.41075988  1
  N  N57  1  0.76788894  0.43302758  0.10472451  1
  N  N58  1  0.55234176  0.52693526  0.88219170  1
  N  N59  1  0.43555762  0.41209262  0.65052663  1
  N  N60  1  0.22030617  0.87856401  0.34303359  1
  N  N61  1  0.10502213  0.78592317  0.06045955  1
  N  N62  1  0.88954348  0.87902330  0.86334302  1
  N  N63  1  0.77585598  0.76083945  0.61626360  1
  N  N64  1  0.56516212  0.87866089  0.36608296  1
  N  N65  1  0.42221075  0.76217042  0.06968389  1
  N  N66  1  0.24627944  0.83454189  0.82087987  1
  N  N67  1  0.12675488  0.75671514  0.60106731  1
  N  N68  1  0.90506863  0.85129281  0.42112090  1
  N  N69  1  0.80466728  0.74633107  0.05522489  1
  N  N70  1  0.55267914  0.86686999  0.83252134  1
  N  N71  1  0.43004460  0.80117452  0.58363908  1
