# generated using pymatgen
data_Gd2Al7N9
_symmetry_space_group_name_H-M   'P 1'
_cell_length_a   9.89941795
_cell_length_b   9.92003894
_cell_length_c   10.51500214
_cell_angle_alpha   90.53125545
_cell_angle_beta   90.19910668
_cell_angle_gamma   59.82440557
_symmetry_Int_Tables_number   1
_chemical_formula_structural   Gd2Al7N9
_chemical_formula_sum   'Gd8 Al28 N36'
_cell_volume   892.63269776
_cell_formula_units_Z   4
loop_
 _symmetry_equiv_pos_site_id
 _symmetry_equiv_pos_as_xyz
  1  'x, y, z'
loop_
 _atom_site_type_symbol
 _atom_site_label
 _atom_site_symmetry_multiplicity
 _atom_site_fract_x
 _atom_site_fract_y
 _atom_site_fract_z
 _atom_site_occupancy
  Al  Al0  1  0.11909590  0.08539310  0.41634448  1
  Al  Al1  1  0.77588298  0.09401810  0.84942332  1
  Al  Al2  1  0.89065842  0.20457171  0.65078898  1
  Al  Al3  1  0.44485797  0.09066504  0.42306405  1
  Al  Al4  1  0.22317741  0.21098889  0.63623648  1
  Al  Al5  1  0.89894837  0.19539077  0.15951445  1
  Al  Al6  1  0.44284500  0.09675877  0.88270102  1
  Al  Al7  1  0.54632991  0.20286054  0.65823832  1
  Al  Al8  1  0.11243441  0.43300736  0.41708841  1
  Al  Al9  1  0.78173179  0.43405782  0.82870841  1
  Al  Al10  1  0.89386515  0.54612493  0.64948105  1
  Al  Al11  1  0.42549886  0.42490266  0.42136505  1
  Al  Al12  1  0.56896925  0.53431177  0.06242228  1
  Al  Al13  1  0.11058115  0.43154513  0.88605654  1
  Al  Al14  1  0.21077741  0.53948744  0.65361280  1
  Al  Al15  1  0.89398043  0.53975295  0.13976523  1
  Al  Al16  1  0.43820514  0.42860222  0.88597096  1
  Al  Al17  1  0.12118479  0.75094296  0.40691043  1
  Al  Al18  1  0.21840131  0.87049307  0.15160626  1
  Al  Al19  1  0.78739671  0.75948877  0.89446999  1
  Al  Al20  1  0.89518632  0.86405028  0.65254936  1
  Al  Al21  1  0.43110813  0.77382869  0.41232189  1
  Al  Al22  1  0.11383395  0.76148351  0.89408554  1
  Al  Al23  1  0.21587017  0.87812769  0.64882257  1
  Al  Al24  1  0.79420712  0.75341801  0.40147917  1
  Al  Al25  1  0.90349429  0.86641547  0.14511439  1
  Al  Al26  1  0.44171108  0.76547821  0.89177508  1
  Al  Al27  1  0.55652702  0.87749962  0.64915197  1
  Gd  Gd28  1  0.21518701  0.21101396  0.17270340  1
  Gd  Gd29  1  0.55621067  0.20823282  0.13486972  1
  Gd  Gd30  1  0.11609226  0.09567325  0.89436352  1
  Gd  Gd31  1  0.78112447  0.08329103  0.39938235  1
  Gd  Gd32  1  0.21372497  0.54883470  0.14735797  1
  Gd  Gd33  1  0.76766648  0.44267543  0.36895739  1
  Gd  Gd34  1  0.53153243  0.55494789  0.63308675  1
  Gd  Gd35  1  0.56405092  0.85881446  0.14573637  1
  N  N36  1  0.22381975  0.20212227  0.39517868  1
  N  N37  1  0.10713417  0.08157179  0.10559132  1
  N  N38  1  0.86652914  0.21845223  0.83287061  1
  N  N39  1  0.77575624  0.09222780  0.62487162  1
  N  N40  1  0.52145680  0.21703892  0.35356313  1
  N  N41  1  0.43160176  0.08998959  0.05943477  1
  N  N42  1  0.23423814  0.22371879  0.81856086  1
  N  N43  1  0.10434809  0.09404920  0.60288669  1
  N  N44  1  0.92104549  0.18960839  0.34306237  1
  N  N45  1  0.80588248  0.07911158  0.11866519  1
  N  N46  1  0.55458029  0.20550336  0.84288783  1
  N  N47  1  0.45218784  0.08987019  0.60338477  1
  N  N48  1  0.22055126  0.53517457  0.36597836  1
  N  N49  1  0.08986429  0.42874114  0.06340366  1
  N  N50  1  0.89122343  0.54643902  0.83188395  1
  N  N51  1  0.79646045  0.42363896  0.62475212  1
  N  N52  1  0.51222197  0.55583592  0.40777066  1
  N  N53  1  0.44832171  0.44342210  0.06140174  1
  N  N54  1  0.21678845  0.54473327  0.83897731  1
  N  N55  1  0.10235117  0.43684288  0.59654759  1
  N  N56  1  0.91616729  0.54815016  0.32879277  1
  N  N57  1  0.77373568  0.43207210  0.13203445  1
  N  N58  1  0.56537907  0.54001746  0.86570382  1
  N  N59  1  0.42061729  0.40771677  0.60487164  1
  N  N60  1  0.22285335  0.87018042  0.34307042  1
  N  N61  1  0.10396350  0.78650019  0.07426773  1
  N  N62  1  0.89374244  0.86945431  0.83495910  1
  N  N63  1  0.78287030  0.76097936  0.58945881  1
  N  N64  1  0.56311922  0.86794816  0.36479575  1
  N  N65  1  0.42639245  0.75388436  0.07390260  1
  N  N66  1  0.23762047  0.84303351  0.82573534  1
  N  N67  1  0.11161979  0.76203936  0.59210418  1
  N  N68  1  0.91581818  0.83700794  0.33204662  1
  N  N69  1  0.81159067  0.74814035  0.07548569  1
  N  N70  1  0.56175601  0.86778800  0.83751131  1
  N  N71  1  0.41966870  0.80996654  0.59021111  1
