# generated using pymatgen
data_Gd2Al7N9
_symmetry_space_group_name_H-M   'P 1'
_cell_length_a   9.89484297
_cell_length_b   9.85884630
_cell_length_c   10.64188987
_cell_angle_alpha   89.26327942
_cell_angle_beta   89.12832149
_cell_angle_gamma   59.90222366
_symmetry_Int_Tables_number   1
_chemical_formula_structural   Gd2Al7N9
_chemical_formula_sum   'Gd8 Al28 N36'
_cell_volume   898.04368281
_cell_formula_units_Z   4
loop_
 _symmetry_equiv_pos_site_id
 _symmetry_equiv_pos_as_xyz
  1  'x, y, z'
loop_
 _atom_site_type_symbol
 _atom_site_label
 _atom_site_symmetry_multiplicity
 _atom_site_fract_x
 _atom_site_fract_y
 _atom_site_fract_z
 _atom_site_occupancy
  Al  Al0  1  0.12638745  0.08572867  0.38378958  1
  Al  Al1  1  0.77167366  0.09622898  0.78356512  1
  Al  Al2  1  0.89409596  0.20523147  0.55542283  1
  Al  Al3  1  0.44402554  0.10437799  0.32295633  1
  Al  Al4  1  0.22985583  0.21059180  0.55438051  1
  Al  Al5  1  0.87521655  0.20437666  0.02528443  1
  Al  Al6  1  0.44899915  0.09022894  0.78921869  1
  Al  Al7  1  0.54747528  0.20866196  0.55793833  1
  Al  Al8  1  0.10700966  0.43584750  0.31986766  1
  Al  Al9  1  0.77780878  0.42639020  0.80516213  1
  Al  Al10  1  0.90346194  0.53091612  0.57266235  1
  Al  Al11  1  0.44082430  0.43821596  0.30804684  1
  Al  Al12  1  0.54788295  0.53056979  0.03403240  1
  Al  Al13  1  0.12169383  0.42804985  0.79300347  1
  Al  Al14  1  0.21918019  0.53738734  0.54605081  1
  Al  Al15  1  0.88982234  0.53597809  0.03011500  1
  Al  Al16  1  0.43418330  0.42392391  0.78741790  1
  Al  Al17  1  0.10941459  0.76160239  0.31166430  1
  Al  Al18  1  0.20849730  0.87939341  0.11895559  1
  Al  Al19  1  0.77748461  0.76247730  0.81788842  1
  Al  Al20  1  0.89593628  0.87069461  0.56391854  1
  Al  Al21  1  0.43524513  0.77327067  0.37417803  1
  Al  Al22  1  0.11368693  0.74914409  0.78477794  1
  Al  Al23  1  0.22790634  0.86598995  0.61241157  1
  Al  Al24  1  0.79068551  0.75677535  0.37932010  1
  Al  Al25  1  0.89829838  0.87770856  0.03334101  1
  Al  Al26  1  0.43457923  0.75995639  0.86241659  1
  Al  Al27  1  0.55468999  0.88194507  0.56083039  1
  Gd  Gd28  1  0.21239814  0.20349680  0.07502648  1
  Gd  Gd29  1  0.55055302  0.20396472  0.03509239  1
  Gd  Gd30  1  0.10888530  0.09824614  0.81657434  1
  Gd  Gd31  1  0.78228556  0.08862088  0.30368347  1
  Gd  Gd32  1  0.20262462  0.55307745  0.06425472  1
  Gd  Gd33  1  0.79147958  0.43751508  0.28491229  1
  Gd  Gd34  1  0.56152835  0.53697570  0.57538982  1
  Gd  Gd35  1  0.56922974  0.84294351  0.09364843  1
  N  N36  1  0.22559948  0.21081945  0.37154091  1
  N  N37  1  0.09200591  0.07485493  0.04150054  1
  N  N38  1  0.85020739  0.21764061  0.84987731  1
  N  N39  1  0.77925754  0.09602057  0.60043127  1
  N  N40  1  0.53146933  0.22650547  0.37771297  1
  N  N41  1  0.45159006  0.08803694  0.15010073  1
  N  N42  1  0.24528224  0.22204440  0.85881408  1
  N  N43  1  0.11981007  0.08749854  0.57548558  1
  N  N44  1  0.91009301  0.20277385  0.37620049  1
  N  N45  1  0.79232538  0.08556519  0.09076539  1
  N  N46  1  0.55557945  0.20069272  0.82060121  1
  N  N47  1  0.44368257  0.09384495  0.60665710  1
  N  N48  1  0.22216199  0.54252506  0.35910419  1
  N  N49  1  0.05864213  0.44394950  0.14643468  1
  N  N50  1  0.90107587  0.52843455  0.84700659  1
  N  N51  1  0.81685927  0.40700629  0.62524731  1
  N  N52  1  0.54035637  0.55301425  0.35748845  1
  N  N53  1  0.45541195  0.43528605  0.12785090  1
  N  N54  1  0.21987797  0.54101460  0.84621861  1
  N  N55  1  0.11974017  0.42439846  0.61159846  1
  N  N56  1  0.90596356  0.54467939  0.39472775  1
  N  N57  1  0.76787817  0.43498309  0.06611476  1
  N  N58  1  0.55203963  0.53136713  0.83853617  1
  N  N59  1  0.42339029  0.41969226  0.61038334  1
  N  N60  1  0.22803042  0.88265744  0.30871452  1
  N  N61  1  0.08106741  0.79185673  0.13425328  1
  N  N62  1  0.89672122  0.87520537  0.84209477  1
  N  N63  1  0.77622983  0.76266108  0.60845925  1
  N  N64  1  0.57062881  0.87328364  0.36433457  1
  N  N65  1  0.40718650  0.74870993  0.04146790  1
  N  N66  1  0.24067467  0.84080004  0.78848794  1
  N  N67  1  0.11275553  0.75321114  0.60221899  1
  N  N68  1  0.90918525  0.85030255  0.38627951  1
  N  N69  1  0.81586551  0.74671626  0.05288260  1
  N  N70  1  0.55151506  0.87276179  0.84765903  1
  N  N71  1  0.42614036  0.79563100  0.55123186  1
