# generated using pymatgen
data_Gd2Al7N9
_symmetry_space_group_name_H-M   'P 1'
_cell_length_a   9.77916735
_cell_length_b   9.84270935
_cell_length_c   10.80634749
_cell_angle_alpha   90.38799393
_cell_angle_beta   88.97586443
_cell_angle_gamma   60.12026221
_symmetry_Int_Tables_number   1
_chemical_formula_structural   Gd2Al7N9
_chemical_formula_sum   'Gd8 Al28 N36'
_cell_volume   901.59340903
_cell_formula_units_Z   4
loop_
 _symmetry_equiv_pos_site_id
 _symmetry_equiv_pos_as_xyz
  1  'x, y, z'
loop_
 _atom_site_type_symbol
 _atom_site_label
 _atom_site_symmetry_multiplicity
 _atom_site_fract_x
 _atom_site_fract_y
 _atom_site_fract_z
 _atom_site_occupancy
  Al  Al0  1  0.13256105  0.08019003  0.43127638  1
  Al  Al1  1  0.77862769  0.10049662  0.83002687  1
  Al  Al2  1  0.90044030  0.19809543  0.59698511  1
  Al  Al3  1  0.45437069  0.09620647  0.41830718  1
  Al  Al4  1  0.23439935  0.20406957  0.64760979  1
  Al  Al5  1  0.86962379  0.21380092  0.06631786  1
  Al  Al6  1  0.44582722  0.08992231  0.88765717  1
  Al  Al7  1  0.55664409  0.19346362  0.66108992  1
  Al  Al8  1  0.12483759  0.42240370  0.43687339  1
  Al  Al9  1  0.76968804  0.42049316  0.83541822  1
  Al  Al10  1  0.90041771  0.53141462  0.66525744  1
  Al  Al11  1  0.43374848  0.44368999  0.32917551  1
  Al  Al12  1  0.52689339  0.55285662  0.07410830  1
  Al  Al13  1  0.12693640  0.42393991  0.88942036  1
  Al  Al14  1  0.21659354  0.53841199  0.65301220  1
  Al  Al15  1  0.87455044  0.53601617  0.04153489  1
  Al  Al16  1  0.43733618  0.42964915  0.82924709  1
  Al  Al17  1  0.12875511  0.75190886  0.42913052  1
  Al  Al18  1  0.20761037  0.87706573  0.15081095  1
  Al  Al19  1  0.77189886  0.76699171  0.87692369  1
  Al  Al20  1  0.90008295  0.86462971  0.65464314  1
  Al  Al21  1  0.44347168  0.77486949  0.40913821  1
  Al  Al22  1  0.13054445  0.74989757  0.89445138  1
  Al  Al23  1  0.23127258  0.86746397  0.65594536  1
  Al  Al24  1  0.80305053  0.74384083  0.42153788  1
  Al  Al25  1  0.88243145  0.89290619  0.04796364  1
  Al  Al26  1  0.44512389  0.75825446  0.89313723  1
  Al  Al27  1  0.55844646  0.87371195  0.64696027  1
  Gd  Gd28  1  0.20090422  0.21834518  0.17613240  1
  Gd  Gd29  1  0.52671479  0.23661337  0.10202429  1
  Gd  Gd30  1  0.13095319  0.08571868  0.89224806  1
  Gd  Gd31  1  0.79692687  0.07339520  0.33325223  1
  Gd  Gd32  1  0.11095312  0.60425164  0.19404319  1
  Gd  Gd33  1  0.79445129  0.42292764  0.31849985  1
  Gd  Gd34  1  0.56063162  0.52904054  0.59213569  1
  Gd  Gd35  1  0.56572661  0.86327304  0.15540356  1
  N  N36  1  0.23185429  0.19820615  0.39413509  1
  N  N37  1  0.08443551  0.09467371  0.10707971  1
  N  N38  1  0.86575837  0.21513639  0.89096173  1
  N  N39  1  0.78478585  0.09119358  0.64929290  1
  N  N40  1  0.52640141  0.21610435  0.33003161  1
  N  N41  1  0.41988450  0.08836425  0.06032158  1
  N  N42  1  0.24455480  0.21977082  0.82211659  1
  N  N43  1  0.12535597  0.08425828  0.61834257  1
  N  N44  1  0.91330401  0.19512236  0.42271181  1
  N  N45  1  0.78549445  0.08979291  0.11791235  1
  N  N46  1  0.55646329  0.20136574  0.85411495  1
  N  N47  1  0.46010938  0.08810131  0.59823025  1
  N  N48  1  0.23052108  0.53403644  0.39389280  1
  N  N49  1  0.08848765  0.43105119  0.06090797  1
  N  N50  1  0.88524688  0.53916354  0.85357641  1
  N  N51  1  0.80765902  0.40478932  0.66117392  1
  N  N52  1  0.54170980  0.55224632  0.38520740  1
  N  N53  1  0.40092660  0.48892807  0.15626824  1
  N  N54  1  0.21285255  0.54564439  0.83743877  1
  N  N55  1  0.11176247  0.42671622  0.61187560  1
  N  N56  1  0.92788440  0.53638058  0.36254207  1
  N  N57  1  0.75729100  0.44179614  0.10124591  1
  N  N58  1  0.55011119  0.53196706  0.88292421  1
  N  N59  1  0.43576498  0.40778078  0.65421005  1
  N  N60  1  0.22801978  0.87191878  0.34667376  1
  N  N61  1  0.09698333  0.79268137  0.06632815  1
  N  N62  1  0.89300297  0.87439001  0.85086496  1
  N  N63  1  0.78938314  0.75148900  0.61172135  1
  N  N64  1  0.57625706  0.86730831  0.37154310  1
  N  N65  1  0.41704243  0.77259699  0.07150948  1
  N  N66  1  0.24629010  0.83633702  0.82627084  1
  N  N67  1  0.11912240  0.76034411  0.60666123  1
  N  N68  1  0.92908322  0.82422215  0.36657290  1
  N  N69  1  0.79971051  0.75486022  0.05451491  1
  N  N70  1  0.55443939  0.86890445  0.83043950  1
  N  N71  1  0.43397731  0.79183048  0.58707876  1
