# generated using pymatgen
data_Gd2Al7N9
_symmetry_space_group_name_H-M   'P 1'
_cell_length_a   9.80021775
_cell_length_b   9.73836976
_cell_length_c   11.22245935
_cell_angle_alpha   88.93977621
_cell_angle_beta   88.45816649
_cell_angle_gamma   60.05844353
_symmetry_Int_Tables_number   1
_chemical_formula_structural   Gd2Al7N9
_chemical_formula_sum   'Gd8 Al28 N36'
_cell_volume   927.75094148
_cell_formula_units_Z   4
loop_
 _symmetry_equiv_pos_site_id
 _symmetry_equiv_pos_as_xyz
  1  'x, y, z'
loop_
 _atom_site_type_symbol
 _atom_site_label
 _atom_site_symmetry_multiplicity
 _atom_site_fract_x
 _atom_site_fract_y
 _atom_site_fract_z
 _atom_site_occupancy
  Al  Al0  1  0.13265073  0.08618015  0.42871954  1
  Al  Al1  1  0.76525244  0.09780533  0.79401547  1
  Al  Al2  1  0.89581829  0.20675337  0.57478945  1
  Al  Al3  1  0.45175170  0.10234272  0.34320110  1
  Al  Al4  1  0.23886869  0.20392500  0.60930100  1
  Al  Al5  1  0.86534941  0.20693586  0.03005441  1
  Al  Al6  1  0.45340187  0.09660333  0.78521072  1
  Al  Al7  1  0.55750730  0.20333809  0.55871994  1
  Al  Al8  1  0.12789647  0.43528523  0.41508609  1
  Al  Al9  1  0.77071097  0.42608466  0.81023771  1
  Al  Al10  1  0.89497138  0.53766620  0.57970787  1
  Al  Al11  1  0.44873823  0.44218288  0.31327581  1
  Al  Al12  1  0.54335770  0.53109395  0.04053940  1
  Al  Al13  1  0.10470348  0.43472572  0.79420674  1
  Al  Al14  1  0.22392303  0.54799833  0.63263007  1
  Al  Al15  1  0.88306316  0.52614261  0.03113100  1
  Al  Al16  1  0.44516163  0.41697290  0.79791404  1
  Al  Al17  1  0.13331504  0.76149483  0.40675981  1
  Al  Al18  1  0.20806667  0.87007465  0.05530201  1
  Al  Al19  1  0.77053252  0.76205046  0.86079622  1
  Al  Al20  1  0.89589901  0.87810930  0.57648911  1
  Al  Al21  1  0.43950739  0.78469662  0.39967964  1
  Al  Al22  1  0.11330459  0.75203768  0.85798554  1
  Al  Al23  1  0.23498405  0.86260102  0.63517837  1
  Al  Al24  1  0.78214475  0.76704284  0.41675307  1
  Al  Al25  1  0.87990023  0.88334188  0.02144629  1
  Al  Al26  1  0.44528124  0.75428116  0.86346617  1
  Al  Al27  1  0.56468374  0.86503112  0.63156211  1
  Gd  Gd28  1  0.17439908  0.18344022  0.18291606  1
  Gd  Gd29  1  0.53522078  0.20508843  0.05299211  1
  Gd  Gd30  1  0.10615947  0.10193484  0.83675490  1
  Gd  Gd31  1  0.80056602  0.08746976  0.30813199  1
  Gd  Gd32  1  0.17592173  0.56013396  0.14961205  1
  Gd  Gd33  1  0.80404370  0.44268930  0.29241155  1
  Gd  Gd34  1  0.57297064  0.52188807  0.56270487  1
  Gd  Gd35  1  0.56410817  0.83691352  0.14824042  1
  N  N36  1  0.23454853  0.20780821  0.39960218  1
  N  N37  1  0.08982944  0.08449762  0.04300124  1
  N  N38  1  0.84397824  0.21825274  0.86153533  1
  N  N39  1  0.77902283  0.10089973  0.61853465  1
  N  N40  1  0.54579706  0.22674353  0.38567837  1
  N  N41  1  0.42930337  0.09793308  0.17057803  1
  N  N42  1  0.23793802  0.22199316  0.79002110  1
  N  N43  1  0.12029002  0.08732761  0.60096035  1
  N  N44  1  0.91398720  0.21209711  0.39954839  1
  N  N45  1  0.79013427  0.07775707  0.10045034  1
  N  N46  1  0.55086858  0.19951472  0.84635514  1
  N  N47  1  0.46419894  0.08600797  0.61243392  1
  N  N48  1  0.22654715  0.54805895  0.35318508  1
  N  N49  1  0.04293599  0.43347693  0.13937941  1
  N  N50  1  0.89455221  0.52576094  0.85622795  1
  N  N51  1  0.81508584  0.41095465  0.64201665  1
  N  N52  1  0.54535093  0.56205580  0.36018495  1
  N  N53  1  0.44744055  0.44038085  0.13800168  1
  N  N54  1  0.21497548  0.54266857  0.80803598  1
  N  N55  1  0.11585169  0.43687212  0.60054974  1
  N  N56  1  0.90615397  0.54732188  0.40934072  1
  N  N57  1  0.75990569  0.43011490  0.07874617  1
  N  N58  1  0.55017678  0.52742851  0.85564294  1
  N  N59  1  0.44059337  0.40784412  0.62799803  1
  N  N60  1  0.22576423  0.88835920  0.35388423  1
  N  N61  1  0.09829352  0.77007705  0.02890407  1
  N  N62  1  0.88256020  0.87874253  0.84268491  1
  N  N63  1  0.78138592  0.76382804  0.59348393  1
  N  N64  1  0.57538891  0.86973413  0.35727336  1
  N  N65  1  0.42319764  0.75766205  0.03633959  1
  N  N66  1  0.24010784  0.83866999  0.80408415  1
  N  N67  1  0.12588992  0.76081491  0.58108157  1
  N  N68  1  0.90919551  0.85946814  0.40092797  1
  N  N69  1  0.78306721  0.75693178  0.03571554  1
  N  N70  1  0.55529354  0.86318698  0.80764478  1
  N  N71  1  0.44000656  0.78508960  0.57251143  1
