# generated using pymatgen
data_Gd2Al7N9
_symmetry_space_group_name_H-M   'P 1'
_cell_length_a   9.87507136
_cell_length_b   9.86336334
_cell_length_c   10.62109200
_cell_angle_alpha   90.41137544
_cell_angle_beta   89.53001188
_cell_angle_gamma   60.16127784
_symmetry_Int_Tables_number   1
_chemical_formula_structural   Gd2Al7N9
_chemical_formula_sum   'Gd8 Al28 N36'
_cell_volume   897.25804575
_cell_formula_units_Z   4
loop_
 _symmetry_equiv_pos_site_id
 _symmetry_equiv_pos_as_xyz
  1  'x, y, z'
loop_
 _atom_site_type_symbol
 _atom_site_label
 _atom_site_symmetry_multiplicity
 _atom_site_fract_x
 _atom_site_fract_y
 _atom_site_fract_z
 _atom_site_occupancy
  Al  Al0  1  0.13129793  0.07824328  0.42672871  1
  Al  Al1  1  0.77414806  0.09936251  0.82484823  1
  Al  Al2  1  0.90037156  0.20469953  0.59749837  1
  Al  Al3  1  0.44422836  0.09117665  0.42108526  1
  Al  Al4  1  0.23006714  0.21130962  0.64443661  1
  Al  Al5  1  0.87710231  0.20405614  0.07261293  1
  Al  Al6  1  0.44428594  0.09914376  0.88719599  1
  Al  Al7  1  0.54414181  0.20571232  0.65694431  1
  Al  Al8  1  0.11060728  0.42768749  0.42005830  1
  Al  Al9  1  0.78203707  0.42737219  0.83848305  1
  Al  Al10  1  0.89809124  0.54006903  0.65928018  1
  Al  Al11  1  0.42724295  0.42484525  0.42218074  1
  Al  Al12  1  0.55672712  0.54349732  0.05225649  1
  Al  Al13  1  0.11283908  0.43589030  0.88692782  1
  Al  Al14  1  0.21329659  0.54048022  0.65275519  1
  Al  Al15  1  0.88870750  0.54616077  0.11433707  1
  Al  Al16  1  0.43534879  0.43072047  0.88407102  1
  Al  Al17  1  0.12143951  0.74875837  0.40840887  1
  Al  Al18  1  0.20919199  0.88040499  0.14531776  1
  Al  Al19  1  0.78325355  0.76688344  0.89267466  1
  Al  Al20  1  0.89775973  0.86136118  0.65263275  1
  Al  Al21  1  0.43768352  0.76927812  0.41196617  1
  Al  Al22  1  0.11081418  0.76332908  0.89414615  1
  Al  Al23  1  0.22444538  0.86902405  0.65030075  1
  Al  Al24  1  0.79553022  0.74137433  0.40460832  1
  Al  Al25  1  0.90026502  0.87056360  0.15079545  1
  Al  Al26  1  0.43988595  0.76801827  0.88783386  1
  Al  Al27  1  0.55787444  0.87751144  0.64863327  1
  Gd  Gd28  1  0.20399855  0.21392356  0.16723179  1
  Gd  Gd29  1  0.55139944  0.21258569  0.14004749  1
  Gd  Gd30  1  0.11729240  0.09513493  0.87375316  1
  Gd  Gd31  1  0.78256548  0.07361051  0.39081358  1
  Gd  Gd32  1  0.20991718  0.55626641  0.15357946  1
  Gd  Gd33  1  0.76990508  0.41962539  0.32810328  1
  Gd  Gd34  1  0.55091533  0.54378532  0.62794665  1
  Gd  Gd35  1  0.55894877  0.86081308  0.14902895  1
  N  N36  1  0.22614106  0.19845104  0.38817794  1
  N  N37  1  0.09551206  0.08915174  0.09077038  1
  N  N38  1  0.85306213  0.21989683  0.89342248  1
  N  N39  1  0.77916502  0.09537859  0.63491574  1
  N  N40  1  0.52142190  0.21887518  0.35507857  1
  N  N41  1  0.43039854  0.09167544  0.06309831  1
  N  N42  1  0.23920149  0.22813734  0.82296201  1
  N  N43  1  0.12232834  0.08785167  0.61927420  1
  N  N44  1  0.91679038  0.19249337  0.42117258  1
  N  N45  1  0.80406217  0.08975000  0.16002633  1
  N  N46  1  0.55256808  0.20805071  0.83912792  1
  N  N47  1  0.45350928  0.09011407  0.60022001  1
  N  N48  1  0.22172469  0.53223021  0.37024634  1
  N  N49  1  0.09301303  0.43581927  0.06287293  1
  N  N50  1  0.89120176  0.54850496  0.84178091  1
  N  N51  1  0.80989329  0.40872388  0.65645508  1
  N  N52  1  0.52529758  0.54916329  0.40353001  1
  N  N53  1  0.44276308  0.44502884  0.05986453  1
  N  N54  1  0.21640628  0.54805356  0.83597063  1
  N  N55  1  0.10583780  0.43337881  0.59968132  1
  N  N56  1  0.91163732  0.53504580  0.33632172  1
  N  N57  1  0.76885073  0.44021562  0.10671403  1
  N  N58  1  0.55969213  0.54345558  0.86300559  1
  N  N59  1  0.42348520  0.41048614  0.60387163  1
  N  N60  1  0.22542315  0.87024651  0.34144674  1
  N  N61  1  0.09606712  0.79230524  0.07285502  1
  N  N62  1  0.89307229  0.87233234  0.83300822  1
  N  N63  1  0.78515729  0.75623765  0.59289400  1
  N  N64  1  0.56633492  0.86711294  0.36622668  1
  N  N65  1  0.41903110  0.76107859  0.06968101  1
  N  N66  1  0.23875650  0.83931469  0.82482459  1
  N  N67  1  0.11247353  0.76260436  0.59102979  1
  N  N68  1  0.92160052  0.82240330  0.33196170  1
  N  N69  1  0.80353372  0.75971812  0.07302381  1
  N  N70  1  0.55894584  0.87262515  0.83572803  1
  N  N71  1  0.42739710  0.80136892  0.58953625  1
