# generated using pymatgen
data_Gd2Al7N9
_symmetry_space_group_name_H-M   'P 1'
_cell_length_a   9.90539471
_cell_length_b   9.87481157
_cell_length_c   10.58913631
_cell_angle_alpha   90.26849726
_cell_angle_beta   89.28730181
_cell_angle_gamma   60.25727108
_symmetry_Int_Tables_number   1
_chemical_formula_structural   Gd2Al7N9
_chemical_formula_sum   'Gd8 Al28 N36'
_cell_volume   899.17508826
_cell_formula_units_Z   4
loop_
 _symmetry_equiv_pos_site_id
 _symmetry_equiv_pos_as_xyz
  1  'x, y, z'
loop_
 _atom_site_type_symbol
 _atom_site_label
 _atom_site_symmetry_multiplicity
 _atom_site_fract_x
 _atom_site_fract_y
 _atom_site_fract_z
 _atom_site_occupancy
  Al  Al0  1  0.13030717  0.08011410  0.42894930  1
  Al  Al1  1  0.77846978  0.09671123  0.82737560  1
  Al  Al2  1  0.90095731  0.20475535  0.59773328  1
  Al  Al3  1  0.44561711  0.09432917  0.41894059  1
  Al  Al4  1  0.23400650  0.20915616  0.64191667  1
  Al  Al5  1  0.87971033  0.20345942  0.07330182  1
  Al  Al6  1  0.44479736  0.09196292  0.88845971  1
  Al  Al7  1  0.54822560  0.20217228  0.66509449  1
  Al  Al8  1  0.11379368  0.42874276  0.43048743  1
  Al  Al9  1  0.77570557  0.42393001  0.83876218  1
  Al  Al10  1  0.89790866  0.53937423  0.65722948  1
  Al  Al11  1  0.43223363  0.43105721  0.37678500  1
  Al  Al12  1  0.54752599  0.54363289  0.05402819  1
  Al  Al13  1  0.12089141  0.42713531  0.88237020  1
  Al  Al14  1  0.21233914  0.54547392  0.66012422  1
  Al  Al15  1  0.88049317  0.54120942  0.04885394  1
  Al  Al16  1  0.43254846  0.43283415  0.86003987  1
  Al  Al17  1  0.11989102  0.75170325  0.40867651  1
  Al  Al18  1  0.21095954  0.87898911  0.14666471  1
  Al  Al19  1  0.77800245  0.77688233  0.88594812  1
  Al  Al20  1  0.89806389  0.86490433  0.65220114  1
  Al  Al21  1  0.43716908  0.77267922  0.41098225  1
  Al  Al22  1  0.10863567  0.76649643  0.89738596  1
  Al  Al23  1  0.22553875  0.86818523  0.65114135  1
  Al  Al24  1  0.79526956  0.74476557  0.41311280  1
  Al  Al25  1  0.89887050  0.87204388  0.15031572  1
  Al  Al26  1  0.43966373  0.76518685  0.88785072  1
  Al  Al27  1  0.55761144  0.87783278  0.64764432  1
  Gd  Gd28  1  0.20585258  0.21143465  0.17146691  1
  Gd  Gd29  1  0.55634750  0.20678049  0.11503654  1
  Gd  Gd30  1  0.12024858  0.09451046  0.87632952  1
  Gd  Gd31  1  0.77862707  0.08146696  0.38175089  1
  Gd  Gd32  1  0.18966805  0.55755530  0.14904530  1
  Gd  Gd33  1  0.78168089  0.42446084  0.32209449  1
  Gd  Gd34  1  0.55692345  0.53804037  0.61718904  1
  Gd  Gd35  1  0.56557045  0.85342116  0.14991615  1
  N  N36  1  0.22659164  0.20095270  0.39611571  1
  N  N37  1  0.09621887  0.08892754  0.09422825  1
  N  N38  1  0.85671543  0.21663036  0.89403897  1
  N  N39  1  0.77872432  0.09807123  0.63677290  1
  N  N40  1  0.51794131  0.22075159  0.34052795  1
  N  N41  1  0.42766817  0.08328536  0.06416759  1
  N  N42  1  0.24578681  0.22227267  0.82009591  1
  N  N43  1  0.12273916  0.08705986  0.61971550  1
  N  N44  1  0.91612395  0.19558390  0.42025144  1
  N  N45  1  0.80546500  0.09010061  0.15970359  1
  N  N46  1  0.55944771  0.19748044  0.85233636  1
  N  N47  1  0.45814449  0.09122827  0.59859065  1
  N  N48  1  0.22121054  0.53482982  0.36979389  1
  N  N49  1  0.09036289  0.42229384  0.05669181  1
  N  N50  1  0.88551269  0.54688727  0.85321257  1
  N  N51  1  0.81221865  0.40741436  0.66020294  1
  N  N52  1  0.53013817  0.54885301  0.39520376  1
  N  N53  1  0.42959669  0.45231361  0.07410301  1
  N  N54  1  0.20681318  0.55419725  0.84421678  1
  N  N55  1  0.11069970  0.43426168  0.61020466  1
  N  N56  1  0.91027399  0.53539254  0.37691023  1
  N  N57  1  0.76517874  0.44212862  0.09846276  1
  N  N58  1  0.55601640  0.54149905  0.86467369  1
  N  N59  1  0.42707822  0.41500048  0.65221615  1
  N  N60  1  0.22584090  0.87196199  0.34315852  1
  N  N61  1  0.09470114  0.79534966  0.07518011  1
  N  N62  1  0.89520851  0.87334798  0.83230453  1
  N  N63  1  0.78381829  0.76033006  0.60152401  1
  N  N64  1  0.56698361  0.86875916  0.36826401  1
  N  N65  1  0.41917221  0.76206192  0.07023305  1
  N  N66  1  0.23812514  0.83980478  0.82618659  1
  N  N67  1  0.11269723  0.76315677  0.59174671  1
  N  N68  1  0.91903647  0.82531778  0.33370737  1
  N  N69  1  0.80663456  0.75948654  0.06575794  1
  N  N70  1  0.55762737  0.87070957  0.83390229  1
  N  N71  1  0.42874063  0.79871656  0.58960410  1
