# generated using pymatgen
data_Gd2Al7N9
_symmetry_space_group_name_H-M   'P 1'
_cell_length_a   9.74013374
_cell_length_b   9.79250474
_cell_length_c   11.15405394
_cell_angle_alpha   90.30565032
_cell_angle_beta   89.83304507
_cell_angle_gamma   59.86284420
_symmetry_Int_Tables_number   1
_chemical_formula_structural   Gd2Al7N9
_chemical_formula_sum   'Gd8 Al28 N36'
_cell_volume   920.03624237
_cell_formula_units_Z   4
loop_
 _symmetry_equiv_pos_site_id
 _symmetry_equiv_pos_as_xyz
  1  'x, y, z'
loop_
 _atom_site_type_symbol
 _atom_site_label
 _atom_site_symmetry_multiplicity
 _atom_site_fract_x
 _atom_site_fract_y
 _atom_site_fract_z
 _atom_site_occupancy
  Al  Al0  1  0.12836919  0.08250338  0.41387439  1
  Al  Al1  1  0.77222890  0.09838146  0.79540580  1
  Al  Al2  1  0.89465662  0.20153630  0.57178572  1
  Al  Al3  1  0.44437974  0.09799244  0.34036842  1
  Al  Al4  1  0.22672813  0.20942734  0.62344237  1
  Al  Al5  1  0.86900068  0.21133933  0.03739809  1
  Al  Al6  1  0.45407046  0.09947988  0.78685379  1
  Al  Al7  1  0.55229807  0.20302233  0.56175751  1
  Al  Al8  1  0.12784939  0.42615784  0.41482188  1
  Al  Al9  1  0.77864925  0.42410893  0.80659094  1
  Al  Al10  1  0.89728760  0.53049230  0.58117857  1
  Al  Al11  1  0.44135820  0.43463572  0.31778417  1
  Al  Al12  1  0.54900544  0.53623213  0.04468432  1
  Al  Al13  1  0.11912802  0.42848709  0.86354088  1
  Al  Al14  1  0.21465261  0.54101395  0.64221259  1
  Al  Al15  1  0.88397115  0.53520625  0.02001731  1
  Al  Al16  1  0.44722964  0.41816989  0.80219542  1
  Al  Al17  1  0.12971958  0.74884049  0.40376203  1
  Al  Al18  1  0.21218644  0.87813269  0.10919901  1
  Al  Al19  1  0.77448710  0.76516420  0.85633094  1
  Al  Al20  1  0.89485816  0.87309821  0.57531787  1
  Al  Al21  1  0.43334617  0.77922923  0.39458297  1
  Al  Al22  1  0.12134283  0.75694435  0.86486019  1
  Al  Al23  1  0.22873156  0.86714379  0.63355619  1
  Al  Al24  1  0.77839325  0.75824121  0.41410227  1
  Al  Al25  1  0.88410612  0.89152417  0.02226002  1
  Al  Al26  1  0.44590482  0.75620305  0.86991876  1
  Al  Al27  1  0.55849850  0.86837673  0.62972392  1
  Gd  Gd28  1  0.17103342  0.22672597  0.16590288  1
  Gd  Gd29  1  0.53063082  0.21303586  0.05196074  1
  Gd  Gd30  1  0.12381612  0.09063911  0.86019341  1
  Gd  Gd31  1  0.79340865  0.07771853  0.30925154  1
  Gd  Gd32  1  0.17939757  0.57111544  0.13713640  1
  Gd  Gd33  1  0.78022879  0.43410984  0.30385388  1
  Gd  Gd34  1  0.55658831  0.53213578  0.57536649  1
  Gd  Gd35  1  0.57371225  0.84110135  0.14408617  1
  N  N36  1  0.22310800  0.20501313  0.37650928  1
  N  N37  1  0.09206982  0.08846061  0.06576225  1
  N  N38  1  0.85724791  0.21776793  0.86519302  1
  N  N39  1  0.77932739  0.09585081  0.61953680  1
  N  N40  1  0.53821015  0.22191930  0.38743339  1
  N  N41  1  0.43171641  0.09846820  0.16498618  1
  N  N42  1  0.23463825  0.22659751  0.79722694  1
  N  N43  1  0.12041608  0.08640914  0.59237666  1
  N  N44  1  0.90612414  0.20083069  0.39845804  1
  N  N45  1  0.78677065  0.08801587  0.10007217  1
  N  N46  1  0.55625308  0.20107408  0.84740073  1
  N  N47  1  0.45678894  0.08848813  0.61391418  1
  N  N48  1  0.21861042  0.53870425  0.34434816  1
  N  N49  1  0.10607968  0.42163174  0.03545194  1
  N  N50  1  0.88522090  0.53698859  0.84810685  1
  N  N51  1  0.81105611  0.40782551  0.63636680  1
  N  N52  1  0.53166994  0.55533962  0.37336538  1
  N  N53  1  0.45200473  0.44733128  0.13965413  1
  N  N54  1  0.21609864  0.54480611  0.81739033  1
  N  N55  1  0.11974328  0.42867222  0.58463358  1
  N  N56  1  0.90178732  0.53964136  0.39811365  1
  N  N57  1  0.77464736  0.43706472  0.08816947  1
  N  N58  1  0.55659103  0.52758576  0.86038791  1
  N  N59  1  0.43595515  0.40593346  0.63334686  1
  N  N60  1  0.21947013  0.87626621  0.33000717  1
  N  N61  1  0.10376559  0.78905561  0.03718230  1
  N  N62  1  0.88732972  0.88139747  0.84503579  1
  N  N63  1  0.77882193  0.75850558  0.59131526  1
  N  N64  1  0.56862108  0.86448120  0.35300324  1
  N  N65  1  0.42296651  0.76173429  0.04487516  1
  N  N66  1  0.24488826  0.83729062  0.80024117  1
  N  N67  1  0.12770710  0.75288821  0.57928144  1
  N  N68  1  0.90505850  0.84987295  0.39924059  1
  N  N69  1  0.79852540  0.75685378  0.03808899  1
  N  N70  1  0.55321197  0.86776390  0.81035685  1
  N  N71  1  0.43003940  0.79459926  0.56611549  1
