# generated using pymatgen
data_Gd2Al7N9
_symmetry_space_group_name_H-M   'P 1'
_cell_length_a   9.89539193
_cell_length_b   9.83464939
_cell_length_c   10.75619233
_cell_angle_alpha   89.61027828
_cell_angle_beta   89.34705001
_cell_angle_gamma   59.79162018
_symmetry_Int_Tables_number   1
_chemical_formula_structural   Gd2Al7N9
_chemical_formula_sum   'Gd8 Al28 N36'
_cell_volume   904.55875996
_cell_formula_units_Z   4
loop_
 _symmetry_equiv_pos_site_id
 _symmetry_equiv_pos_as_xyz
  1  'x, y, z'
loop_
 _atom_site_type_symbol
 _atom_site_label
 _atom_site_symmetry_multiplicity
 _atom_site_fract_x
 _atom_site_fract_y
 _atom_site_fract_z
 _atom_site_occupancy
  Al  Al0  1  0.12545980  0.08259051  0.39360790  1
  Al  Al1  1  0.76984075  0.09792566  0.79204491  1
  Al  Al2  1  0.89550254  0.20314201  0.56627690  1
  Al  Al3  1  0.44252900  0.10143580  0.33487432  1
  Al  Al4  1  0.23167507  0.20635332  0.56519646  1
  Al  Al5  1  0.87521699  0.20686941  0.03852901  1
  Al  Al6  1  0.44443850  0.10154463  0.79818180  1
  Al  Al7  1  0.54830070  0.20533834  0.56675260  1
  Al  Al8  1  0.10088236  0.43634770  0.33364762  1
  Al  Al9  1  0.77748537  0.42525969  0.81744287  1
  Al  Al10  1  0.90564494  0.52589652  0.58472328  1
  Al  Al11  1  0.44277508  0.43642086  0.32042929  1
  Al  Al12  1  0.54707532  0.53826961  0.04467398  1
  Al  Al13  1  0.12222286  0.43010485  0.80637560  1
  Al  Al14  1  0.22592828  0.52774782  0.56075334  1
  Al  Al15  1  0.88427791  0.53821105  0.04099261  1
  Al  Al16  1  0.43447460  0.42531505  0.80212885  1
  Al  Al17  1  0.12032918  0.75960222  0.38990074  1
  Al  Al18  1  0.20861404  0.88045916  0.11905505  1
  Al  Al19  1  0.77918581  0.76111684  0.85459917  1
  Al  Al20  1  0.89640757  0.87048430  0.57768977  1
  Al  Al21  1  0.43746881  0.77391423  0.39090947  1
  Al  Al22  1  0.12082933  0.75823370  0.86635180  1
  Al  Al23  1  0.23044058  0.86062003  0.62662640  1
  Al  Al24  1  0.77753763  0.75782646  0.41550203  1
  Al  Al25  1  0.88595416  0.88817313  0.02850704  1
  Al  Al26  1  0.43861779  0.76217198  0.87046146  1
  Al  Al27  1  0.55507850  0.87199773  0.63172402  1
  Gd  Gd28  1  0.21007857  0.21333432  0.08229713  1
  Gd  Gd29  1  0.55148192  0.20933896  0.04903301  1
  Gd  Gd30  1  0.10604301  0.10228591  0.82496444  1
  Gd  Gd31  1  0.78241163  0.08485920  0.31595859  1
  Gd  Gd32  1  0.20302422  0.54974287  0.09166317  1
  Gd  Gd33  1  0.79085437  0.43522316  0.29687741  1
  Gd  Gd34  1  0.56381425  0.53285902  0.58565175  1
  Gd  Gd35  1  0.57284080  0.84112083  0.13901832  1
  N  N36  1  0.22432265  0.20791971  0.38348276  1
  N  N37  1  0.09120903  0.08588085  0.05845850  1
  N  N38  1  0.84930754  0.21648688  0.86480834  1
  N  N39  1  0.77843026  0.09729059  0.61154784  1
  N  N40  1  0.53100133  0.22376899  0.38918397  1
  N  N41  1  0.44845357  0.09546173  0.15998612  1
  N  N42  1  0.24425975  0.22136667  0.86875923  1
  N  N43  1  0.12143968  0.08446529  0.58754460  1
  N  N44  1  0.90930580  0.20038741  0.38960847  1
  N  N45  1  0.79503456  0.08400196  0.10473605  1
  N  N46  1  0.55638177  0.20150316  0.83714462  1
  N  N47  1  0.44347128  0.09564473  0.61873454  1
  N  N48  1  0.22405972  0.53486756  0.36852901  1
  N  N49  1  0.04387646  0.45363191  0.16180445  1
  N  N50  1  0.90304252  0.52402245  0.85982581  1
  N  N51  1  0.81866827  0.40352338  0.64047622  1
  N  N52  1  0.53957711  0.55143462  0.37352034  1
  N  N53  1  0.45830420  0.44270365  0.14184750  1
  N  N54  1  0.22462905  0.53471948  0.86755754  1
  N  N55  1  0.12138538  0.42287720  0.62580167  1
  N  N56  1  0.90336723  0.53968819  0.40942426  1
  N  N57  1  0.76515506  0.43799643  0.07841429  1
  N  N58  1  0.55190405  0.53277814  0.85207250  1
  N  N59  1  0.42673810  0.41535412  0.62623916  1
  N  N60  1  0.22270948  0.87464878  0.31723828  1
  N  N61  1  0.09815026  0.79389722  0.04851359  1
  N  N62  1  0.89156065  0.87832735  0.84067190  1
  N  N63  1  0.77765528  0.76023247  0.59990538  1
  N  N64  1  0.56853554  0.86462265  0.35430561  1
  N  N65  1  0.41721001  0.76171178  0.04882018  1
  N  N66  1  0.24001653  0.84021849  0.80014798  1
  N  N67  1  0.12579376  0.75527819  0.57161077  1
  N  N68  1  0.90220909  0.84826284  0.39392102  1
  N  N69  1  0.79715020  0.75930752  0.03706548  1
  N  N70  1  0.55374082  0.86678883  0.81561458  1
  N  N71  1  0.43069906  0.79482541  0.56675758  1
