# generated using pymatgen
data_Gd2Al7N9
_symmetry_space_group_name_H-M   'P 1'
_cell_length_a   9.90666212
_cell_length_b   9.87147958
_cell_length_c   10.48343222
_cell_angle_alpha   89.24547806
_cell_angle_beta   88.93332506
_cell_angle_gamma   60.21585988
_symmetry_Int_Tables_number   1
_chemical_formula_structural   Gd2Al7N9
_chemical_formula_sum   'Gd8 Al28 N36'
_cell_volume   889.62007842
_cell_formula_units_Z   4
loop_
 _symmetry_equiv_pos_site_id
 _symmetry_equiv_pos_as_xyz
  1  'x, y, z'
loop_
 _atom_site_type_symbol
 _atom_site_label
 _atom_site_symmetry_multiplicity
 _atom_site_fract_x
 _atom_site_fract_y
 _atom_site_fract_z
 _atom_site_occupancy
  Al  Al0  1  0.12181380  0.09408441  0.38515671  1
  Al  Al1  1  0.77058883  0.09229839  0.78574013  1
  Al  Al2  1  0.89285362  0.20883812  0.56036571  1
  Al  Al3  1  0.44291508  0.10056316  0.32396868  1
  Al  Al4  1  0.22889097  0.21415006  0.55662946  1
  Al  Al5  1  0.87763528  0.20224152  0.02618796  1
  Al  Al6  1  0.44620732  0.09348691  0.78513715  1
  Al  Al7  1  0.54617765  0.20842324  0.55773584  1
  Al  Al8  1  0.10632164  0.43706232  0.31970566  1
  Al  Al9  1  0.77880894  0.42827734  0.81150768  1
  Al  Al10  1  0.89904215  0.53943614  0.56293252  1
  Al  Al11  1  0.43996646  0.43764790  0.31018861  1
  Al  Al12  1  0.54996922  0.53856718  0.03489590  1
  Al  Al13  1  0.11616916  0.43043444  0.79303633  1
  Al  Al14  1  0.21853584  0.53996322  0.54729569  1
  Al  Al15  1  0.88925266  0.54180810  0.04220792  1
  Al  Al16  1  0.43253319  0.42325643  0.78899179  1
  Al  Al17  1  0.11426599  0.76581460  0.30880499  1
  Al  Al18  1  0.21220719  0.86388673  0.03898362  1
  Al  Al19  1  0.77879150  0.76212888  0.79738468  1
  Al  Al20  1  0.89434636  0.86425660  0.55544287  1
  Al  Al21  1  0.43881255  0.76704530  0.32477793  1
  Al  Al22  1  0.11161401  0.74942566  0.79382580  1
  Al  Al23  1  0.22494321  0.86535012  0.55928009  1
  Al  Al24  1  0.79770126  0.75397381  0.31186657  1
  Al  Al25  1  0.89700177  0.87193503  0.05015090  1
  Al  Al26  1  0.44086755  0.76040389  0.80391813  1
  Al  Al27  1  0.55795996  0.87498338  0.55861596  1
  Gd  Gd28  1  0.21223593  0.20258742  0.07153359  1
  Gd  Gd29  1  0.55659298  0.20456867  0.04045319  1
  Gd  Gd30  1  0.10926488  0.09048839  0.80800700  1
  Gd  Gd31  1  0.78173462  0.09255036  0.31250775  1
  Gd  Gd32  1  0.21430408  0.54523380  0.06710075  1
  Gd  Gd33  1  0.78584941  0.43895596  0.28499303  1
  Gd  Gd34  1  0.56347866  0.53597712  0.57412050  1
  Gd  Gd35  1  0.56267393  0.85968037  0.06160869  1
  N  N36  1  0.22379817  0.21304688  0.37036730  1
  N  N37  1  0.08990513  0.07904454  0.04192390  1
  N  N38  1  0.84996765  0.21591953  0.84771064  1
  N  N39  1  0.78018936  0.09210594  0.59873665  1
  N  N40  1  0.52860429  0.22675737  0.37630226  1
  N  N41  1  0.44984020  0.08996751  0.14824502  1
  N  N42  1  0.23977109  0.22010505  0.84930982  1
  N  N43  1  0.11867029  0.09137831  0.57879814  1
  N  N44  1  0.90866953  0.20882997  0.37893857  1
  N  N45  1  0.79675413  0.08236079  0.09805017  1
  N  N46  1  0.55407635  0.20083320  0.82224388  1
  N  N47  1  0.44452904  0.09205314  0.60203683  1
  N  N48  1  0.22159855  0.54472094  0.35755350  1
  N  N49  1  0.06802101  0.44077709  0.14279780  1
  N  N50  1  0.89518468  0.54203170  0.85704830  1
  N  N51  1  0.81793193  0.41182118  0.62758879  1
  N  N52  1  0.53637774  0.55464712  0.36125797  1
  N  N53  1  0.46384593  0.43424142  0.12842820  1
  N  N54  1  0.21920479  0.53672157  0.84680487  1
  N  N55  1  0.11449854  0.43037074  0.60848804  1
  N  N56  1  0.90041457  0.55257807  0.38458851  1
  N  N57  1  0.77227913  0.43203860  0.06353387  1
  N  N58  1  0.55035876  0.53506172  0.83999006  1
  N  N59  1  0.42308959  0.41949552  0.61016502  1
  N  N60  1  0.22446268  0.87209544  0.37201555  1
  N  N61  1  0.09478958  0.78936682  0.12699223  1
  N  N62  1  0.88944488  0.86963814  0.85604063  1
  N  N63  1  0.77866384  0.76182298  0.61490557  1
  N  N64  1  0.56354172  0.86803674  0.36772460  1
  N  N65  1  0.42201940  0.74711718  0.09078089  1
  N  N66  1  0.23181885  0.83326096  0.85489318  1
  N  N67  1  0.11168476  0.75832588  0.60924097  1
  N  N68  1  0.90903908  0.84649230  0.37651119  1
  N  N69  1  0.81214213  0.74504606  0.12285546  1
  N  N70  1  0.55448218  0.87399503  0.84134182  1
  N  N71  1  0.42929031  0.79101608  0.61888002  1
