# generated using pymatgen
data_Gd2Al7N9
_symmetry_space_group_name_H-M   'P 1'
_cell_length_a   9.72511689
_cell_length_b   9.78320368
_cell_length_c   10.99954652
_cell_angle_alpha   89.72692324
_cell_angle_beta   88.84208781
_cell_angle_gamma   60.15788955
_symmetry_Int_Tables_number   1
_chemical_formula_structural   Gd2Al7N9
_chemical_formula_sum   'Gd8 Al28 N36'
_cell_volume   907.55578996
_cell_formula_units_Z   4
loop_
 _symmetry_equiv_pos_site_id
 _symmetry_equiv_pos_as_xyz
  1  'x, y, z'
loop_
 _atom_site_type_symbol
 _atom_site_label
 _atom_site_symmetry_multiplicity
 _atom_site_fract_x
 _atom_site_fract_y
 _atom_site_fract_z
 _atom_site_occupancy
  Al  Al0  1  0.13027305  0.08811725  0.42998366  1
  Al  Al1  1  0.78041125  0.09016914  0.81948311  1
  Al  Al2  1  0.90099778  0.19969673  0.59579101  1
  Al  Al3  1  0.45071329  0.10106566  0.42618353  1
  Al  Al4  1  0.23152687  0.20578086  0.65024198  1
  Al  Al5  1  0.87099691  0.20685854  0.06749464  1
  Al  Al6  1  0.44638061  0.08662854  0.88021281  1
  Al  Al7  1  0.55762784  0.19850092  0.63157810  1
  Al  Al8  1  0.12088564  0.43130658  0.43375681  1
  Al  Al9  1  0.76683673  0.41694201  0.83652642  1
  Al  Al10  1  0.89808156  0.53242894  0.66801970  1
  Al  Al11  1  0.43819664  0.44169285  0.33313964  1
  Al  Al12  1  0.52977864  0.54863024  0.07723721  1
  Al  Al13  1  0.12552650  0.42122133  0.88768961  1
  Al  Al14  1  0.21261024  0.54275575  0.65690821  1
  Al  Al15  1  0.87632023  0.53028807  0.03952845  1
  Al  Al16  1  0.43921248  0.42691467  0.82132218  1
  Al  Al17  1  0.13296579  0.75360514  0.42906569  1
  Al  Al18  1  0.20856249  0.87546381  0.14970081  1
  Al  Al19  1  0.77396199  0.76670719  0.87871327  1
  Al  Al20  1  0.89635825  0.86914985  0.59680147  1
  Al  Al21  1  0.43968611  0.78230964  0.40834191  1
  Al  Al22  1  0.12418629  0.75153936  0.89291035  1
  Al  Al23  1  0.23258822  0.86520862  0.65633405  1
  Al  Al24  1  0.78998536  0.74944514  0.42634008  1
  Al  Al25  1  0.88273900  0.88910301  0.04758373  1
  Al  Al26  1  0.44408210  0.75446691  0.89572142  1
  Al  Al27  1  0.55608087  0.87082487  0.65187861  1
  Gd  Gd28  1  0.21067737  0.20903237  0.17051668  1
  Gd  Gd29  1  0.54156065  0.23639586  0.06291603  1
  Gd  Gd30  1  0.12518191  0.08420891  0.89145917  1
  Gd  Gd31  1  0.79198733  0.08390874  0.33718919  1
  Gd  Gd32  1  0.13394875  0.58399915  0.18075539  1
  Gd  Gd33  1  0.79621377  0.43001950  0.31306403  1
  Gd  Gd34  1  0.56642303  0.52424098  0.57997344  1
  Gd  Gd35  1  0.56887501  0.86131444  0.15520894  1
  N  N36  1  0.23013205  0.20661666  0.38661696  1
  N  N37  1  0.08759830  0.09063203  0.10307330  1
  N  N38  1  0.85861700  0.21027415  0.89390373  1
  N  N39  1  0.78651655  0.08985420  0.64484465  1
  N  N40  1  0.53762999  0.22996534  0.39035402  1
  N  N41  1  0.43188787  0.08741655  0.05604520  1
  N  N42  1  0.24040256  0.21790823  0.82136511  1
  N  N43  1  0.12657929  0.08424476  0.61402664  1
  N  N44  1  0.90945593  0.20674545  0.42387370  1
  N  N45  1  0.78493457  0.08245617  0.12636163  1
  N  N46  1  0.55627518  0.19955768  0.84820981  1
  N  N47  1  0.45421592  0.08606045  0.60226460  1
  N  N48  1  0.22509599  0.54332967  0.38239984  1
  N  N49  1  0.09263715  0.42130870  0.05662362  1
  N  N50  1  0.88550942  0.53650926  0.85427423  1
  N  N51  1  0.80672019  0.40274138  0.66607766  1
  N  N52  1  0.54160503  0.56157497  0.37674980  1
  N  N53  1  0.41451752  0.46829013  0.15971497  1
  N  N54  1  0.21233005  0.54407224  0.83728858  1
  N  N55  1  0.10982083  0.42962372  0.60826014  1
  N  N56  1  0.92326011  0.55168831  0.35752557  1
  N  N57  1  0.76068853  0.43458022  0.10110390  1
  N  N58  1  0.54818332  0.52675980  0.88967832  1
  N  N59  1  0.43345740  0.41395031  0.65218384  1
  N  N60  1  0.22279709  0.87904466  0.34578482  1
  N  N61  1  0.10107405  0.78697642  0.06829574  1
  N  N62  1  0.89044299  0.87741873  0.86954547  1
  N  N63  1  0.78159614  0.74870871  0.61181933  1
  N  N64  1  0.56975929  0.87800233  0.36930304  1
  N  N65  1  0.41854130  0.76938027  0.07286911  1
  N  N66  1  0.24563168  0.83534673  0.82581059  1
  N  N67  1  0.12578283  0.75733980  0.60509626  1
  N  N68  1  0.90910426  0.85145902  0.42227800  1
  N  N69  1  0.80083519  0.74704605  0.05656087  1
  N  N70  1  0.55413137  0.86453306  0.83158826  1
  N  N71  1  0.43514854  0.78792682  0.58520940  1
