# generated using pymatgen
data_Gd2Al7N9
_symmetry_space_group_name_H-M   'P 1'
_cell_length_a   9.79144895
_cell_length_b   9.84729741
_cell_length_c   10.77769701
_cell_angle_alpha   90.30982973
_cell_angle_beta   88.94917967
_cell_angle_gamma   60.17097993
_symmetry_Int_Tables_number   1
_chemical_formula_structural   Gd2Al7N9
_chemical_formula_sum   'Gd8 Al28 N36'
_cell_volume   901.22308305
_cell_formula_units_Z   4
loop_
 _symmetry_equiv_pos_site_id
 _symmetry_equiv_pos_as_xyz
  1  'x, y, z'
loop_
 _atom_site_type_symbol
 _atom_site_label
 _atom_site_symmetry_multiplicity
 _atom_site_fract_x
 _atom_site_fract_y
 _atom_site_fract_z
 _atom_site_occupancy
  Al  Al0  1  0.13263223  0.07992500  0.43104199  1
  Al  Al1  1  0.77814719  0.09972714  0.82923059  1
  Al  Al2  1  0.90044793  0.19901185  0.59713175  1
  Al  Al3  1  0.45295510  0.09639429  0.41815274  1
  Al  Al4  1  0.23451002  0.20439261  0.64731773  1
  Al  Al5  1  0.87126374  0.21287650  0.06745497  1
  Al  Al6  1  0.44593019  0.08977623  0.88804019  1
  Al  Al7  1  0.55565318  0.19433594  0.66075554  1
  Al  Al8  1  0.12449074  0.42219219  0.43653529  1
  Al  Al9  1  0.76903915  0.42092556  0.83648508  1
  Al  Al10  1  0.89999924  0.53223397  0.66516229  1
  Al  Al11  1  0.43358907  0.44393652  0.33013098  1
  Al  Al12  1  0.52745290  0.55232405  0.07337569  1
  Al  Al13  1  0.12679407  0.42402255  0.88862357  1
  Al  Al14  1  0.21608997  0.53920862  0.65161432  1
  Al  Al15  1  0.87545548  0.53602602  0.04196900  1
  Al  Al16  1  0.43615283  0.43010156  0.82937571  1
  Al  Al17  1  0.12805449  0.75238777  0.42691767  1
  Al  Al18  1  0.20813735  0.87708495  0.15010654  1
  Al  Al19  1  0.77266552  0.76830483  0.87823668  1
  Al  Al20  1  0.89982971  0.86449861  0.65500674  1
  Al  Al21  1  0.44350907  0.77486941  0.40916303  1
  Al  Al22  1  0.12745035  0.75134142  0.89418485  1
  Al  Al23  1  0.23077021  0.86725800  0.65525816  1
  Al  Al24  1  0.80428329  0.74304188  0.41932243  1
  Al  Al25  1  0.88313586  0.89298587  0.05776032  1
  Al  Al26  1  0.44417132  0.75872590  0.89262812  1
  Al  Al27  1  0.55888820  0.87385188  0.64663317  1
  Gd  Gd28  1  0.20225966  0.21683075  0.17496296  1
  Gd  Gd29  1  0.52964059  0.23513819  0.10366782  1
  Gd  Gd30  1  0.12842941  0.08664613  0.88873862  1
  Gd  Gd31  1  0.79276222  0.07462640  0.34097494  1
  Gd  Gd32  1  0.11512853  0.60061809  0.19290227  1
  Gd  Gd33  1  0.79395894  0.42285415  0.31851109  1
  Gd  Gd34  1  0.56043291  0.53000299  0.59368447  1
  Gd  Gd35  1  0.56585391  0.86183183  0.15503541  1
  N  N36  1  0.23124239  0.19819763  0.39409526  1
  N  N37  1  0.08682528  0.09347160  0.10408657  1
  N  N38  1  0.86331406  0.21519592  0.89165233  1
  N  N39  1  0.78382919  0.09170203  0.64704504  1
  N  N40  1  0.52375999  0.21757024  0.33084381  1
  N  N41  1  0.42275755  0.08752891  0.06123200  1
  N  N42  1  0.24493838  0.21963592  0.82231777  1
  N  N43  1  0.12492967  0.08460112  0.61906776  1
  N  N44  1  0.91411240  0.19512502  0.42244746  1
  N  N45  1  0.78775376  0.09068121  0.12509034  1
  N  N46  1  0.55643766  0.20120652  0.85368482  1
  N  N47  1  0.45971859  0.08834463  0.59815433  1
  N  N48  1  0.23048347  0.53401791  0.39439756  1
  N  N49  1  0.08902920  0.42990933  0.06040752  1
  N  N50  1  0.88468603  0.54013178  0.85388289  1
  N  N51  1  0.80783522  0.40503142  0.66159386  1
  N  N52  1  0.54163039  0.55229341  0.38596800  1
  N  N53  1  0.40246862  0.48760228  0.15613013  1
  N  N54  1  0.21194902  0.54654931  0.83702516  1
  N  N55  1  0.11128451  0.42698697  0.61195666  1
  N  N56  1  0.92814549  0.53534053  0.36190128  1
  N  N57  1  0.75789093  0.44173000  0.10067272  1
  N  N58  1  0.54942203  0.53235571  0.88215790  1
  N  N59  1  0.43495417  0.40848117  0.65373340  1
  N  N60  1  0.22858988  0.87208919  0.34614940  1
  N  N61  1  0.09765196  0.79201316  0.06688892  1
  N  N62  1  0.89328089  0.87419469  0.84856219  1
  N  N63  1  0.78946704  0.75179256  0.60972839  1
  N  N64  1  0.57620213  0.86766088  0.37115436  1
  N  N65  1  0.41723464  0.77171108  0.07124311  1
  N  N66  1  0.24531884  0.83623154  0.82607232  1
  N  N67  1  0.11786750  0.76147367  0.60485502  1
  N  N68  1  0.93055717  0.82223673  0.36009338  1
  N  N69  1  0.80109154  0.75498694  0.05595378  1
  N  N70  1  0.55522195  0.86869587  0.83078230  1
  N  N71  1  0.43353101  0.79261230  0.58727224  1
