# generated using pymatgen
data_Gd2Al7N9
_symmetry_space_group_name_H-M   'P 1'
_cell_length_a   9.74288743
_cell_length_b   9.79457525
_cell_length_c   11.11405653
_cell_angle_alpha   90.43462676
_cell_angle_beta   89.99499596
_cell_angle_gamma   59.90647388
_symmetry_Int_Tables_number   1
_chemical_formula_structural   Gd2Al7N9
_chemical_formula_sum   'Gd8 Al28 N36'
_cell_volume   917.59190529
_cell_formula_units_Z   4
loop_
 _symmetry_equiv_pos_site_id
 _symmetry_equiv_pos_as_xyz
  1  'x, y, z'
loop_
 _atom_site_type_symbol
 _atom_site_label
 _atom_site_symmetry_multiplicity
 _atom_site_fract_x
 _atom_site_fract_y
 _atom_site_fract_z
 _atom_site_occupancy
  Al  Al0  1  0.12565774  0.08115827  0.41148987  1
  Al  Al1  1  0.77559247  0.09744670  0.79563181  1
  Al  Al2  1  0.89459461  0.20091264  0.57075613  1
  Al  Al3  1  0.44422189  0.09569430  0.35769381  1
  Al  Al4  1  0.22418909  0.20958630  0.62034695  1
  Al  Al5  1  0.87048374  0.21114983  0.03963172  1
  Al  Al6  1  0.45432726  0.09978893  0.78314091  1
  Al  Al7  1  0.55394018  0.20536523  0.56441185  1
  Al  Al8  1  0.12534084  0.42769311  0.41475509  1
  Al  Al9  1  0.78047852  0.42231400  0.80687744  1
  Al  Al10  1  0.89677287  0.53048403  0.58282110  1
  Al  Al11  1  0.44000895  0.43445643  0.31761344  1
  Al  Al12  1  0.54857147  0.53750886  0.04560525  1
  Al  Al13  1  0.11940664  0.42828861  0.86153115  1
  Al  Al14  1  0.21407791  0.54249357  0.64202148  1
  Al  Al15  1  0.88431891  0.53465486  0.01920748  1
  Al  Al16  1  0.44756319  0.41963717  0.80175712  1
  Al  Al17  1  0.12779665  0.74847504  0.40226024  1
  Al  Al18  1  0.21224289  0.87847805  0.11706722  1
  Al  Al19  1  0.77470146  0.76547579  0.85522983  1
  Al  Al20  1  0.89465200  0.87318028  0.57534074  1
  Al  Al21  1  0.43194021  0.77799419  0.39374078  1
  Al  Al22  1  0.12196760  0.75803222  0.86599552  1
  Al  Al23  1  0.22716311  0.86859304  0.63403773  1
  Al  Al24  1  0.77837304  0.75693641  0.41465811  1
  Al  Al25  1  0.88469007  0.89107184  0.02267739  1
  Al  Al26  1  0.44643924  0.75670274  0.87048659  1
  Al  Al27  1  0.55787685  0.86806062  0.62748933  1
  Gd  Gd28  1  0.17786745  0.22621300  0.16747662  1
  Gd  Gd29  1  0.53149699  0.21317571  0.04863711  1
  Gd  Gd30  1  0.12933356  0.08958534  0.86734415  1
  Gd  Gd31  1  0.78808653  0.07793327  0.30850747  1
  Gd  Gd32  1  0.17997191  0.57016932  0.13447684  1
  Gd  Gd33  1  0.78013548  0.43208165  0.30257209  1
  Gd  Gd34  1  0.55689920  0.53323790  0.57535549  1
  Gd  Gd35  1  0.57496255  0.84193313  0.14592907  1
  N  N36  1  0.22158630  0.20466293  0.37953794  1
  N  N37  1  0.09190836  0.08945833  0.07276768  1
  N  N38  1  0.86233846  0.21558376  0.86614836  1
  N  N39  1  0.78024438  0.09554905  0.61963557  1
  N  N40  1  0.53636351  0.22415345  0.39052788  1
  N  N41  1  0.43501157  0.09671901  0.16064549  1
  N  N42  1  0.23537762  0.22616961  0.79420816  1
  N  N43  1  0.11955529  0.08560615  0.58962376  1
  N  N44  1  0.90414314  0.19875628  0.39671261  1
  N  N45  1  0.78649783  0.08820185  0.09941473  1
  N  N46  1  0.55787026  0.20095378  0.84269082  1
  N  N47  1  0.45584160  0.08861218  0.60716512  1
  N  N48  1  0.21685742  0.53833976  0.34286332  1
  N  N49  1  0.10637621  0.41966105  0.03343152  1
  N  N50  1  0.88546568  0.53739220  0.84620404  1
  N  N51  1  0.81147263  0.40651916  0.63593691  1
  N  N52  1  0.53126563  0.55503980  0.37252926  1
  N  N53  1  0.45210667  0.44693336  0.13944636  1
  N  N54  1  0.21666325  0.54554052  0.81801536  1
  N  N55  1  0.11868277  0.43022165  0.58481379  1
  N  N56  1  0.90020996  0.53902988  0.39783286  1
  N  N57  1  0.77397450  0.43770389  0.08742292  1
  N  N58  1  0.55767136  0.52777005  0.86021832  1
  N  N59  1  0.43502716  0.40879102  0.63287375  1
  N  N60  1  0.21920426  0.87464807  0.32525112  1
  N  N61  1  0.10412267  0.79085755  0.03877373  1
  N  N62  1  0.88848069  0.88076710  0.84470076  1
  N  N63  1  0.77880664  0.75821940  0.59179195  1
  N  N64  1  0.56679507  0.86547629  0.35697414  1
  N  N65  1  0.42257259  0.76301288  0.04631345  1
  N  N66  1  0.24461569  0.83895349  0.80102142  1
  N  N67  1  0.12693074  0.75371976  0.57843930  1
  N  N68  1  0.90363074  0.84960398  0.39844913  1
  N  N69  1  0.79935054  0.75610802  0.03761350  1
  N  N70  1  0.55286369  0.86892807  0.80817212  1
  N  N71  1  0.42776660  0.79516998  0.56548394  1
