# generated using pymatgen
data_Gd2Al7N9
_symmetry_space_group_name_H-M   'P 1'
_cell_length_a   9.89680701
_cell_length_b   9.82846798
_cell_length_c   10.76734811
_cell_angle_alpha   89.62887922
_cell_angle_beta   89.36245314
_cell_angle_gamma   59.75811900
_symmetry_Int_Tables_number   1
_chemical_formula_structural   Gd2Al7N9
_chemical_formula_sum   'Gd8 Al28 N36'
_cell_volume   904.75190813
_cell_formula_units_Z   4
loop_
 _symmetry_equiv_pos_site_id
 _symmetry_equiv_pos_as_xyz
  1  'x, y, z'
loop_
 _atom_site_type_symbol
 _atom_site_label
 _atom_site_symmetry_multiplicity
 _atom_site_fract_x
 _atom_site_fract_y
 _atom_site_fract_z
 _atom_site_occupancy
  Al  Al0  1  0.12544278  0.08285445  0.39539509  1
  Al  Al1  1  0.76998503  0.09782642  0.79355941  1
  Al  Al2  1  0.89576167  0.20313130  0.56792192  1
  Al  Al3  1  0.44261291  0.10155734  0.33675753  1
  Al  Al4  1  0.23158803  0.20667372  0.56673714  1
  Al  Al5  1  0.87475681  0.20687681  0.03953814  1
  Al  Al6  1  0.44443501  0.10171299  0.79977173  1
  Al  Al7  1  0.54814287  0.20547842  0.56823006  1
  Al  Al8  1  0.10090212  0.43675969  0.33523950  1
  Al  Al9  1  0.77714203  0.42553172  0.81858802  1
  Al  Al10  1  0.90561265  0.52621766  0.58651936  1
  Al  Al11  1  0.44287236  0.43665163  0.32069149  1
  Al  Al12  1  0.54700813  0.53782534  0.04555994  1
  Al  Al13  1  0.12222317  0.43015799  0.80885812  1
  Al  Al14  1  0.22546460  0.52853579  0.56463868  1
  Al  Al15  1  0.88378962  0.53802556  0.04228357  1
  Al  Al16  1  0.43500253  0.42556094  0.80394089  1
  Al  Al17  1  0.12043316  0.75948447  0.39121877  1
  Al  Al18  1  0.20867961  0.88018650  0.12017410  1
  Al  Al19  1  0.77889176  0.76138928  0.85645058  1
  Al  Al20  1  0.89621067  0.87099719  0.57895578  1
  Al  Al21  1  0.43728791  0.77430902  0.39241825  1
  Al  Al22  1  0.12103055  0.75823906  0.86829953  1
  Al  Al23  1  0.23074860  0.86051628  0.62837171  1
  Al  Al24  1  0.77756640  0.75815191  0.41744088  1
  Al  Al25  1  0.88603171  0.88789552  0.03009813  1
  Al  Al26  1  0.43865518  0.76235602  0.87188656  1
  Al  Al27  1  0.55513366  0.87185200  0.63324955  1
  Gd  Gd28  1  0.20990721  0.21253948  0.08474509  1
  Gd  Gd29  1  0.55139491  0.20775315  0.05026079  1
  Gd  Gd30  1  0.10611243  0.10282882  0.82665346  1
  Gd  Gd31  1  0.78233803  0.08530403  0.31722735  1
  Gd  Gd32  1  0.20255201  0.54929895  0.09423507  1
  Gd  Gd33  1  0.79219344  0.43508180  0.29766868  1
  Gd  Gd34  1  0.56465156  0.53165648  0.58516382  1
  Gd  Gd35  1  0.57310605  0.83985164  0.14171034  1
  N  N36  1  0.22426365  0.20835979  0.38529527  1
  N  N37  1  0.09089764  0.08551308  0.05916252  1
  N  N38  1  0.84933550  0.21655641  0.86597202  1
  N  N39  1  0.77835912  0.09763830  0.61319661  1
  N  N40  1  0.53092784  0.22428578  0.39076387  1
  N  N41  1  0.44851858  0.09440547  0.16216092  1
  N  N42  1  0.24477567  0.22139624  0.87163474  1
  N  N43  1  0.12171178  0.08449310  0.58901163  1
  N  N44  1  0.90920003  0.20071921  0.39137934  1
  N  N45  1  0.79504697  0.08389850  0.10619636  1
  N  N46  1  0.55660074  0.20144585  0.83861144  1
  N  N47  1  0.44322638  0.09589698  0.62042558  1
  N  N48  1  0.22391414  0.53561607  0.36769111  1
  N  N49  1  0.04259999  0.45320320  0.16372130  1
  N  N50  1  0.90284744  0.52404317  0.86151653  1
  N  N51  1  0.81872359  0.40374864  0.64202407  1
  N  N52  1  0.53999695  0.55174440  0.37330042  1
  N  N53  1  0.45859319  0.44152855  0.14216230  1
  N  N54  1  0.22480567  0.53491216  0.86876743  1
  N  N55  1  0.12123749  0.42297414  0.62822300  1
  N  N56  1  0.90371087  0.53982437  0.41138646  1
  N  N57  1  0.76487377  0.43781156  0.07964464  1
  N  N58  1  0.55198058  0.53298512  0.85358657  1
  N  N59  1  0.42692919  0.41554781  0.62815275  1
  N  N60  1  0.22266813  0.87505558  0.31883283  1
  N  N61  1  0.09832369  0.79325267  0.05021986  1
  N  N62  1  0.89157335  0.87825906  0.84262508  1
  N  N63  1  0.77772387  0.76061641  0.60148011  1
  N  N64  1  0.56845400  0.86501648  0.35679299  1
  N  N65  1  0.41721889  0.76169455  0.05012190  1
  N  N66  1  0.23982407  0.84057626  0.80173396  1
  N  N67  1  0.12574644  0.75548596  0.57302485  1
  N  N68  1  0.90208333  0.84878904  0.39566574  1
  N  N69  1  0.79655156  0.75952117  0.03874497  1
  N  N70  1  0.55370525  0.86686478  0.81685952  1
  N  N71  1  0.43113199  0.79393276  0.56834960  1
