# generated using pymatgen
data_Gd2Al7N9
_symmetry_space_group_name_H-M   'P 1'
_cell_length_a   9.86982332
_cell_length_b   9.85836533
_cell_length_c   10.47387655
_cell_angle_alpha   89.94118128
_cell_angle_beta   89.62566527
_cell_angle_gamma   60.07610111
_symmetry_Int_Tables_number   1
_chemical_formula_structural   Gd2Al7N9
_chemical_formula_sum   'Gd8 Al28 N36'
_cell_volume   883.23075859
_cell_formula_units_Z   4
loop_
 _symmetry_equiv_pos_site_id
 _symmetry_equiv_pos_as_xyz
  1  'x, y, z'
loop_
 _atom_site_type_symbol
 _atom_site_label
 _atom_site_symmetry_multiplicity
 _atom_site_fract_x
 _atom_site_fract_y
 _atom_site_fract_z
 _atom_site_occupancy
  Al  Al0  1  0.11797554  0.08992162  0.33893117  1
  Al  Al1  1  0.77549078  0.09249018  0.78620834  1
  Al  Al2  1  0.89787698  0.20519883  0.55572807  1
  Al  Al3  1  0.44235169  0.09748115  0.32248008  1
  Al  Al4  1  0.22401136  0.20897226  0.54855441  1
  Al  Al5  1  0.88350067  0.20150815  0.03494320  1
  Al  Al6  1  0.44746391  0.09385983  0.78051302  1
  Al  Al7  1  0.54663329  0.20843769  0.55829978  1
  Al  Al8  1  0.10540424  0.43604522  0.31906476  1
  Al  Al9  1  0.78063975  0.42742468  0.81308489  1
  Al  Al10  1  0.89805820  0.53812856  0.56236798  1
  Al  Al11  1  0.43777484  0.43480610  0.30952050  1
  Al  Al12  1  0.54737022  0.54335674  0.04157960  1
  Al  Al13  1  0.11681469  0.43008427  0.78941995  1
  Al  Al14  1  0.21891003  0.54007609  0.54883513  1
  Al  Al15  1  0.88743101  0.54353428  0.04286389  1
  Al  Al16  1  0.43544333  0.42663568  0.78769346  1
  Al  Al17  1  0.11109140  0.76177238  0.31042053  1
  Al  Al18  1  0.21303620  0.86776488  0.05798531  1
  Al  Al19  1  0.77948344  0.76226181  0.79641361  1
  Al  Al20  1  0.89456429  0.86425029  0.55720685  1
  Al  Al21  1  0.43566816  0.75985610  0.30260981  1
  Al  Al22  1  0.11581319  0.75210659  0.79671377  1
  Al  Al23  1  0.22273280  0.87175302  0.54902144  1
  Al  Al24  1  0.79348476  0.75301727  0.31267397  1
  Al  Al25  1  0.89613139  0.87270071  0.04904140  1
  Al  Al26  1  0.44099067  0.76256422  0.80197736  1
  Al  Al27  1  0.55500480  0.87463474  0.55315743  1
  Gd  Gd28  1  0.21603513  0.20724914  0.06713639  1
  Gd  Gd29  1  0.55628281  0.20836013  0.03553203  1
  Gd  Gd30  1  0.11656735  0.08549970  0.80068551  1
  Gd  Gd31  1  0.77805014  0.08841184  0.31078284  1
  Gd  Gd32  1  0.21031249  0.54694286  0.06268882  1
  Gd  Gd33  1  0.78538384  0.43495987  0.28540771  1
  Gd  Gd34  1  0.56177310  0.54036867  0.56762414  1
  Gd  Gd35  1  0.56239687  0.86257814  0.06068297  1
  N  N36  1  0.22077379  0.20903960  0.36255250  1
  N  N37  1  0.09102057  0.08283166  0.09519997  1
  N  N38  1  0.86176659  0.21185387  0.85498174  1
  N  N39  1  0.78237399  0.09165825  0.59954560  1
  N  N40  1  0.52644444  0.22543639  0.37666673  1
  N  N41  1  0.45362532  0.09321466  0.14597330  1
  N  N42  1  0.24010795  0.21923681  0.84676768  1
  N  N43  1  0.11789808  0.09119480  0.58378045  1
  N  N44  1  0.90757822  0.20346629  0.37603115  1
  N  N45  1  0.79602798  0.08372570  0.09559503  1
  N  N46  1  0.55647220  0.20239332  0.81777239  1
  N  N47  1  0.44288386  0.09221933  0.59761543  1
  N  N48  1  0.22037861  0.54265967  0.35949205  1
  N  N49  1  0.06816557  0.44254164  0.14190126  1
  N  N50  1  0.89637286  0.54224948  0.85746451  1
  N  N51  1  0.81635351  0.41035128  0.62766632  1
  N  N52  1  0.53609174  0.55071416  0.35719684  1
  N  N53  1  0.45842066  0.43818246  0.12673587  1
  N  N54  1  0.22104209  0.53730288  0.84288707  1
  N  N55  1  0.11539501  0.42802785  0.60538841  1
  N  N56  1  0.89875955  0.55088196  0.38390535  1
  N  N57  1  0.77104061  0.43467300  0.06547904  1
  N  N58  1  0.55042179  0.53955590  0.84612983  1
  N  N59  1  0.42602851  0.42151593  0.60939132  1
  N  N60  1  0.22340767  0.86924409  0.36518701  1
  N  N61  1  0.09283929  0.78801803  0.12931769  1
  N  N62  1  0.89194732  0.86960642  0.85580651  1
  N  N63  1  0.77742542  0.76135043  0.61408149  1
  N  N64  1  0.56092212  0.86453682  0.36274970  1
  N  N65  1  0.42455671  0.74989104  0.11844669  1
  N  N66  1  0.23566404  0.83591090  0.87364390  1
  N  N67  1  0.11430566  0.76157342  0.61098344  1
  N  N68  1  0.90689237  0.84389267  0.37859576  1
  N  N69  1  0.81066013  0.74780855  0.12215766  1
  N  N70  1  0.55471783  0.87594915  0.84157760  1
  N  N71  1  0.42450581  0.79506814  0.62087320  1
