# generated using pymatgen
data_Gd2Al7N9
_symmetry_space_group_name_H-M   'P 1'
_cell_length_a   9.75016893
_cell_length_b   9.76806741
_cell_length_c   11.25434595
_cell_angle_alpha   89.70298442
_cell_angle_beta   89.13630596
_cell_angle_gamma   59.92109668
_symmetry_Int_Tables_number   1
_chemical_formula_structural   Gd2Al7N9
_chemical_formula_sum   'Gd8 Al28 N36'
_cell_volume   927.41658015
_cell_formula_units_Z   4
loop_
 _symmetry_equiv_pos_site_id
 _symmetry_equiv_pos_as_xyz
  1  'x, y, z'
loop_
 _atom_site_type_symbol
 _atom_site_label
 _atom_site_symmetry_multiplicity
 _atom_site_fract_x
 _atom_site_fract_y
 _atom_site_fract_z
 _atom_site_occupancy
  Al  Al0  1  0.13105332  0.08621454  0.42088818  1
  Al  Al1  1  0.76607187  0.09963689  0.79519088  1
  Al  Al2  1  0.89519146  0.20291452  0.57378799  1
  Al  Al3  1  0.44610641  0.09966131  0.33888455  1
  Al  Al4  1  0.22954559  0.21225226  0.62487812  1
  Al  Al5  1  0.86743557  0.20955276  0.03242677  1
  Al  Al6  1  0.45294210  0.09838290  0.78768101  1
  Al  Al7  1  0.55296475  0.20233223  0.56052769  1
  Al  Al8  1  0.13087864  0.42808582  0.41429439  1
  Al  Al9  1  0.77386087  0.42750627  0.80656988  1
  Al  Al10  1  0.89924190  0.53122276  0.57951239  1
  Al  Al11  1  0.44393708  0.43809613  0.31678423  1
  Al  Al12  1  0.54855315  0.53329125  0.04172627  1
  Al  Al13  1  0.11917170  0.42766634  0.86776490  1
  Al  Al14  1  0.21491530  0.53977235  0.64248903  1
  Al  Al15  1  0.88246164  0.53337922  0.02203387  1
  Al  Al16  1  0.44525132  0.41749862  0.80116644  1
  Al  Al17  1  0.13322500  0.75283941  0.41003829  1
  Al  Al18  1  0.21164571  0.87578857  0.06724968  1
  Al  Al19  1  0.77147432  0.76404332  0.85859065  1
  Al  Al20  1  0.89497382  0.87426133  0.57682970  1
  Al  Al21  1  0.43606937  0.78203879  0.40200598  1
  Al  Al22  1  0.11548056  0.75537063  0.85922258  1
  Al  Al23  1  0.23170388  0.86390062  0.63372727  1
  Al  Al24  1  0.78026753  0.76182421  0.41557276  1
  Al  Al25  1  0.88007941  0.88963711  0.02110871  1
  Al  Al26  1  0.44572886  0.75564830  0.86471454  1
  Al  Al27  1  0.56208857  0.86607626  0.63211862  1
  Gd  Gd28  1  0.17288766  0.21453300  0.16294019  1
  Gd  Gd29  1  0.53158892  0.21097361  0.05319244  1
  Gd  Gd30  1  0.10963593  0.10013773  0.84050216  1
  Gd  Gd31  1  0.79953715  0.07928634  0.30965179  1
  Gd  Gd32  1  0.17735127  0.57116320  0.14283916  1
  Gd  Gd33  1  0.78597049  0.43623673  0.30331689  1
  Gd  Gd34  1  0.56314389  0.52465222  0.57126264  1
  Gd  Gd35  1  0.56952279  0.83613131  0.14843567  1
  N  N36  1  0.22449787  0.20803786  0.37458714  1
  N  N37  1  0.09246781  0.08787931  0.04785857  1
  N  N38  1  0.84583936  0.22172676  0.86388638  1
  N  N39  1  0.77828721  0.09755679  0.62064007  1
  N  N40  1  0.54166826  0.22248125  0.38625363  1
  N  N41  1  0.43233912  0.09433199  0.16483901  1
  N  N42  1  0.23463849  0.22904190  0.79715667  1
  N  N43  1  0.12138231  0.08874186  0.59893817  1
  N  N44  1  0.90821138  0.20502978  0.40219991  1
  N  N45  1  0.78849205  0.08467793  0.10037727  1
  N  N46  1  0.55192434  0.20085481  0.84934466  1
  N  N47  1  0.45796775  0.08754392  0.61529092  1
  N  N48  1  0.22246019  0.54338830  0.34823035  1
  N  N49  1  0.10466625  0.42107752  0.04076582  1
  N  N50  1  0.88508701  0.53473529  0.85204941  1
  N  N51  1  0.81340116  0.40885971  0.63853662  1
  N  N52  1  0.53695690  0.55762505  0.37050295  1
  N  N53  1  0.44902837  0.44758323  0.13918303  1
  N  N54  1  0.21443874  0.54318188  0.81525583  1
  N  N55  1  0.12113163  0.42890265  0.58275635  1
  N  N56  1  0.90441200  0.54283809  0.39840530  1
  N  N57  1  0.77271992  0.43370448  0.08764206  1
  N  N58  1  0.55320876  0.52767700  0.85841559  1
  N  N59  1  0.43654527  0.40486519  0.63336673  1
  N  N60  1  0.22224436  0.88038086  0.35605425  1
  N  N61  1  0.10007667  0.78059982  0.03011552  1
  N  N62  1  0.88236243  0.88191495  0.84489491  1
  N  N63  1  0.78067517  0.75868887  0.59128572  1
  N  N64  1  0.57063483  0.86733141  0.35623537  1
  N  N65  1  0.42629642  0.75865973  0.03756917  1
  N  N66  1  0.24121538  0.83933738  0.80215339  1
  N  N67  1  0.12588359  0.75356591  0.58472103  1
  N  N68  1  0.90775108  0.85348735  0.40221767  1
  N  N69  1  0.79134386  0.75723938  0.03905393  1
  N  N70  1  0.55397779  0.86643287  0.80910667  1
  N  N71  1  0.43756846  0.78670750  0.57327817  1
