# generated using pymatgen
data_Gd2Al7N9
_symmetry_space_group_name_H-M   'P 1'
_cell_length_a   9.92573753
_cell_length_b   9.93627811
_cell_length_c   10.49929501
_cell_angle_alpha   90.46786977
_cell_angle_beta   89.94770068
_cell_angle_gamma   59.81548583
_symmetry_Int_Tables_number   1
_chemical_formula_structural   Gd2Al7N9
_chemical_formula_sum   'Gd8 Al28 N36'
_cell_volume   895.04529042
_cell_formula_units_Z   4
loop_
 _symmetry_equiv_pos_site_id
 _symmetry_equiv_pos_as_xyz
  1  'x, y, z'
loop_
 _atom_site_type_symbol
 _atom_site_label
 _atom_site_symmetry_multiplicity
 _atom_site_fract_x
 _atom_site_fract_y
 _atom_site_fract_z
 _atom_site_occupancy
  Al  Al0  1  0.12122811  0.08526381  0.41885794  1
  Al  Al1  1  0.77503718  0.09479325  0.82470701  1
  Al  Al2  1  0.89210982  0.20717461  0.64259253  1
  Al  Al3  1  0.44382110  0.09099738  0.42075521  1
  Al  Al4  1  0.22423656  0.21127323  0.63795480  1
  Al  Al5  1  0.89826379  0.19749354  0.16537284  1
  Al  Al6  1  0.44336307  0.09585751  0.88220565  1
  Al  Al7  1  0.54226869  0.20411502  0.65515225  1
  Al  Al8  1  0.11281866  0.43184017  0.41603355  1
  Al  Al9  1  0.78154387  0.43425847  0.82506135  1
  Al  Al10  1  0.89473939  0.54643758  0.64904199  1
  Al  Al11  1  0.42460595  0.42468483  0.41934182  1
  Al  Al12  1  0.56954528  0.53393679  0.06186595  1
  Al  Al13  1  0.11070425  0.43250791  0.88664570  1
  Al  Al14  1  0.21112440  0.53911801  0.65322707  1
  Al  Al15  1  0.89469499  0.54008059  0.14055958  1
  Al  Al16  1  0.43888659  0.42840169  0.88489971  1
  Al  Al17  1  0.12257102  0.74972294  0.40732344  1
  Al  Al18  1  0.21579304  0.87297212  0.15078929  1
  Al  Al19  1  0.78774953  0.76019374  0.89402848  1
  Al  Al20  1  0.89773985  0.86006260  0.64912376  1
  Al  Al21  1  0.43048246  0.77387833  0.41136743  1
  Al  Al22  1  0.11264907  0.76260649  0.89359780  1
  Al  Al23  1  0.21758432  0.87726353  0.64946331  1
  Al  Al24  1  0.79528627  0.75095548  0.40173278  1
  Al  Al25  1  0.90441508  0.86441712  0.15006102  1
  Al  Al26  1  0.44157655  0.76569581  0.89170377  1
  Al  Al27  1  0.55698756  0.87682296  0.64809054  1
  Gd  Gd28  1  0.21498281  0.21084261  0.17035944  1
  Gd  Gd29  1  0.55808699  0.20612203  0.13109144  1
  Gd  Gd30  1  0.11251165  0.09732020  0.89140074  1
  Gd  Gd31  1  0.77964671  0.08140071  0.39254141  1
  Gd  Gd32  1  0.21559540  0.54977785  0.14681302  1
  Gd  Gd33  1  0.76508489  0.44513921  0.36973274  1
  Gd  Gd34  1  0.53041955  0.55497211  0.63221583  1
  Gd  Gd35  1  0.56372609  0.85777765  0.14552139  1
  N  N36  1  0.22430389  0.20154042  0.39265837  1
  N  N37  1  0.10249220  0.08453222  0.10458071  1
  N  N38  1  0.86550708  0.21930856  0.82696373  1
  N  N39  1  0.77535403  0.09148480  0.62582810  1
  N  N40  1  0.51797096  0.21826224  0.35033926  1
  N  N41  1  0.43250434  0.08790948  0.05896092  1
  N  N42  1  0.23474905  0.22418914  0.82009574  1
  N  N43  1  0.10844681  0.09351916  0.60565625  1
  N  N44  1  0.91990440  0.19328549  0.35653268  1
  N  N45  1  0.80608032  0.07824958  0.14936869  1
  N  N46  1  0.55461114  0.20511779  0.84048552  1
  N  N47  1  0.45138885  0.08928205  0.60176246  1
  N  N48  1  0.22028813  0.53479773  0.36535930  1
  N  N49  1  0.09075993  0.43102329  0.06440608  1
  N  N50  1  0.89183197  0.54611391  0.83189160  1
  N  N51  1  0.79520756  0.42696725  0.62310494  1
  N  N52  1  0.50946394  0.55687179  0.40698421  1
  N  N53  1  0.45005786  0.44241171  0.06033963  1
  N  N54  1  0.21718830  0.54514733  0.83884860  1
  N  N55  1  0.10323445  0.43618014  0.59634121  1
  N  N56  1  0.91660269  0.54626828  0.32896146  1
  N  N57  1  0.77408084  0.43155008  0.13292404  1
  N  N58  1  0.56598490  0.54028368  0.86481899  1
  N  N59  1  0.41987296  0.40780914  0.60332975  1
  N  N60  1  0.22230499  0.87148224  0.34279674  1
  N  N61  1  0.10139720  0.78880522  0.07404936  1
  N  N62  1  0.89381138  0.86980530  0.83232476  1
  N  N63  1  0.78336029  0.76007373  0.58909383  1
  N  N64  1  0.56416698  0.86687433  0.36466615  1
  N  N65  1  0.42530588  0.75371786  0.07398283  1
  N  N66  1  0.23795346  0.84302873  0.82635841  1
  N  N67  1  0.11397034  0.76105340  0.59227073  1
  N  N68  1  0.91914921  0.83110958  0.33591026  1
  N  N69  1  0.81139238  0.74915307  0.07594282  1
  N  N70  1  0.56217956  0.86754724  0.83671143  1
  N  N71  1  0.42062447  0.80906297  0.58978230  1
