# generated using pymatgen
data_Gd2Al7N9
_symmetry_space_group_name_H-M   'P 1'
_cell_length_a   9.93723920
_cell_length_b   9.93430802
_cell_length_c   10.49505661
_cell_angle_alpha   90.46593315
_cell_angle_beta   89.89965287
_cell_angle_gamma   59.82026124
_symmetry_Int_Tables_number   1
_chemical_formula_structural   Gd2Al7N9
_chemical_formula_sum   'Gd8 Al28 N36'
_cell_volume   895.58143054
_cell_formula_units_Z   4
loop_
 _symmetry_equiv_pos_site_id
 _symmetry_equiv_pos_as_xyz
  1  'x, y, z'
loop_
 _atom_site_type_symbol
 _atom_site_label
 _atom_site_symmetry_multiplicity
 _atom_site_fract_x
 _atom_site_fract_y
 _atom_site_fract_z
 _atom_site_occupancy
  Al  Al0  1  0.12579637  0.08243287  0.42631625  1
  Al  Al1  1  0.77635447  0.09666125  0.82085104  1
  Al  Al2  1  0.89465223  0.20691359  0.61086310  1
  Al  Al3  1  0.44261899  0.09171872  0.42012892  1
  Al  Al4  1  0.22631872  0.21200624  0.64091614  1
  Al  Al5  1  0.88675426  0.20498619  0.11577058  1
  Al  Al6  1  0.44449119  0.09641735  0.88263425  1
  Al  Al7  1  0.54256175  0.20393559  0.65557555  1
  Al  Al8  1  0.11198632  0.43136393  0.41608773  1
  Al  Al9  1  0.78323664  0.43108396  0.82235307  1
  Al  Al10  1  0.89477713  0.54645780  0.65021649  1
  Al  Al11  1  0.42392013  0.42512413  0.41956476  1
  Al  Al12  1  0.56720164  0.53543497  0.05930626  1
  Al  Al13  1  0.11047535  0.43393109  0.88736861  1
  Al  Al14  1  0.21119102  0.53923894  0.65345803  1
  Al  Al15  1  0.89550240  0.54171638  0.14054869  1
  Al  Al16  1  0.43903910  0.42792475  0.88428312  1
  Al  Al17  1  0.12154508  0.75025477  0.40759266  1
  Al  Al18  1  0.21349717  0.87536959  0.14994870  1
  Al  Al19  1  0.78818227  0.76033840  0.89370243  1
  Al  Al20  1  0.89735870  0.86051976  0.64976749  1
  Al  Al21  1  0.43151561  0.77323647  0.41071071  1
  Al  Al22  1  0.11231189  0.76263842  0.89346552  1
  Al  Al23  1  0.22047919  0.87427493  0.65052071  1
  Al  Al24  1  0.79488254  0.74925449  0.40187569  1
  Al  Al25  1  0.90470411  0.86499803  0.15090033  1
  Al  Al26  1  0.44216140  0.76513532  0.89125352  1
  Al  Al27  1  0.55729025  0.87682590  0.64769840  1
  Gd  Gd28  1  0.21327995  0.21034480  0.16852192  1
  Gd  Gd29  1  0.55695754  0.20613728  0.13140371  1
  Gd  Gd30  1  0.11650704  0.09564780  0.88082806  1
  Gd  Gd31  1  0.77776624  0.07907043  0.39168735  1
  Gd  Gd32  1  0.21611682  0.55075209  0.14737584  1
  Gd  Gd33  1  0.76572531  0.43712655  0.36306334  1
  Gd  Gd34  1  0.53230670  0.55387039  0.63204920  1
  Gd  Gd35  1  0.56316203  0.85803396  0.14546082  1
  N  N36  1  0.22313313  0.20109967  0.39052529  1
  N  N37  1  0.09906722  0.08694237  0.10014076  1
  N  N38  1  0.86438333  0.21961509  0.84444136  1
  N  N39  1  0.77433183  0.09138811  0.62845522  1
  N  N40  1  0.51586262  0.21972062  0.34958503  1
  N  N41  1  0.43261988  0.08780935  0.05959585  1
  N  N42  1  0.23721972  0.22710594  0.82172826  1
  N  N43  1  0.11796350  0.09104995  0.61651989  1
  N  N44  1  0.91281516  0.19429321  0.41726158  1
  N  N45  1  0.80695175  0.08168095  0.15544357  1
  N  N46  1  0.55504174  0.20505156  0.84076249  1
  N  N47  1  0.45148563  0.08956603  0.60109016  1
  N  N48  1  0.21956701  0.53509475  0.36570926  1
  N  N49  1  0.09111965  0.43244202  0.06573829  1
  N  N50  1  0.89248236  0.54623581  0.83319572  1
  N  N51  1  0.79465255  0.42788360  0.62971948  1
  N  N52  1  0.51117311  0.55592194  0.40558080  1
  N  N53  1  0.45055900  0.44133066  0.06052027  1
  N  N54  1  0.21725222  0.54542717  0.83927460  1
  N  N55  1  0.10327914  0.43607246  0.59636230  1
  N  N56  1  0.91463511  0.54393366  0.32909741  1
  N  N57  1  0.77432587  0.43061039  0.12935368  1
  N  N58  1  0.56621087  0.54034128  0.86531008  1
  N  N59  1  0.41987581  0.40792873  0.60337615  1
  N  N60  1  0.22138171  0.87347090  0.34246637  1
  N  N61  1  0.10032468  0.79005594  0.07430213  1
  N  N62  1  0.89410914  0.86987224  0.83279270  1
  N  N63  1  0.78361419  0.76001421  0.58897981  1
  N  N64  1  0.56408816  0.86746089  0.36424938  1
  N  N65  1  0.42430178  0.75436746  0.07437539  1
  N  N66  1  0.24042916  0.83856540  0.82645558  1
  N  N67  1  0.11375303  0.76163490  0.59213181  1
  N  N68  1  0.91973860  0.82864219  0.33499316  1
  N  N69  1  0.81072272  0.75065647  0.07641064  1
  N  N70  1  0.56182396  0.86807257  0.83671211  1
  N  N71  1  0.42246046  0.80746122  0.58893887  1
