# generated using pymatgen
data_Gd2Al7N9
_symmetry_space_group_name_H-M   'P 1'
_cell_length_a   9.75667088
_cell_length_b   9.82514246
_cell_length_c   10.87555414
_cell_angle_alpha   90.47355090
_cell_angle_beta   89.05235134
_cell_angle_gamma   60.01728771
_symmetry_Int_Tables_number   1
_chemical_formula_structural   Gd2Al7N9
_chemical_formula_sum   'Gd8 Al28 N36'
_cell_volume   902.73367112
_cell_formula_units_Z   4
loop_
 _symmetry_equiv_pos_site_id
 _symmetry_equiv_pos_as_xyz
  1  'x, y, z'
loop_
 _atom_site_type_symbol
 _atom_site_label
 _atom_site_symmetry_multiplicity
 _atom_site_fract_x
 _atom_site_fract_y
 _atom_site_fract_z
 _atom_site_occupancy
  Al  Al0  1  0.13125643  0.08208550  0.42932077  1
  Al  Al1  1  0.78573347  0.09250438  0.82490031  1
  Al  Al2  1  0.90057135  0.19802478  0.59486244  1
  Al  Al3  1  0.45473882  0.09673057  0.41673337  1
  Al  Al4  1  0.23391709  0.20408686  0.64505375  1
  Al  Al5  1  0.86804467  0.21311748  0.06352572  1
  Al  Al6  1  0.44684828  0.08954315  0.88378197  1
  Al  Al7  1  0.55788012  0.19204334  0.66013621  1
  Al  Al8  1  0.12357939  0.42569932  0.43410525  1
  Al  Al9  1  0.77150633  0.41788979  0.83297072  1
  Al  Al10  1  0.89993883  0.53133391  0.66478539  1
  Al  Al11  1  0.43429206  0.44329225  0.32450262  1
  Al  Al12  1  0.52698224  0.55261690  0.07091096  1
  Al  Al13  1  0.12702121  0.42340352  0.88687319  1
  Al  Al14  1  0.21619871  0.53896112  0.65592985  1
  Al  Al15  1  0.87352131  0.53587909  0.03826734  1
  Al  Al16  1  0.43957325  0.42845712  0.82712465  1
  Al  Al17  1  0.13506616  0.74920065  0.42956950  1
  Al  Al18  1  0.20707870  0.87711120  0.15022393  1
  Al  Al19  1  0.77427048  0.76781973  0.87329229  1
  Al  Al20  1  0.89863732  0.86660771  0.60691440  1
  Al  Al21  1  0.44248525  0.77525884  0.40730529  1
  Al  Al22  1  0.12693416  0.75289578  0.89152144  1
  Al  Al23  1  0.23177838  0.86753544  0.65557925  1
  Al  Al24  1  0.79546363  0.74390053  0.42329070  1
  Al  Al25  1  0.88117604  0.89304561  0.04121532  1
  Al  Al26  1  0.44601281  0.75740729  0.89118770  1
  Al  Al27  1  0.55754454  0.87255902  0.64665989  1
  Gd  Gd28  1  0.20055720  0.21907278  0.17572235  1
  Gd  Gd29  1  0.52643960  0.23556223  0.09599709  1
  Gd  Gd30  1  0.13566443  0.08465995  0.89705843  1
  Gd  Gd31  1  0.79817181  0.07530989  0.32860243  1
  Gd  Gd32  1  0.11735769  0.59858324  0.18494011  1
  Gd  Gd33  1  0.79493392  0.42514420  0.31413894  1
  Gd  Gd34  1  0.56160479  0.52639929  0.58724911  1
  Gd  Gd35  1  0.56435184  0.86423663  0.15248637  1
  N  N36  1  0.23118917  0.20005686  0.39192269  1
  N  N37  1  0.08187277  0.09616887  0.11022327  1
  N  N38  1  0.86952242  0.21185966  0.88877793  1
  N  N39  1  0.78643019  0.08980470  0.64633530  1
  N  N40  1  0.52817217  0.21559735  0.32743479  1
  N  N41  1  0.41621242  0.08937954  0.05572093  1
  N  N42  1  0.24457522  0.21957450  0.81825165  1
  N  N43  1  0.12611769  0.08367948  0.61336518  1
  N  N44  1  0.91029611  0.19920285  0.42087311  1
  N  N45  1  0.78430325  0.08849183  0.11540389  1
  N  N46  1  0.55947813  0.19931153  0.85119225  1
  N  N47  1  0.46084558  0.08721156  0.59571724  1
  N  N48  1  0.22827238  0.53618635  0.38540320  1
  N  N49  1  0.08908180  0.42882201  0.05728252  1
  N  N50  1  0.88646538  0.53819700  0.85158121  1
  N  N51  1  0.80761623  0.40404562  0.66014165  1
  N  N52  1  0.54149709  0.55236506  0.38106474  1
  N  N53  1  0.40098398  0.48794943  0.15250330  1
  N  N54  1  0.21410595  0.54518105  0.83761196  1
  N  N55  1  0.11148088  0.42829344  0.60855510  1
  N  N56  1  0.92735073  0.54233107  0.35635678  1
  N  N57  1  0.75694385  0.44103768  0.09894792  1
  N  N58  1  0.55154980  0.53079468  0.88207845  1
  N  N59  1  0.43619456  0.40716160  0.65322368  1
  N  N60  1  0.22572808  0.87231233  0.34478517  1
  N  N61  1  0.09683214  0.79300161  0.06655219  1
  N  N62  1  0.89333750  0.87541577  0.86043043  1
  N  N63  1  0.78520261  0.74817719  0.61049619  1
  N  N64  1  0.57401525  0.86784492  0.36814427  1
  N  N65  1  0.41606947  0.77305596  0.06923523  1
  N  N66  1  0.24605531  0.83784987  0.82529390  1
  N  N67  1  0.12700452  0.75559102  0.60587062  1
  N  N68  1  0.91549616  0.84229490  0.41078660  1
  N  N69  1  0.79847972  0.75349771  0.05363077  1
  N  N70  1  0.55446045  0.86838439  0.82844177  1
  N  N71  1  0.43457208  0.79005530  0.58465385  1
