# generated using pymatgen
data_Gd2Al7N9
_symmetry_space_group_name_H-M   'P 1'
_cell_length_a   9.95122686
_cell_length_b   9.86822540
_cell_length_c   10.52535487
_cell_angle_alpha   89.16043465
_cell_angle_beta   88.79735217
_cell_angle_gamma   59.96892414
_symmetry_Int_Tables_number   1
_chemical_formula_structural   Gd2Al7N9
_chemical_formula_sum   'Gd8 Al28 N36'
_cell_volume   894.63589389
_cell_formula_units_Z   4
loop_
 _symmetry_equiv_pos_site_id
 _symmetry_equiv_pos_as_xyz
  1  'x, y, z'
loop_
 _atom_site_type_symbol
 _atom_site_label
 _atom_site_symmetry_multiplicity
 _atom_site_fract_x
 _atom_site_fract_y
 _atom_site_fract_z
 _atom_site_occupancy
  Al  Al0  1  0.12618368  0.08655572  0.38836692  1
  Al  Al1  1  0.77079548  0.09331424  0.78458831  1
  Al  Al2  1  0.89485726  0.20854341  0.55924058  1
  Al  Al3  1  0.44460726  0.10122400  0.32292357  1
  Al  Al4  1  0.23114361  0.21241669  0.55560640  1
  Al  Al5  1  0.87373231  0.20296621  0.02538493  1
  Al  Al6  1  0.44828185  0.09074814  0.78880344  1
  Al  Al7  1  0.54579212  0.20875714  0.55808844  1
  Al  Al8  1  0.10740034  0.43534194  0.32049285  1
  Al  Al9  1  0.77930781  0.42916572  0.80907871  1
  Al  Al10  1  0.90065920  0.53990839  0.56386369  1
  Al  Al11  1  0.44129365  0.43825573  0.31060708  1
  Al  Al12  1  0.55146742  0.52812817  0.03064657  1
  Al  Al13  1  0.11824023  0.43231916  0.79416625  1
  Al  Al14  1  0.21828341  0.53902833  0.54543846  1
  Al  Al15  1  0.88845176  0.54164644  0.04166160  1
  Al  Al16  1  0.43229387  0.42231272  0.78807768  1
  Al  Al17  1  0.11492940  0.76508390  0.31203189  1
  Al  Al18  1  0.20356315  0.87271233  0.07806429  1
  Al  Al19  1  0.77622338  0.76374636  0.80022326  1
  Al  Al20  1  0.89438627  0.86450691  0.55375237  1
  Al  Al21  1  0.43622832  0.77230695  0.38106119  1
  Al  Al22  1  0.10896393  0.75071255  0.78752827  1
  Al  Al23  1  0.22691168  0.86564033  0.60526918  1
  Al  Al24  1  0.80030184  0.75503542  0.31107284  1
  Al  Al25  1  0.89433887  0.87202606  0.04768228  1
  Al  Al26  1  0.43643578  0.75822275  0.85169396  1
  Al  Al27  1  0.56534833  0.87784446  0.55240804  1
  Gd  Gd28  1  0.20998026  0.20116718  0.07539597  1
  Gd  Gd29  1  0.55621065  0.20056494  0.03915275  1
  Gd  Gd30  1  0.10538702  0.10302034  0.80968465  1
  Gd  Gd31  1  0.78254988  0.09482506  0.31283169  1
  Gd  Gd32  1  0.21382376  0.54314050  0.06708099  1
  Gd  Gd33  1  0.78637051  0.44064064  0.28811239  1
  Gd  Gd34  1  0.56458091  0.53377448  0.58069682  1
  Gd  Gd35  1  0.55734334  0.85037611  0.08307302  1
  N  N36  1  0.22603233  0.21040928  0.37110050  1
  N  N37  1  0.08830315  0.07655203  0.03499989  1
  N  N38  1  0.84691554  0.21825730  0.84861747  1
  N  N39  1  0.78048509  0.09358572  0.59842582  1
  N  N40  1  0.52915629  0.22627367  0.37666765  1
  N  N41  1  0.44730400  0.08975780  0.14728276  1
  N  N42  1  0.24304126  0.22361332  0.85609157  1
  N  N43  1  0.11994978  0.09111709  0.57931104  1
  N  N44  1  0.91192931  0.20809282  0.37929883  1
  N  N45  1  0.79583137  0.08237790  0.09817292  1
  N  N46  1  0.55505383  0.19998573  0.82217588  1
  N  N47  1  0.44604747  0.09112542  0.60523884  1
  N  N48  1  0.22267192  0.54257017  0.35656952  1
  N  N49  1  0.06582966  0.44028523  0.14378908  1
  N  N50  1  0.89657954  0.54053467  0.85736664  1
  N  N51  1  0.82053505  0.41162765  0.62734927  1
  N  N52  1  0.53874507  0.55252628  0.36179349  1
  N  N53  1  0.46305530  0.43248947  0.12804881  1
  N  N54  1  0.21955442  0.54136912  0.84785360  1
  N  N55  1  0.11602069  0.42866166  0.61007992  1
  N  N56  1  0.90225832  0.55371457  0.38580389  1
  N  N57  1  0.76925768  0.43457450  0.06567106  1
  N  N58  1  0.55328778  0.52994660  0.83513553  1
  N  N59  1  0.42120659  0.41975164  0.61026886  1
  N  N60  1  0.22402173  0.87656793  0.34111317  1
  N  N61  1  0.08863420  0.78567757  0.12879276  1
  N  N62  1  0.89045208  0.87022190  0.85532794  1
  N  N63  1  0.77866885  0.76338029  0.61680239  1
  N  N64  1  0.57260281  0.87088174  0.36117240  1
  N  N65  1  0.40855339  0.74447146  0.03383703  1
  N  N66  1  0.23521271  0.84359305  0.79067210  1
  N  N67  1  0.10789171  0.75483888  0.60324315  1
  N  N68  1  0.90841353  0.84843882  0.37548996  1
  N  N69  1  0.81074742  0.74571616  0.11958825  1
  N  N70  1  0.55528101  0.87232057  0.85143589  1
  N  N71  1  0.43509697  0.79164031  0.56351345  1
