# generated using pymatgen
data_Gd2Al7N9
_symmetry_space_group_name_H-M   'P 1'
_cell_length_a   9.75889353
_cell_length_b   9.81426655
_cell_length_c   11.02376328
_cell_angle_alpha   89.53726836
_cell_angle_beta   89.32484117
_cell_angle_gamma   60.05880036
_symmetry_Int_Tables_number   1
_chemical_formula_structural   Gd2Al7N9
_chemical_formula_sum   'Gd8 Al28 N36'
_cell_volume   914.83845747
_cell_formula_units_Z   4
loop_
 _symmetry_equiv_pos_site_id
 _symmetry_equiv_pos_as_xyz
  1  'x, y, z'
loop_
 _atom_site_type_symbol
 _atom_site_label
 _atom_site_symmetry_multiplicity
 _atom_site_fract_x
 _atom_site_fract_y
 _atom_site_fract_z
 _atom_site_occupancy
  Al  Al0  1  0.12774178  0.08750846  0.41480416  1
  Al  Al1  1  0.77080318  0.09605792  0.80271596  1
  Al  Al2  1  0.89673032  0.20340128  0.57930812  1
  Al  Al3  1  0.44255521  0.09698641  0.41225401  1
  Al  Al4  1  0.23338968  0.20719021  0.63966677  1
  Al  Al5  1  0.87424540  0.20718006  0.05126735  1
  Al  Al6  1  0.44624457  0.08681383  0.87053789  1
  Al  Al7  1  0.55452750  0.21003173  0.57607470  1
  Al  Al8  1  0.12579019  0.42687533  0.41991622  1
  Al  Al9  1  0.77585478  0.42130587  0.81683707  1
  Al  Al10  1  0.89684116  0.53203305  0.59130361  1
  Al  Al11  1  0.43787470  0.44171420  0.32761704  1
  Al  Al12  1  0.54380131  0.54071988  0.05885391  1
  Al  Al13  1  0.11898148  0.42269735  0.87207882  1
  Al  Al14  1  0.21350118  0.54168803  0.64710716  1
  Al  Al15  1  0.88181164  0.52904350  0.02905074  1
  Al  Al16  1  0.44421582  0.41752774  0.80864812  1
  Al  Al17  1  0.12710566  0.75247928  0.41110284  1
  Al  Al18  1  0.21162038  0.87499931  0.12736982  1
  Al  Al19  1  0.77824079  0.75951450  0.86122500  1
  Al  Al20  1  0.89384246  0.87396178  0.58492539  1
  Al  Al21  1  0.43383778  0.78311756  0.39691857  1
  Al  Al22  1  0.12317827  0.75219122  0.87280101  1
  Al  Al23  1  0.22909376  0.86909486  0.63905741  1
  Al  Al24  1  0.77483929  0.76326782  0.42118126  1
  Al  Al25  1  0.88701181  0.88589705  0.03160357  1
  Al  Al26  1  0.44438762  0.75340700  0.87994982  1
  Al  Al27  1  0.55212207  0.88020146  0.64261647  1
  Gd  Gd28  1  0.21232350  0.20227777  0.15248242  1
  Gd  Gd29  1  0.54956503  0.22588412  0.05372841  1
  Gd  Gd30  1  0.11919417  0.08444390  0.86808447  1
  Gd  Gd31  1  0.78918408  0.08294249  0.32239058  1
  Gd  Gd32  1  0.16992189  0.57115573  0.14800366  1
  Gd  Gd33  1  0.78538138  0.43526266  0.31132401  1
  Gd  Gd34  1  0.55620715  0.54005434  0.58398033  1
  Gd  Gd35  1  0.57260071  0.85374442  0.13900017  1
  N  N36  1  0.22507207  0.20769141  0.36768800  1
  N  N37  1  0.09260585  0.08650047  0.07808713  1
  N  N38  1  0.85372681  0.21485977  0.87674726  1
  N  N39  1  0.78015078  0.09683210  0.62669204  1
  N  N40  1  0.53511523  0.22995441  0.39550469  1
  N  N41  1  0.43671027  0.08132112  0.04724518  1
  N  N42  1  0.24000200  0.21675408  0.81061182  1
  N  N43  1  0.12243024  0.08883550  0.59897547  1
  N  N44  1  0.90772229  0.20287990  0.40582105  1
  N  N45  1  0.79519421  0.07732767  0.11361747  1
  N  N46  1  0.55539214  0.19986658  0.84945574  1
  N  N47  1  0.45090589  0.09102188  0.58676182  1
  N  N48  1  0.21632989  0.54380877  0.35644042  1
  N  N49  1  0.09986497  0.41909937  0.04594277  1
  N  N50  1  0.88532560  0.53229979  0.85449333  1
  N  N51  1  0.80973921  0.40770076  0.64464514  1
  N  N52  1  0.53387922  0.56006266  0.37915634  1
  N  N53  1  0.43873434  0.45696853  0.15135520  1
  N  N54  1  0.21425049  0.54126280  0.82524100  1
  N  N55  1  0.12065421  0.42524067  0.59317215  1
  N  N56  1  0.89974847  0.54567796  0.40782232  1
  N  N57  1  0.76943452  0.43254236  0.09606136  1
  N  N58  1  0.55346089  0.52572887  0.87036854  1
  N  N59  1  0.43433059  0.41249627  0.63898173  1
  N  N60  1  0.21941328  0.87847112  0.33085382  1
  N  N61  1  0.10602006  0.78709245  0.04633950  1
  N  N62  1  0.88860880  0.87846177  0.85206956  1
  N  N63  1  0.77445869  0.76223520  0.60214162  1
  N  N64  1  0.56347509  0.87904366  0.35311098  1
  N  N65  1  0.42308297  0.76171710  0.05685587  1
  N  N66  1  0.24640366  0.83344770  0.80734024  1
  N  N67  1  0.12608031  0.75597546  0.58764970  1
  N  N68  1  0.90373933  0.85231867  0.40773100  1
  N  N69  1  0.80604078  0.74645885  0.04635904  1
  N  N70  1  0.55307646  0.86575291  0.82032899  1
  N  N71  1  0.42933927  0.80156182  0.57102382  1
