# generated using pymatgen
data_Gd2Al7N9
_symmetry_space_group_name_H-M   'P 1'
_cell_length_a   9.88786921
_cell_length_b   9.86907474
_cell_length_c   10.60872008
_cell_angle_alpha   90.22408455
_cell_angle_beta   89.25343602
_cell_angle_gamma   60.27541872
_symmetry_Int_Tables_number   1
_chemical_formula_structural   Gd2Al7N9
_chemical_formula_sum   'Gd8 Al28 N36'
_cell_volume   898.88378312
_cell_formula_units_Z   4
loop_
 _symmetry_equiv_pos_site_id
 _symmetry_equiv_pos_as_xyz
  1  'x, y, z'
loop_
 _atom_site_type_symbol
 _atom_site_label
 _atom_site_symmetry_multiplicity
 _atom_site_fract_x
 _atom_site_fract_y
 _atom_site_fract_z
 _atom_site_occupancy
  Al  Al0  1  0.12971240  0.08044780  0.42899552  1
  Al  Al1  1  0.77895446  0.09643026  0.82728474  1
  Al  Al2  1  0.90058021  0.20513467  0.59792046  1
  Al  Al3  1  0.44635109  0.09577593  0.41791909  1
  Al  Al4  1  0.23387014  0.20851811  0.64139097  1
  Al  Al5  1  0.88061242  0.20376323  0.07341090  1
  Al  Al6  1  0.44455059  0.09112875  0.88825641  1
  Al  Al7  1  0.54948970  0.20018087  0.66242994  1
  Al  Al8  1  0.11624434  0.42869580  0.43085698  1
  Al  Al9  1  0.77282956  0.42380138  0.84026071  1
  Al  Al10  1  0.89703408  0.53924692  0.65789948  1
  Al  Al11  1  0.43519432  0.43773313  0.33465995  1
  Al  Al12  1  0.54303677  0.54428294  0.06260035  1
  Al  Al13  1  0.12155455  0.42602967  0.88219481  1
  Al  Al14  1  0.21141044  0.54600348  0.65731409  1
  Al  Al15  1  0.88036296  0.53997219  0.04738208  1
  Al  Al16  1  0.43327507  0.43178747  0.83709858  1
  Al  Al17  1  0.12134970  0.75049118  0.40894899  1
  Al  Al18  1  0.21125858  0.87861464  0.14727935  1
  Al  Al19  1  0.77799106  0.77636245  0.88599996  1
  Al  Al20  1  0.89778424  0.86469034  0.65220710  1
  Al  Al21  1  0.43798792  0.77318744  0.40977886  1
  Al  Al22  1  0.10881131  0.76654089  0.89769796  1
  Al  Al23  1  0.22599012  0.86787286  0.65135868  1
  Al  Al24  1  0.79551534  0.74453308  0.41256099  1
  Al  Al25  1  0.89770267  0.87411036  0.14951919  1
  Al  Al26  1  0.43954297  0.76292418  0.88915560  1
  Al  Al27  1  0.55776274  0.87678828  0.64730618  1
  Gd  Gd28  1  0.20768743  0.21085156  0.17225325  1
  Gd  Gd29  1  0.55766896  0.20866834  0.10964625  1
  Gd  Gd30  1  0.12110032  0.09380377  0.87724243  1
  Gd  Gd31  1  0.77686659  0.08207346  0.38026698  1
  Gd  Gd32  1  0.17560296  0.56384562  0.15449406  1
  Gd  Gd33  1  0.78378133  0.42390015  0.32027334  1
  Gd  Gd34  1  0.55733867  0.53506701  0.60684781  1
  Gd  Gd35  1  0.56601282  0.85376680  0.15023862  1
  N  N36  1  0.22645897  0.20101682  0.39709540  1
  N  N37  1  0.09684052  0.08896164  0.09488069  1
  N  N38  1  0.85725815  0.21569250  0.89436048  1
  N  N39  1  0.77814482  0.09798442  0.63746334  1
  N  N40  1  0.51913271  0.21823323  0.33717172  1
  N  N41  1  0.42842033  0.08341663  0.06359988  1
  N  N42  1  0.24624895  0.22175400  0.81933526  1
  N  N43  1  0.12252178  0.08681719  0.61997327  1
  N  N44  1  0.91499917  0.19621659  0.42116725  1
  N  N45  1  0.80476075  0.09088774  0.15902929  1
  N  N46  1  0.55851833  0.19948534  0.85408413  1
  N  N47  1  0.45818501  0.09050109  0.59838272  1
  N  N48  1  0.22297892  0.53430395  0.37145153  1
  N  N49  1  0.09082591  0.41966841  0.05547249  1
  N  N50  1  0.88453794  0.54693395  0.85311065  1
  N  N51  1  0.80971585  0.40821653  0.66172417  1
  N  N52  1  0.53284080  0.55032774  0.39259041  1
  N  N53  1  0.43326338  0.46164503  0.13908277  1
  N  N54  1  0.20877243  0.55308338  0.84627967  1
  N  N55  1  0.11023844  0.43413449  0.61092028  1
  N  N56  1  0.91204214  0.53507765  0.37649995  1
  N  N57  1  0.76534051  0.44174607  0.09722418  1
  N  N58  1  0.55165125  0.53603134  0.87277386  1
  N  N59  1  0.42737448  0.41437957  0.65669677  1
  N  N60  1  0.22573854  0.87248593  0.34333432  1
  N  N61  1  0.09429936  0.79663828  0.07443433  1
  N  N62  1  0.89510446  0.87300298  0.83211707  1
  N  N63  1  0.78401945  0.75998612  0.60119932  1
  N  N64  1  0.56737077  0.86911699  0.36824080  1
  N  N65  1  0.41868278  0.76341938  0.06971415  1
  N  N66  1  0.23841174  0.83924459  0.82595494  1
  N  N67  1  0.11249993  0.76321082  0.59209197  1
  N  N68  1  0.92007821  0.82457543  0.33207970  1
  N  N69  1  0.80794524  0.75837926  0.06560415  1
  N  N70  1  0.55779269  0.86938303  0.83362482  1
  N  N71  1  0.42954427  0.79682547  0.58949434  1
