# generated using pymatgen
data_Gd2Al7N9
_symmetry_space_group_name_H-M   'P 1'
_cell_length_a   9.73891862
_cell_length_b   9.78195312
_cell_length_c   11.22298351
_cell_angle_alpha   90.15098367
_cell_angle_beta   89.71135606
_cell_angle_gamma   59.86619592
_symmetry_Int_Tables_number   1
_chemical_formula_structural   Gd2Al7N9
_chemical_formula_sum   'Gd8 Al28 N36'
_cell_volume   924.64468530
_cell_formula_units_Z   4
loop_
 _symmetry_equiv_pos_site_id
 _symmetry_equiv_pos_as_xyz
  1  'x, y, z'
loop_
 _atom_site_type_symbol
 _atom_site_label
 _atom_site_symmetry_multiplicity
 _atom_site_fract_x
 _atom_site_fract_y
 _atom_site_fract_z
 _atom_site_occupancy
  Al  Al0  1  0.12829999  0.08413062  0.41716217  1
  Al  Al1  1  0.76956347  0.09903654  0.79538117  1
  Al  Al2  1  0.89445342  0.20199087  0.57323229  1
  Al  Al3  1  0.44410342  0.09881526  0.33994707  1
  Al  Al4  1  0.22745346  0.21089888  0.62476048  1
  Al  Al5  1  0.86942914  0.21056108  0.03484948  1
  Al  Al6  1  0.45383032  0.09919363  0.78734976  1
  Al  Al7  1  0.55206505  0.20258736  0.56164552  1
  Al  Al8  1  0.12798005  0.42687588  0.41417201  1
  Al  Al9  1  0.77667174  0.42590381  0.80674266  1
  Al  Al10  1  0.89772097  0.53054732  0.58022022  1
  Al  Al11  1  0.44186066  0.43586997  0.31799342  1
  Al  Al12  1  0.55017853  0.53452992  0.04338421  1
  Al  Al13  1  0.11950268  0.42861518  0.86566652  1
  Al  Al14  1  0.21450612  0.54017842  0.64242302  1
  Al  Al15  1  0.88425050  0.53475792  0.02105084  1
  Al  Al16  1  0.44660578  0.41800634  0.80183670  1
  Al  Al17  1  0.13022418  0.75059904  0.40695189  1
  Al  Al18  1  0.21348552  0.87714191  0.08781312  1
  Al  Al19  1  0.77344947  0.76492253  0.85771588  1
  Al  Al20  1  0.89439581  0.87340784  0.57608118  1
  Al  Al21  1  0.43317623  0.78051958  0.39837420  1
  Al  Al22  1  0.11923881  0.75631794  0.86182490  1
  Al  Al23  1  0.22999593  0.86532466  0.63341377  1
  Al  Al24  1  0.77766692  0.75987618  0.41544508  1
  Al  Al25  1  0.88324576  0.89108291  0.02152193  1
  Al  Al26  1  0.44627507  0.75601928  0.86754307  1
  Al  Al27  1  0.55978825  0.86721620  0.63132282  1
  Gd  Gd28  1  0.17296621  0.22171496  0.16359306  1
  Gd  Gd29  1  0.53210931  0.21215073  0.05249433  1
  Gd  Gd30  1  0.11759122  0.09501359  0.85008188  1
  Gd  Gd31  1  0.79508919  0.07806003  0.30988032  1
  Gd  Gd32  1  0.17956444  0.57164637  0.13954196  1
  Gd  Gd33  1  0.78183258  0.43434612  0.30380539  1
  Gd  Gd34  1  0.55931162  0.52840083  0.57338091  1
  Gd  Gd35  1  0.57345148  0.83894728  0.14664181  1
  N  N36  1  0.22196338  0.20642919  0.37422037  1
  N  N37  1  0.09410416  0.08808683  0.05602688  1
  N  N38  1  0.85219321  0.21984459  0.86465682  1
  N  N39  1  0.77862767  0.09634192  0.62058054  1
  N  N40  1  0.53866580  0.22213143  0.38771243  1
  N  N41  1  0.43347391  0.09683745  0.16515890  1
  N  N42  1  0.23476076  0.22832192  0.79725992  1
  N  N43  1  0.12067869  0.08753498  0.59574520  1
  N  N44  1  0.90529073  0.20268199  0.40116485  1
  N  N45  1  0.78911375  0.08670995  0.10046843  1
  N  N46  1  0.55463052  0.20116696  0.84862079  1
  N  N47  1  0.45686625  0.08805503  0.61501133  1
  N  N48  1  0.21910623  0.54060648  0.34562278  1
  N  N49  1  0.10680142  0.42202756  0.03750808  1
  N  N50  1  0.88532984  0.53630032  0.85043948  1
  N  N51  1  0.81204563  0.40823746  0.63795605  1
  N  N52  1  0.53324801  0.55608766  0.37262750  1
  N  N53  1  0.45201282  0.44737564  0.13982663  1
  N  N54  1  0.21545444  0.54422225  0.81612419  1
  N  N55  1  0.12024385  0.42834540  0.58319104  1
  N  N56  1  0.90122713  0.54102162  0.39877475  1
  N  N57  1  0.77546470  0.43541341  0.08811480  1
  N  N58  1  0.55550547  0.52761359  0.86015128  1
  N  N59  1  0.43617033  0.40528062  0.63385386  1
  N  N60  1  0.21884365  0.87804316  0.34453740  1
  N  N61  1  0.10335196  0.78505463  0.03293558  1
  N  N62  1  0.88529900  0.88189662  0.84526349  1
  N  N63  1  0.77920388  0.75840042  0.59155732  1
  N  N64  1  0.56790228  0.86595996  0.35473638  1
  N  N65  1  0.42631955  0.76016151  0.04134535  1
  N  N66  1  0.24381278  0.83782613  0.80047987  1
  N  N67  1  0.12645724  0.75273265  0.58182063  1
  N  N68  1  0.90478649  0.85135689  0.40109371  1
  N  N69  1  0.79639982  0.75744783  0.03878358  1
  N  N70  1  0.55368901  0.86737326  0.80998336  1
  N  N71  1  0.43341689  0.79066137  0.56962740  1
