# generated using pymatgen
data_Gd2Al7N9
_symmetry_space_group_name_H-M   'P 1'
_cell_length_a   9.72675225
_cell_length_b   9.79189314
_cell_length_c   11.00351786
_cell_angle_alpha   89.47560104
_cell_angle_beta   88.76959332
_cell_angle_gamma   60.05809412
_symmetry_Int_Tables_number   1
_chemical_formula_structural   Gd2Al7N9
_chemical_formula_sum   'Gd8 Al28 N36'
_cell_volume   907.92460034
_cell_formula_units_Z   4
loop_
 _symmetry_equiv_pos_site_id
 _symmetry_equiv_pos_as_xyz
  1  'x, y, z'
loop_
 _atom_site_type_symbol
 _atom_site_label
 _atom_site_symmetry_multiplicity
 _atom_site_fract_x
 _atom_site_fract_y
 _atom_site_fract_z
 _atom_site_occupancy
  Al  Al0  1  0.13135321  0.08785220  0.43046678  1
  Al  Al1  1  0.77227414  0.09457379  0.81695762  1
  Al  Al2  1  0.90061895  0.20087134  0.59548386  1
  Al  Al3  1  0.44834948  0.09608392  0.42580324  1
  Al  Al4  1  0.23375131  0.20618009  0.65140415  1
  Al  Al5  1  0.86901167  0.20615761  0.06591306  1
  Al  Al6  1  0.44650314  0.08763083  0.88179200  1
  Al  Al7  1  0.55755633  0.20752573  0.59127092  1
  Al  Al8  1  0.12077017  0.43141591  0.43421706  1
  Al  Al9  1  0.76744715  0.41659768  0.83626367  1
  Al  Al10  1  0.89944482  0.53280883  0.66841180  1
  Al  Al11  1  0.43925804  0.44328904  0.33889696  1
  Al  Al12  1  0.53079858  0.54542532  0.07593648  1
  Al  Al13  1  0.12653329  0.42115060  0.88744030  1
  Al  Al14  1  0.21470742  0.54216091  0.65670481  1
  Al  Al15  1  0.87713371  0.52991010  0.03880973  1
  Al  Al16  1  0.44273649  0.41958874  0.82065190  1
  Al  Al17  1  0.13365218  0.75353285  0.42969796  1
  Al  Al18  1  0.20838503  0.87374892  0.14725717  1
  Al  Al19  1  0.77385499  0.76729739  0.87825164  1
  Al  Al20  1  0.89564859  0.87107813  0.59763151  1
  Al  Al21  1  0.43933713  0.78265040  0.40950173  1
  Al  Al22  1  0.12399065  0.75078857  0.89132575  1
  Al  Al23  1  0.23161705  0.86709672  0.65625056  1
  Al  Al24  1  0.79071010  0.74951883  0.42684366  1
  Al  Al25  1  0.88228315  0.88888079  0.04642622  1
  Al  Al26  1  0.44390140  0.75382912  0.89502824  1
  Al  Al27  1  0.55568354  0.87483159  0.65284948  1
  Gd  Gd28  1  0.20642415  0.20746210  0.16942608  1
  Gd  Gd29  1  0.53880547  0.23273588  0.06849097  1
  Gd  Gd30  1  0.12338125  0.08432062  0.88933452  1
  Gd  Gd31  1  0.79437442  0.08324890  0.33779689  1
  Gd  Gd32  1  0.13547786  0.58218130  0.18156304  1
  Gd  Gd33  1  0.79513804  0.43144833  0.31413045  1
  Gd  Gd34  1  0.56515753  0.53099474  0.58682302  1
  Gd  Gd35  1  0.56887711  0.85652926  0.15444588  1
  N  N36  1  0.23044646  0.20709346  0.38438694  1
  N  N37  1  0.08596650  0.08839193  0.10055897  1
  N  N38  1  0.85725162  0.20992339  0.89229470  1
  N  N39  1  0.78238111  0.09369025  0.64136385  1
  N  N40  1  0.54063161  0.22983871  0.40971370  1
  N  N41  1  0.42943352  0.08378227  0.05935880  1
  N  N42  1  0.24056041  0.21769426  0.82223525  1
  N  N43  1  0.12635035  0.08610040  0.61389769  1
  N  N44  1  0.91091240  0.20610142  0.42257461  1
  N  N45  1  0.78503955  0.08061814  0.12823879  1
  N  N46  1  0.55506958  0.20152312  0.86265095  1
  N  N47  1  0.45427698  0.08786329  0.60088009  1
  N  N48  1  0.22569433  0.54285070  0.38423481  1
  N  N49  1  0.09384099  0.42162569  0.05654502  1
  N  N50  1  0.88603501  0.53654021  0.85409992  1
  N  N51  1  0.80880595  0.40314486  0.66567224  1
  N  N52  1  0.54223683  0.56123104  0.38254686  1
  N  N53  1  0.41865459  0.46540167  0.16528092  1
  N  N54  1  0.21389072  0.54303504  0.83617715  1
  N  N55  1  0.11099262  0.42965968  0.60818185  1
  N  N56  1  0.92341784  0.55216846  0.35747174  1
  N  N57  1  0.76163740  0.43382362  0.10135846  1
  N  N58  1  0.54831227  0.52646403  0.88769851  1
  N  N59  1  0.43612721  0.41225952  0.65122852  1
  N  N60  1  0.22323862  0.87900147  0.34593137  1
  N  N61  1  0.10112336  0.78459252  0.06739954  1
  N  N62  1  0.88901551  0.87918252  0.86775806  1
  N  N63  1  0.78158279  0.74954337  0.61157795  1
  N  N64  1  0.57013458  0.87754004  0.36807328  1
  N  N65  1  0.41830560  0.76609571  0.07198447  1
  N  N66  1  0.24526717  0.83537911  0.82525152  1
  N  N67  1  0.12597254  0.75824873  0.60509908  1
  N  N68  1  0.90964480  0.85174755  0.42207744  1
  N  N69  1  0.80082913  0.74672196  0.05565570  1
  N  N70  1  0.55369283  0.86558292  0.83209398  1
  N  N71  1  0.43363570  0.79342641  0.58550020  1
