# generated using pymatgen
data_Gd2Al7N9
_symmetry_space_group_name_H-M   'P 1'
_cell_length_a   9.95867313
_cell_length_b   9.87877286
_cell_length_c   10.49578053
_cell_angle_alpha   89.16918716
_cell_angle_beta   88.75290764
_cell_angle_gamma   60.01157786
_symmetry_Int_Tables_number   1
_chemical_formula_structural   Gd2Al7N9
_chemical_formula_sum   'Gd8 Al28 N36'
_cell_volume   894.11591586
_cell_formula_units_Z   4
loop_
 _symmetry_equiv_pos_site_id
 _symmetry_equiv_pos_as_xyz
  1  'x, y, z'
loop_
 _atom_site_type_symbol
 _atom_site_label
 _atom_site_symmetry_multiplicity
 _atom_site_fract_x
 _atom_site_fract_y
 _atom_site_fract_z
 _atom_site_occupancy
  Al  Al0  1  0.12460139  0.08909452  0.38885342  1
  Al  Al1  1  0.77086009  0.09304778  0.78477002  1
  Al  Al2  1  0.89390517  0.20958241  0.55954230  1
  Al  Al3  1  0.44459188  0.10120274  0.32324471  1
  Al  Al4  1  0.23116487  0.21316754  0.55605807  1
  Al  Al5  1  0.87391085  0.20302926  0.02532337  1
  Al  Al6  1  0.44818761  0.09092998  0.78888802  1
  Al  Al7  1  0.54565599  0.20885415  0.55833645  1
  Al  Al8  1  0.10707322  0.43570533  0.32046913  1
  Al  Al9  1  0.77963583  0.42877617  0.80953614  1
  Al  Al10  1  0.90056727  0.54008201  0.56408238  1
  Al  Al11  1  0.44129782  0.43843762  0.31076953  1
  Al  Al12  1  0.55207922  0.52787337  0.03072483  1
  Al  Al13  1  0.11832166  0.43205091  0.79439042  1
  Al  Al14  1  0.21825150  0.53919498  0.54536865  1
  Al  Al15  1  0.88878342  0.54144523  0.04166087  1
  Al  Al16  1  0.43189155  0.42196335  0.78843424  1
  Al  Al17  1  0.11610751  0.76665169  0.31072631  1
  Al  Al18  1  0.20154575  0.86841199  0.04403895  1
  Al  Al19  1  0.77665595  0.76381495  0.80040248  1
  Al  Al20  1  0.89467538  0.86424409  0.55378701  1
  Al  Al21  1  0.43791324  0.77134738  0.38374393  1
  Al  Al22  1  0.10876743  0.75049673  0.78839885  1
  Al  Al23  1  0.22255794  0.86739854  0.58712001  1
  Al  Al24  1  0.80075735  0.75469089  0.31127642  1
  Al  Al25  1  0.89468869  0.87199209  0.04837453  1
  Al  Al26  1  0.43982917  0.75670321  0.84963415  1
  Al  Al27  1  0.56552425  0.87773006  0.55440194  1
  Gd  Gd28  1  0.21006475  0.20045769  0.07549205  1
  Gd  Gd29  1  0.55640851  0.20041130  0.03954459  1
  Gd  Gd30  1  0.10497998  0.10382105  0.80728690  1
  Gd  Gd31  1  0.78255299  0.09477737  0.31328689  1
  Gd  Gd32  1  0.21404639  0.54243178  0.06835739  1
  Gd  Gd33  1  0.78591557  0.44112009  0.28803092  1
  Gd  Gd34  1  0.56482017  0.53308243  0.58213200  1
  Gd  Gd35  1  0.55790726  0.85037436  0.08282226  1
  N  N36  1  0.22588218  0.21059525  0.37080633  1
  N  N37  1  0.08722754  0.07867743  0.03534251  1
  N  N38  1  0.84676109  0.21814634  0.84809971  1
  N  N39  1  0.78068084  0.09340275  0.59802333  1
  N  N40  1  0.52902294  0.22642010  0.37654441  1
  N  N41  1  0.44752895  0.08944000  0.14738171  1
  N  N42  1  0.24313860  0.22339882  0.85543057  1
  N  N43  1  0.11866478  0.09388001  0.58025315  1
  N  N44  1  0.91133993  0.20887058  0.37900875  1
  N  N45  1  0.79590978  0.08229593  0.09835873  1
  N  N46  1  0.55511328  0.19989242  0.82194862  1
  N  N47  1  0.44591014  0.09139409  0.60496745  1
  N  N48  1  0.22234127  0.54320313  0.35566649  1
  N  N49  1  0.06574898  0.43983834  0.14369277  1
  N  N50  1  0.89653368  0.54066903  0.85713562  1
  N  N51  1  0.82043036  0.41206023  0.62729118  1
  N  N52  1  0.53838922  0.55305463  0.36239579  1
  N  N53  1  0.46352842  0.43224339  0.12800385  1
  N  N54  1  0.21943950  0.54063514  0.84841842  1
  N  N55  1  0.11585021  0.42920175  0.60975576  1
  N  N56  1  0.90213850  0.55375077  0.38576934  1
  N  N57  1  0.76954925  0.43436665  0.06523683  1
  N  N58  1  0.55368554  0.52905238  0.83430089  1
  N  N59  1  0.42078263  0.41964031  0.61014497  1
  N  N60  1  0.22107390  0.87346552  0.36594272  1
  N  N61  1  0.09238705  0.78768640  0.12582295  1
  N  N62  1  0.88990770  0.87027496  0.85559165  1
  N  N63  1  0.77921558  0.76343979  0.61668473  1
  N  N64  1  0.57180551  0.87056268  0.36228624  1
  N  N65  1  0.41284014  0.74295829  0.03450742  1
  N  N66  1  0.23075562  0.84457500  0.80728018  1
  N  N67  1  0.10811046  0.75477331  0.60525832  1
  N  N68  1  0.90928734  0.84798489  0.37477471  1
  N  N69  1  0.81168278  0.74539389  0.12004560  1
  N  N70  1  0.55581787  0.87257765  0.85060572  1
  N  N71  1  0.43631721  0.79071083  0.56986513  1
