# generated using pymatgen
data_Gd2Al7N9
_symmetry_space_group_name_H-M   'P 1'
_cell_length_a   9.73588980
_cell_length_b   9.79951507
_cell_length_c   11.08659959
_cell_angle_alpha   89.92918811
_cell_angle_beta   89.67710215
_cell_angle_gamma   60.00755635
_symmetry_Int_Tables_number   1
_chemical_formula_structural   Gd2Al7N9
_chemical_formula_sum   'Gd8 Al28 N36'
_cell_volume   916.08267938
_cell_formula_units_Z   4
loop_
 _symmetry_equiv_pos_site_id
 _symmetry_equiv_pos_as_xyz
  1  'x, y, z'
loop_
 _atom_site_type_symbol
 _atom_site_label
 _atom_site_symmetry_multiplicity
 _atom_site_fract_x
 _atom_site_fract_y
 _atom_site_fract_z
 _atom_site_occupancy
  Al  Al0  1  0.12594956  0.08475705  0.40752693  1
  Al  Al1  1  0.77880597  0.09504572  0.79536056  1
  Al  Al2  1  0.89705335  0.20182439  0.57058593  1
  Al  Al3  1  0.44344835  0.09426884  0.40980242  1
  Al  Al4  1  0.22551364  0.20930034  0.62739631  1
  Al  Al5  1  0.87030407  0.20933135  0.04414916  1
  Al  Al6  1  0.45121720  0.09170904  0.82378897  1
  Al  Al7  1  0.55667358  0.20949047  0.57091093  1
  Al  Al8  1  0.12580529  0.42698030  0.41320108  1
  Al  Al9  1  0.78118181  0.41943452  0.80813656  1
  Al  Al10  1  0.89681525  0.53150206  0.58230425  1
  Al  Al11  1  0.43840596  0.43798235  0.31958186  1
  Al  Al12  1  0.54469592  0.53878716  0.05043277  1
  Al  Al13  1  0.11881970  0.42629506  0.86369626  1
  Al  Al14  1  0.21330579  0.54304281  0.64075514  1
  Al  Al15  1  0.88190097  0.53123317  0.02062364  1
  Al  Al16  1  0.44634901  0.42106242  0.80032761  1
  Al  Al17  1  0.12743795  0.75066344  0.40304425  1
  Al  Al18  1  0.21053101  0.87676150  0.12388355  1
  Al  Al19  1  0.77755843  0.76154077  0.85563543  1
  Al  Al20  1  0.89450844  0.87375646  0.57547905  1
  Al  Al21  1  0.43324899  0.78071834  0.39063551  1
  Al  Al22  1  0.12253424  0.75587692  0.86660465  1
  Al  Al23  1  0.22763048  0.87049934  0.63347888  1
  Al  Al24  1  0.77615755  0.76084108  0.41305157  1
  Al  Al25  1  0.88438382  0.88842960  0.02397878  1
  Al  Al26  1  0.44594889  0.75311326  0.87231759  1
  Al  Al27  1  0.55602610  0.87245925  0.63127274  1
  Gd  Gd28  1  0.20322994  0.21147611  0.15551788  1
  Gd  Gd29  1  0.53892182  0.22212203  0.04206731  1
  Gd  Gd30  1  0.13244887  0.08358031  0.87637722  1
  Gd  Gd31  1  0.78542611  0.08197474  0.31170780  1
  Gd  Gd32  1  0.17259716  0.57193315  0.13803152  1
  Gd  Gd33  1  0.78429630  0.43296975  0.30183220  1
  Gd  Gd34  1  0.55824126  0.53643943  0.57395324  1
  Gd  Gd35  1  0.57037779  0.85186508  0.13621581  1
  N  N36  1  0.22565089  0.20507484  0.36935382  1
  N  N37  1  0.08729903  0.09019879  0.08178131  1
  N  N38  1  0.86497857  0.21185999  0.86897241  1
  N  N39  1  0.78241867  0.09563628  0.62022765  1
  N  N40  1  0.53473417  0.22783345  0.39309054  1
  N  N41  1  0.42657489  0.08194286  0.05816589  1
  N  N42  1  0.23657769  0.22213408  0.79707564  1
  N  N43  1  0.12209905  0.08701114  0.58748170  1
  N  N44  1  0.90477467  0.20092350  0.39727918  1
  N  N45  1  0.78732418  0.08226799  0.10291239  1
  N  N46  1  0.55976441  0.20087615  0.83748965  1
  N  N47  1  0.45260272  0.08968673  0.58870325  1
  N  N48  1  0.21595873  0.54173120  0.34637121  1
  N  N49  1  0.10160860  0.42016801  0.03583917  1
  N  N50  1  0.88558607  0.53479903  0.84657274  1
  N  N51  1  0.81189360  0.40626973  0.63674026  1
  N  N52  1  0.53351124  0.55777405  0.37088662  1
  N  N53  1  0.44287866  0.45198230  0.14356437  1
  N  N54  1  0.21588247  0.54380378  0.81806783  1
  N  N55  1  0.11984830  0.42796506  0.58472455  1
  N  N56  1  0.89960767  0.54287226  0.39892412  1
  N  N57  1  0.76975541  0.43501219  0.08769302  1
  N  N58  1  0.55735403  0.52531028  0.86188421  1
  N  N59  1  0.43445466  0.41311268  0.63225336  1
  N  N60  1  0.21973471  0.87570299  0.32326396  1
  N  N61  1  0.10413954  0.79066862  0.03947471  1
  N  N62  1  0.88883018  0.87896031  0.84528791  1
  N  N63  1  0.77661269  0.76044439  0.59187236  1
  N  N64  1  0.56269445  0.87714784  0.35110228  1
  N  N65  1  0.42096218  0.76106913  0.04807042  1
  N  N66  1  0.24519467  0.83786932  0.80102007  1
  N  N67  1  0.12642786  0.75565644  0.57931110  1
  N  N68  1  0.90340770  0.85196301  0.39895552  1
  N  N69  1  0.80220422  0.75014549  0.03775215  1
  N  N70  1  0.55397000  0.86570296  0.80849352  1
  N  N71  1  0.42872737  0.79815123  0.56390180  1
