# generated using pymatgen
data_Gd2Al7N9
_symmetry_space_group_name_H-M   'P 1'
_cell_length_a   9.93387219
_cell_length_b   9.92918943
_cell_length_c   10.49991545
_cell_angle_alpha   90.46616527
_cell_angle_beta   89.90098636
_cell_angle_gamma   59.83463507
_symmetry_Int_Tables_number   1
_chemical_formula_structural   Gd2Al7N9
_chemical_formula_sum   'Gd8 Al28 N36'
_cell_volume   895.36168096
_cell_formula_units_Z   4
loop_
 _symmetry_equiv_pos_site_id
 _symmetry_equiv_pos_as_xyz
  1  'x, y, z'
loop_
 _atom_site_type_symbol
 _atom_site_label
 _atom_site_symmetry_multiplicity
 _atom_site_fract_x
 _atom_site_fract_y
 _atom_site_fract_z
 _atom_site_occupancy
  Al  Al0  1  0.12627630  0.08199999  0.42638752  1
  Al  Al1  1  0.77650161  0.09715002  0.82186696  1
  Al  Al2  1  0.89527391  0.20672255  0.60596618  1
  Al  Al3  1  0.44258352  0.09173792  0.42008251  1
  Al  Al4  1  0.22657444  0.21226848  0.64115177  1
  Al  Al5  1  0.88480241  0.20562796  0.10399277  1
  Al  Al6  1  0.44465359  0.09657447  0.88280146  1
  Al  Al7  1  0.54270274  0.20416144  0.65585933  1
  Al  Al8  1  0.11173717  0.43132971  0.41612255  1
  Al  Al9  1  0.78346844  0.43027604  0.82385107  1
  Al  Al10  1  0.89483790  0.54595791  0.65081895  1
  Al  Al11  1  0.42393788  0.42514534  0.41965751  1
  Al  Al12  1  0.56680370  0.53590262  0.05892261  1
  Al  Al13  1  0.11045885  0.43414820  0.88756216  1
  Al  Al14  1  0.21114324  0.53932887  0.65356361  1
  Al  Al15  1  0.89525601  0.54205537  0.14008652  1
  Al  Al16  1  0.43896744  0.42802790  0.88429132  1
  Al  Al17  1  0.12137148  0.75025781  0.40760366  1
  Al  Al18  1  0.21299620  0.87601841  0.14959078  1
  Al  Al19  1  0.78813988  0.76044255  0.89381387  1
  Al  Al20  1  0.89739378  0.86072084  0.65013156  1
  Al  Al21  1  0.43179208  0.77307427  0.41067417  1
  Al  Al22  1  0.11226596  0.76260651  0.89356525  1
  Al  Al23  1  0.22075442  0.87373061  0.65056450  1
  Al  Al24  1  0.79464708  0.74896393  0.40195607  1
  Al  Al25  1  0.90445442  0.86563868  0.15075927  1
  Al  Al26  1  0.44217062  0.76502895  0.89113671  1
  Al  Al27  1  0.55725872  0.87689788  0.64778439  1
  Gd  Gd28  1  0.21260227  0.21024090  0.16829005  1
  Gd  Gd29  1  0.55680838  0.20620693  0.13166457  1
  Gd  Gd30  1  0.11808133  0.09487061  0.87983949  1
  Gd  Gd31  1  0.77808236  0.07884196  0.39074220  1
  Gd  Gd32  1  0.21617294  0.55084881  0.14747507  1
  Gd  Gd33  1  0.76587873  0.43519289  0.35937852  1
  Gd  Gd34  1  0.53326613  0.55330931  0.63190458  1
  Gd  Gd35  1  0.56303390  0.85806285  0.14544263  1
  N  N36  1  0.22300200  0.20098214  0.39053620  1
  N  N37  1  0.09904282  0.08696182  0.09905761  1
  N  N38  1  0.86275323  0.22021592  0.85765233  1
  N  N39  1  0.77514424  0.09258272  0.62973141  1
  N  N40  1  0.51605069  0.21969483  0.34979188  1
  N  N41  1  0.43247541  0.08788476  0.05962374  1
  N  N42  1  0.23758660  0.22759657  0.82168746  1
  N  N43  1  0.11811019  0.09101035  0.61779097  1
  N  N44  1  0.91299216  0.19402034  0.41954680  1
  N  N45  1  0.80712666  0.08272325  0.15573214  1
  N  N46  1  0.55497658  0.20514765  0.84066880  1
  N  N47  1  0.45176350  0.08963332  0.60096602  1
  N  N48  1  0.21952272  0.53505762  0.36579953  1
  N  N49  1  0.09111813  0.43266164  0.06582493  1
  N  N50  1  0.89245635  0.54630170  0.83357111  1
  N  N51  1  0.79577495  0.42560179  0.63254501  1
  N  N52  1  0.51202939  0.55549779  0.40544697  1
  N  N53  1  0.45056448  0.44126443  0.06047540  1
  N  N54  1  0.21718067  0.54551322  0.83924615  1
  N  N55  1  0.10316139  0.43608418  0.59634169  1
  N  N56  1  0.91410537  0.54354973  0.32925346  1
  N  N57  1  0.77384649  0.43154824  0.12819509  1
  N  N58  1  0.56578895  0.54057825  0.86510074  1
  N  N59  1  0.41987212  0.40815871  0.60339202  1
  N  N60  1  0.22133814  0.87348030  0.34253205  1
  N  N61  1  0.10014970  0.79011060  0.07427688  1
  N  N62  1  0.89403762  0.87001682  0.83289153  1
  N  N63  1  0.78359775  0.75987841  0.58910528  1
  N  N64  1  0.56400473  0.86757114  0.36422069  1
  N  N65  1  0.42396323  0.75464432  0.07423517  1
  N  N66  1  0.24066628  0.83792362  0.82626184  1
  N  N67  1  0.11356874  0.76173414  0.59205773  1
  N  N68  1  0.91961527  0.82840713  0.33488903  1
  N  N69  1  0.81056523  0.75107815  0.07641182  1
  N  N70  1  0.56168029  0.86822962  0.83665621  1
  N  N71  1  0.42260135  0.80728208  0.58884658  1
