# generated using pymatgen
data_Gd2Al7N9
_symmetry_space_group_name_H-M   'P 1'
_cell_length_a   9.73149617
_cell_length_b   9.79852713
_cell_length_c   10.97002778
_cell_angle_alpha   90.10764959
_cell_angle_beta   89.07140431
_cell_angle_gamma   60.12924111
_symmetry_Int_Tables_number   1
_chemical_formula_structural   Gd2Al7N9
_chemical_formula_sum   'Gd8 Al28 N36'
_cell_volume   906.89550917
_cell_formula_units_Z   4
loop_
 _symmetry_equiv_pos_site_id
 _symmetry_equiv_pos_as_xyz
  1  'x, y, z'
loop_
 _atom_site_type_symbol
 _atom_site_label
 _atom_site_symmetry_multiplicity
 _atom_site_fract_x
 _atom_site_fract_y
 _atom_site_fract_z
 _atom_site_occupancy
  Al  Al0  1  0.12830500  0.08678464  0.43108007  1
  Al  Al1  1  0.78683405  0.08900040  0.82451955  1
  Al  Al2  1  0.89964640  0.19912381  0.59714537  1
  Al  Al3  1  0.45161285  0.10121628  0.42032947  1
  Al  Al4  1  0.23256315  0.20576937  0.64708180  1
  Al  Al5  1  0.87235315  0.20853074  0.06669572  1
  Al  Al6  1  0.44746848  0.08735157  0.88424274  1
  Al  Al7  1  0.55665438  0.19314556  0.66107908  1
  Al  Al8  1  0.12001248  0.43072562  0.43400634  1
  Al  Al9  1  0.76936875  0.41733431  0.83536194  1
  Al  Al10  1  0.89789547  0.53273840  0.66713400  1
  Al  Al11  1  0.43461308  0.44356245  0.32474357  1
  Al  Al12  1  0.52959115  0.55087456  0.07281981  1
  Al  Al13  1  0.12657779  0.42166390  0.88733667  1
  Al  Al14  1  0.21358656  0.54157916  0.65860373  1
  Al  Al15  1  0.87618054  0.53093833  0.03956633  1
  Al  Al16  1  0.43880333  0.42991882  0.82664784  1
  Al  Al17  1  0.13324450  0.75147864  0.42948789  1
  Al  Al18  1  0.20933121  0.87582233  0.15063027  1
  Al  Al19  1  0.77501316  0.76693835  0.87797969  1
  Al  Al20  1  0.89628895  0.86891545  0.59769679  1
  Al  Al21  1  0.43935081  0.77960960  0.40893063  1
  Al  Al22  1  0.12534819  0.75317100  0.89372211  1
  Al  Al23  1  0.23175446  0.86635420  0.65682034  1
  Al  Al24  1  0.78970073  0.74776490  0.42651633  1
  Al  Al25  1  0.88380225  0.88960271  0.04683544  1
  Al  Al26  1  0.44534346  0.75695372  0.89410265  1
  Al  Al27  1  0.55637534  0.87203917  0.64977177  1
  Gd  Gd28  1  0.20937894  0.21191977  0.17456457  1
  Gd  Gd29  1  0.53631883  0.23423045  0.08427065  1
  Gd  Gd30  1  0.13168268  0.08520344  0.89491459  1
  Gd  Gd31  1  0.79402945  0.07990192  0.33361936  1
  Gd  Gd32  1  0.12867006  0.58836775  0.17962601  1
  Gd  Gd33  1  0.79442027  0.42834023  0.31410081  1
  Gd  Gd34  1  0.56318555  0.52421070  0.58310282  1
  Gd  Gd35  1  0.56881178  0.86124035  0.15553595  1
  N  N36  1  0.22764989  0.20521513  0.39130387  1
  N  N37  1  0.08804207  0.09239980  0.10669042  1
  N  N38  1  0.86531393  0.21104008  0.89284327  1
  N  N39  1  0.78624866  0.08914014  0.64847915  1
  N  N40  1  0.52837811  0.22045144  0.33855034  1
  N  N41  1  0.42679741  0.08629788  0.05641221  1
  N  N42  1  0.24443046  0.21864641  0.81913721  1
  N  N43  1  0.12578234  0.08427425  0.61446828  1
  N  N44  1  0.90662232  0.20490763  0.42463921  1
  N  N45  1  0.78952045  0.08314661  0.12333417  1
  N  N46  1  0.55937009  0.19881285  0.85075040  1
  N  N47  1  0.45836528  0.08817298  0.59836088  1
  N  N48  1  0.22514287  0.54094060  0.38144140  1
  N  N49  1  0.09253964  0.42079682  0.05631186  1
  N  N50  1  0.88636386  0.53719734  0.85373254  1
  N  N51  1  0.80601506  0.40379106  0.66451310  1
  N  N52  1  0.53984940  0.55719467  0.37878582  1
  N  N53  1  0.40623577  0.48122868  0.15284695  1
  N  N54  1  0.21277680  0.54543557  0.83906789  1
  N  N55  1  0.10959813  0.43046928  0.60864333  1
  N  N56  1  0.92241973  0.54954081  0.35776571  1
  N  N57  1  0.75965573  0.43630286  0.10084948  1
  N  N58  1  0.55054480  0.52978865  0.88684647  1
  N  N59  1  0.43460550  0.40962772  0.65518654  1
  N  N60  1  0.22225584  0.87702610  0.34629368  1
  N  N61  1  0.10100469  0.78914585  0.06847788  1
  N  N62  1  0.89235017  0.87633136  0.86953444  1
  N  N63  1  0.78197450  0.74862062  0.61188073  1
  N  N64  1  0.56954448  0.87378071  0.36985897  1
  N  N65  1  0.41882706  0.77146077  0.07142998  1
  N  N66  1  0.24560019  0.83728928  0.82635823  1
  N  N67  1  0.12681522  0.75585800  0.60561970  1
  N  N68  1  0.90902406  0.84957504  0.42205109  1
  N  N69  1  0.80204832  0.74778085  0.05700190  1
  N  N70  1  0.55495713  0.86684532  0.83055833  1
  N  N71  1  0.43456883  0.78842882  0.58590397  1
