# generated using pymatgen
data_Gd2Al7N9
_symmetry_space_group_name_H-M   'P 1'
_cell_length_a   9.87553535
_cell_length_b   9.85696913
_cell_length_c   10.43291358
_cell_angle_alpha   90.44045745
_cell_angle_beta   90.33307933
_cell_angle_gamma   60.03236513
_symmetry_Int_Tables_number   1
_chemical_formula_structural   Gd2Al7N9
_chemical_formula_sum   'Gd8 Al28 N36'
_cell_volume   879.76741350
_cell_formula_units_Z   4
loop_
 _symmetry_equiv_pos_site_id
 _symmetry_equiv_pos_as_xyz
  1  'x, y, z'
loop_
 _atom_site_type_symbol
 _atom_site_label
 _atom_site_symmetry_multiplicity
 _atom_site_fract_x
 _atom_site_fract_y
 _atom_site_fract_z
 _atom_site_occupancy
  Al  Al0  1  0.11462100  0.08624431  0.42807622  1
  Al  Al1  1  0.78144599  0.09361019  0.90165646  1
  Al  Al2  1  0.88751373  0.20867588  0.66967098  1
  Al  Al3  1  0.44472062  0.09185383  0.43377850  1
  Al  Al4  1  0.22474839  0.21119174  0.64261028  1
  Al  Al5  1  0.89895197  0.19414297  0.15437439  1
  Al  Al6  1  0.44411141  0.09804271  0.88945500  1
  Al  Al7  1  0.55427377  0.20402771  0.67229487  1
  Al  Al8  1  0.11158010  0.43607550  0.43027252  1
  Al  Al9  1  0.77407698  0.43283995  0.91790880  1
  Al  Al10  1  0.89269517  0.53780980  0.66397928  1
  Al  Al11  1  0.42766110  0.42929947  0.41985501  1
  Al  Al12  1  0.53999962  0.54732267  0.15570814  1
  Al  Al13  1  0.11110776  0.42961035  0.89241120  1
  Al  Al14  1  0.21660584  0.54096106  0.66171916  1
  Al  Al15  1  0.89332199  0.54134771  0.14545356  1
  Al  Al16  1  0.44159471  0.43434926  0.90606580  1
  Al  Al17  1  0.11415899  0.75754341  0.41668454  1
  Al  Al18  1  0.21412138  0.87354957  0.16256187  1
  Al  Al19  1  0.78740385  0.75713354  0.90078354  1
  Al  Al20  1  0.89168563  0.87043889  0.66576834  1
  Al  Al21  1  0.43320768  0.77126236  0.41024045  1
  Al  Al22  1  0.11490374  0.75990160  0.90207027  1
  Al  Al23  1  0.22208465  0.86977644  0.65635136  1
  Al  Al24  1  0.79173530  0.75624608  0.40998406  1
  Al  Al25  1  0.90122379  0.86996712  0.14676517  1
  Al  Al26  1  0.44407242  0.75370431  0.91142912  1
  Al  Al27  1  0.55788040  0.87356524  0.65808017  1
  Gd  Gd28  1  0.21188160  0.20980468  0.18440916  1
  Gd  Gd29  1  0.55495928  0.20679022  0.14248851  1
  Gd  Gd30  1  0.12227164  0.09235674  0.89564537  1
  Gd  Gd31  1  0.77701286  0.08962009  0.41256693  1
  Gd  Gd32  1  0.20186698  0.55104321  0.15932388  1
  Gd  Gd33  1  0.78140028  0.43508950  0.38785771  1
  Gd  Gd34  1  0.55509925  0.54345280  0.65885979  1
  Gd  Gd35  1  0.56453243  0.86332524  0.15096969  1
  N  N36  1  0.22091814  0.20423576  0.41124259  1
  N  N37  1  0.10751715  0.08060267  0.10790323  1
  N  N38  1  0.86367847  0.22452023  0.85192806  1
  N  N39  1  0.77720656  0.09526262  0.62827955  1
  N  N40  1  0.51944526  0.21803053  0.35933594  1
  N  N41  1  0.42571229  0.09553973  0.06790965  1
  N  N42  1  0.23780079  0.22364987  0.82488093  1
  N  N43  1  0.10527792  0.09054825  0.61673912  1
  N  N44  1  0.92134777  0.18613367  0.33672540  1
  N  N45  1  0.80515310  0.08071205  0.08960222  1
  N  N46  1  0.55823042  0.20797371  0.85884988  1
  N  N47  1  0.45671604  0.08928813  0.61511068  1
  N  N48  1  0.21747732  0.54063194  0.37881605  1
  N  N49  1  0.08799811  0.42393807  0.07069478  1
  N  N50  1  0.88477010  0.53966219  0.84707887  1
  N  N51  1  0.80788546  0.41325206  0.60300308  1
  N  N52  1  0.51733964  0.55433767  0.34811335  1
  N  N53  1  0.44169863  0.44766709  0.08439964  1
  N  N54  1  0.22045822  0.54234843  0.84969623  1
  N  N55  1  0.10347354  0.43944838  0.61040231  1
  N  N56  1  0.91776596  0.54892058  0.33272836  1
  N  N57  1  0.77191292  0.43387995  0.11381602  1
  N  N58  1  0.56015923  0.53831905  0.87153280  1
  N  N59  1  0.43088023  0.41303834  0.60535914  1
  N  N60  1  0.21850790  0.87353726  0.35430492  1
  N  N61  1  0.10340959  0.78718492  0.08369032  1
  N  N62  1  0.89347627  0.87040910  0.84739603  1
  N  N63  1  0.78304076  0.75865427  0.60016230  1
  N  N64  1  0.56146361  0.87178196  0.37081180  1
  N  N65  1  0.42303608  0.75609684  0.09593370  1
  N  N66  1  0.24353217  0.83684575  0.83518250  1
  N  N67  1  0.10778166  0.76450162  0.60190132  1
  N  N68  1  0.90872333  0.84570901  0.33625278  1
  N  N69  1  0.81268852  0.74851674  0.08290699  1
  N  N70  1  0.56007412  0.86492898  0.84955386  1
  N  N71  1  0.42846521  0.79330160  0.59075760  1
