# generated using pymatgen
data_Gd2Al7N9
_symmetry_space_group_name_H-M   'P 1'
_cell_length_a   9.88817568
_cell_length_b   9.84022690
_cell_length_c   10.76354286
_cell_angle_alpha   89.52548898
_cell_angle_beta   89.11665617
_cell_angle_gamma   59.77682101
_symmetry_Int_Tables_number   1
_chemical_formula_structural   Gd2Al7N9
_chemical_formula_sum   'Gd8 Al28 N36'
_cell_volume   904.84540152
_cell_formula_units_Z   4
loop_
 _symmetry_equiv_pos_site_id
 _symmetry_equiv_pos_as_xyz
  1  'x, y, z'
loop_
 _atom_site_type_symbol
 _atom_site_label
 _atom_site_symmetry_multiplicity
 _atom_site_fract_x
 _atom_site_fract_y
 _atom_site_fract_z
 _atom_site_occupancy
  Al  Al0  1  0.12630183  0.08385264  0.38357282  1
  Al  Al1  1  0.76943832  0.09951780  0.78096303  1
  Al  Al2  1  0.89566884  0.20356493  0.55515673  1
  Al  Al3  1  0.44457184  0.10075950  0.32287152  1
  Al  Al4  1  0.23224579  0.20703555  0.55282126  1
  Al  Al5  1  0.87383755  0.20627250  0.02540988  1
  Al  Al6  1  0.44350846  0.10307803  0.78744390  1
  Al  Al7  1  0.54970926  0.20479083  0.55372580  1
  Al  Al8  1  0.10178533  0.43897588  0.32178085  1
  Al  Al9  1  0.77675691  0.42596872  0.80470957  1
  Al  Al10  1  0.90568027  0.52645450  0.57295031  1
  Al  Al11  1  0.44236644  0.43739337  0.30745796  1
  Al  Al12  1  0.54623205  0.53737462  0.03393864  1
  Al  Al13  1  0.12076336  0.42912186  0.79338752  1
  Al  Al14  1  0.22665101  0.52698344  0.54967588  1
  Al  Al15  1  0.88368329  0.53757231  0.02909120  1
  Al  Al16  1  0.43601466  0.42503985  0.78827009  1
  Al  Al17  1  0.12136454  0.75914927  0.37725945  1
  Al  Al18  1  0.20813575  0.87788721  0.11236206  1
  Al  Al19  1  0.77739506  0.76152597  0.84382542  1
  Al  Al20  1  0.89509576  0.87236530  0.56532208  1
  Al  Al21  1  0.43908253  0.77494909  0.37988983  1
  Al  Al22  1  0.11604072  0.75580977  0.82699849  1
  Al  Al23  1  0.23132286  0.86343207  0.61344972  1
  Al  Al24  1  0.77843675  0.75866217  0.40449774  1
  Al  Al25  1  0.88997566  0.88407796  0.01995602  1
  Al  Al26  1  0.43725685  0.76161847  0.86000076  1
  Al  Al27  1  0.55528931  0.87249243  0.62131891  1
  Gd  Gd28  1  0.20816931  0.21033462  0.07603527  1
  Gd  Gd29  1  0.54882578  0.20827789  0.03747900  1
  Gd  Gd30  1  0.10785920  0.10197528  0.81668550  1
  Gd  Gd31  1  0.78594901  0.08341856  0.30121722  1
  Gd  Gd32  1  0.20332143  0.54533097  0.06854873  1
  Gd  Gd33  1  0.79360849  0.43500981  0.28485634  1
  Gd  Gd34  1  0.56467551  0.53251281  0.57140083  1
  Gd  Gd35  1  0.57279603  0.83860329  0.12800016  1
  N  N36  1  0.22530492  0.20906680  0.37129977  1
  N  N37  1  0.09072237  0.08156732  0.04413298  1
  N  N38  1  0.85018102  0.21716928  0.85145499  1
  N  N39  1  0.77857762  0.09773564  0.60098641  1
  N  N40  1  0.53408404  0.22264666  0.37589167  1
  N  N41  1  0.44833580  0.09218864  0.14861969  1
  N  N42  1  0.24418937  0.22417601  0.86182072  1
  N  N43  1  0.12176781  0.08600024  0.57593057  1
  N  N44  1  0.90983388  0.20061358  0.37820070  1
  N  N45  1  0.79198925  0.08495942  0.08976023  1
  N  N46  1  0.55582495  0.20262502  0.82566342  1
  N  N47  1  0.44340368  0.09640541  0.60783387  1
  N  N48  1  0.22549122  0.53478632  0.36155068  1
  N  N49  1  0.04264330  0.45351090  0.15065077  1
  N  N50  1  0.90211672  0.52445817  0.84761723  1
  N  N51  1  0.81803562  0.40457902  0.62808277  1
  N  N52  1  0.54038758  0.55256821  0.35961785  1
  N  N53  1  0.45576874  0.44227287  0.12925439  1
  N  N54  1  0.22148387  0.53868739  0.84665923  1
  N  N55  1  0.12146339  0.42184659  0.61405254  1
  N  N56  1  0.90401091  0.54094830  0.39813301  1
  N  N57  1  0.76486002  0.43695483  0.06664791  1
  N  N58  1  0.55114202  0.53289590  0.84040487  1
  N  N59  1  0.42848433  0.41445957  0.61315371  1
  N  N60  1  0.22498383  0.87620898  0.31003388  1
  N  N61  1  0.09237716  0.78960939  0.06728615  1
  N  N62  1  0.89215673  0.87866029  0.83016900  1
  N  N63  1  0.77786640  0.76089061  0.58949193  1
  N  N64  1  0.57037227  0.86511231  0.34326835  1
  N  N65  1  0.41559633  0.76075560  0.03777810  1
  N  N66  1  0.23977338  0.84125987  0.78733277  1
  N  N67  1  0.12470730  0.75556058  0.56588675  1
  N  N68  1  0.90321128  0.84951724  0.38467065  1
  N  N69  1  0.79602519  0.75877234  0.02426588  1
  N  N70  1  0.55181977  0.86815352  0.80489110  1
  N  N71  1  0.43261441  0.79439043  0.55553344  1
