# generated using pymatgen
data_Gd2Al7N9
_symmetry_space_group_name_H-M   'P 1'
_cell_length_a   9.90393680
_cell_length_b   9.87459211
_cell_length_c   10.59455591
_cell_angle_alpha   90.26688209
_cell_angle_beta   89.28686823
_cell_angle_gamma   60.25819933
_symmetry_Int_Tables_number   1
_chemical_formula_structural   Gd2Al7N9
_chemical_formula_sum   'Gd8 Al28 N36'
_cell_volume   899.49145200
_cell_formula_units_Z   4
loop_
 _symmetry_equiv_pos_site_id
 _symmetry_equiv_pos_as_xyz
  1  'x, y, z'
loop_
 _atom_site_type_symbol
 _atom_site_label
 _atom_site_symmetry_multiplicity
 _atom_site_fract_x
 _atom_site_fract_y
 _atom_site_fract_z
 _atom_site_occupancy
  Al  Al0  1  0.13019228  0.08021570  0.42893101  1
  Al  Al1  1  0.77872323  0.09658603  0.82745789  1
  Al  Al2  1  0.90093422  0.20486034  0.59777918  1
  Al  Al3  1  0.44576355  0.09449852  0.41879339  1
  Al  Al4  1  0.23396533  0.20901989  0.64182180  1
  Al  Al5  1  0.87991092  0.20362998  0.07336808  1
  Al  Al6  1  0.44463427  0.09175894  0.88846991  1
  Al  Al7  1  0.54876490  0.20143525  0.66462365  1
  Al  Al8  1  0.11420301  0.42864962  0.43060401  1
  Al  Al9  1  0.77512096  0.42393697  0.83911991  1
  Al  Al10  1  0.89777008  0.53939510  0.65744326  1
  Al  Al11  1  0.43293203  0.43219824  0.36657381  1
  Al  Al12  1  0.54667935  0.54373879  0.05547840  1
  Al  Al13  1  0.12104493  0.42685568  0.88245441  1
  Al  Al14  1  0.21190132  0.54580483  0.65976531  1
  Al  Al15  1  0.88042572  0.54102357  0.04851727  1
  Al  Al16  1  0.43282072  0.43232562  0.85145178  1
  Al  Al17  1  0.12009376  0.75159182  0.40876228  1
  Al  Al18  1  0.21117942  0.87882276  0.14656472  1
  Al  Al19  1  0.77802888  0.77680636  0.88594669  1
  Al  Al20  1  0.89799886  0.86486958  0.65221221  1
  Al  Al21  1  0.43722367  0.77286647  0.41073578  1
  Al  Al22  1  0.10866436  0.76663736  0.89760070  1
  Al  Al23  1  0.22562890  0.86817066  0.65121818  1
  Al  Al24  1  0.79533241  0.74470776  0.41300762  1
  Al  Al25  1  0.89871213  0.87258950  0.15015017  1
  Al  Al26  1  0.43959471  0.76481147  0.88810854  1
  Al  Al27  1  0.55769371  0.87762468  0.64759501  1
  Gd  Gd28  1  0.20615606  0.21135167  0.17154121  1
  Gd  Gd29  1  0.55700204  0.20639782  0.11356868  1
  Gd  Gd30  1  0.12051837  0.09441129  0.87669160  1
  Gd  Gd31  1  0.77855126  0.08152910  0.38128935  1
  Gd  Gd32  1  0.18609247  0.55904962  0.15007479  1
  Gd  Gd33  1  0.78215468  0.42430479  0.32153489  1
  Gd  Gd34  1  0.55712749  0.53738869  0.61494299  1
  Gd  Gd35  1  0.56564345  0.85355939  0.14987712  1
  N  N36  1  0.22660843  0.20096000  0.39637721  1
  N  N37  1  0.09634793  0.08895510  0.09436892  1
  N  N38  1  0.85690022  0.21644406  0.89408760  1
  N  N39  1  0.77857976  0.09812605  0.63695315  1
  N  N40  1  0.51844543  0.21983227  0.34015215  1
  N  N41  1  0.42732460  0.08317974  0.06391001  1
  N  N42  1  0.24592557  0.22221598  0.81982032  1
  N  N43  1  0.12272643  0.08701355  0.61972504  1
  N  N44  1  0.91593517  0.19582232  0.42048779  1
  N  N45  1  0.80571252  0.09034160  0.15989842  1
  N  N46  1  0.55947105  0.19766148  0.85304918  1
  N  N47  1  0.45815371  0.09117403  0.59855444  1
  N  N48  1  0.22135198  0.53481778  0.37037079  1
  N  N49  1  0.09020806  0.42144184  0.05624686  1
  N  N50  1  0.88523808  0.54699832  0.85305872  1
  N  N51  1  0.81168203  0.40766579  0.66050185  1
  N  N52  1  0.53059128  0.54892512  0.39484511  1
  N  N53  1  0.42979623  0.45459233  0.08956537  1
  N  N54  1  0.20696451  0.55417225  0.84498370  1
  N  N55  1  0.11071798  0.43428131  0.61033591  1
  N  N56  1  0.91057172  0.53527402  0.37690617  1
  N  N57  1  0.76534007  0.44222008  0.09810116  1
  N  N58  1  0.55494189  0.54025171  0.86622942  1
  N  N59  1  0.42728155  0.41507865  0.65616895  1
  N  N60  1  0.22583632  0.87199596  0.34325020  1
  N  N61  1  0.09448166  0.79597078  0.07496194  1
  N  N62  1  0.89520904  0.87328212  0.83221592  1
  N  N63  1  0.78387144  0.76028545  0.60142619  1
  N  N64  1  0.56700009  0.86873376  0.36830416  1
  N  N65  1  0.41923983  0.76263885  0.06988312  1
  N  N66  1  0.23816176  0.83973901  0.82608693  1
  N  N67  1  0.11269375  0.76313774  0.59184010  1
  N  N68  1  0.91925217  0.82511690  0.33347631  1
  N  N69  1  0.80694522  0.75936303  0.06567466  1
  N  N70  1  0.55770502  0.87042349  0.83373059  1
  N  N71  1  0.42898189  0.79825220  0.58958679  1
