# generated using pymatgen
data_Gd2Al7N9
_symmetry_space_group_name_H-M   'P 1'
_cell_length_a   9.86324031
_cell_length_b   9.85098239
_cell_length_c   10.47138983
_cell_angle_alpha   90.10836143
_cell_angle_beta   89.91089319
_cell_angle_gamma   60.04098870
_symmetry_Int_Tables_number   1
_chemical_formula_structural   Gd2Al7N9
_chemical_formula_sum   'Gd8 Al28 N36'
_cell_volume   881.47654580
_cell_formula_units_Z   4
loop_
 _symmetry_equiv_pos_site_id
 _symmetry_equiv_pos_as_xyz
  1  'x, y, z'
loop_
 _atom_site_type_symbol
 _atom_site_label
 _atom_site_symmetry_multiplicity
 _atom_site_fract_x
 _atom_site_fract_y
 _atom_site_fract_z
 _atom_site_occupancy
  Al  Al0  1  0.11318005  0.08856276  0.31088591  1
  Al  Al1  1  0.77740125  0.09258822  0.78669737  1
  Al  Al2  1  0.89986402  0.20402760  0.55259102  1
  Al  Al3  1  0.43986764  0.09809344  0.32211613  1
  Al  Al4  1  0.22138945  0.20693383  0.54400870  1
  Al  Al5  1  0.88499731  0.20097316  0.04043913  1
  Al  Al6  1  0.44781487  0.09433981  0.77949126  1
  Al  Al7  1  0.54575996  0.20862924  0.55858733  1
  Al  Al8  1  0.10590302  0.43410080  0.31796583  1
  Al  Al9  1  0.78234822  0.42657227  0.81331468  1
  Al  Al10  1  0.89816728  0.53753115  0.56174552  1
  Al  Al11  1  0.43700799  0.43469505  0.31045926  1
  Al  Al12  1  0.54887633  0.54283567  0.04185390  1
  Al  Al13  1  0.11744357  0.43041441  0.78839937  1
  Al  Al14  1  0.21835468  0.54023201  0.54865259  1
  Al  Al15  1  0.88861657  0.54311336  0.04352543  1
  Al  Al16  1  0.43573196  0.42687390  0.78747725  1
  Al  Al17  1  0.11078605  0.76106850  0.31071846  1
  Al  Al18  1  0.21360052  0.86749191  0.06213260  1
  Al  Al19  1  0.77971038  0.76218047  0.79631808  1
  Al  Al20  1  0.89473352  0.86429647  0.55753349  1
  Al  Al21  1  0.43471850  0.76028474  0.30381727  1
  Al  Al22  1  0.11596695  0.75389707  0.79697589  1
  Al  Al23  1  0.22051065  0.87562821  0.54578787  1
  Al  Al24  1  0.79335791  0.75255814  0.31288645  1
  Al  Al25  1  0.89648691  0.87147326  0.04889968  1
  Al  Al26  1  0.44027476  0.76439786  0.80264376  1
  Al  Al27  1  0.55429312  0.87498516  0.55287108  1
  Gd  Gd28  1  0.21619964  0.20638222  0.06573958  1
  Gd  Gd29  1  0.55753094  0.20791083  0.03469836  1
  Gd  Gd30  1  0.11758784  0.08722463  0.79817040  1
  Gd  Gd31  1  0.77587658  0.08813885  0.31175356  1
  Gd  Gd32  1  0.21295455  0.54612268  0.06176168  1
  Gd  Gd33  1  0.78147951  0.43610087  0.28782069  1
  Gd  Gd34  1  0.56059983  0.54130126  0.56962918  1
  Gd  Gd35  1  0.56239643  0.86283275  0.06122371  1
  N  N36  1  0.21803181  0.20672702  0.35860542  1
  N  N37  1  0.09155680  0.08247446  0.11838562  1
  N  N38  1  0.86528439  0.21087650  0.85982488  1
  N  N39  1  0.78279593  0.09202562  0.59963873  1
  N  N40  1  0.52454512  0.22559193  0.37711138  1
  N  N41  1  0.45243817  0.09525534  0.14501774  1
  N  N42  1  0.24140160  0.22004018  0.84726509  1
  N  N43  1  0.11666082  0.09182343  0.58753235  1
  N  N44  1  0.90841318  0.20181200  0.37350154  1
  N  N45  1  0.79740257  0.08223606  0.09620361  1
  N  N46  1  0.55783372  0.20256002  0.81706880  1
  N  N47  1  0.44144605  0.09267016  0.59665887  1
  N  N48  1  0.21980231  0.54204307  0.35929088  1
  N  N49  1  0.07210063  0.44151941  0.13977702  1
  N  N50  1  0.89695327  0.54196042  0.85783616  1
  N  N51  1  0.81685904  0.40918878  0.62749584  1
  N  N52  1  0.53345271  0.55180816  0.35971260  1
  N  N53  1  0.46133073  0.43699455  0.12744076  1
  N  N54  1  0.22149001  0.53849789  0.84213959  1
  N  N55  1  0.11559226  0.42705301  0.60432564  1
  N  N56  1  0.89909141  0.55000508  0.38292626  1
  N  N57  1  0.77279431  0.43424141  0.06789043  1
  N  N58  1  0.55100302  0.54011407  0.84653562  1
  N  N59  1  0.42564131  0.42172359  0.60955826  1
  N  N60  1  0.22161623  0.87075229  0.36271737  1
  N  N61  1  0.09308818  0.78686492  0.12905480  1
  N  N62  1  0.89234050  0.86961419  0.85583084  1
  N  N63  1  0.77727360  0.76106201  0.61389144  1
  N  N64  1  0.56058841  0.86451273  0.36215513  1
  N  N65  1  0.42594976  0.74908598  0.11940520  1
  N  N66  1  0.23457931  0.83991411  0.87740420  1
  N  N67  1  0.11461911  0.76256582  0.61096979  1
  N  N68  1  0.90677266  0.84334521  0.37893299  1
  N  N69  1  0.81087953  0.74744639  0.12235384  1
  N  N70  1  0.55518391  0.87664417  0.84203943  1
  N  N71  1  0.42264069  0.79694757  0.62125968  1
