# generated using pymatgen
data_Gd2Al7N9
_symmetry_space_group_name_H-M   'P 1'
_cell_length_a   9.77055154
_cell_length_b   9.76955999
_cell_length_c   11.23807285
_cell_angle_alpha   89.59673165
_cell_angle_beta   88.54489741
_cell_angle_gamma   59.95166457
_symmetry_Int_Tables_number   1
_chemical_formula_structural   Gd2Al7N9
_chemical_formula_sum   'Gd8 Al28 N36'
_cell_volume   928.22959136
_cell_formula_units_Z   4
loop_
 _symmetry_equiv_pos_site_id
 _symmetry_equiv_pos_as_xyz
  1  'x, y, z'
loop_
 _atom_site_type_symbol
 _atom_site_label
 _atom_site_symmetry_multiplicity
 _atom_site_fract_x
 _atom_site_fract_y
 _atom_site_fract_z
 _atom_site_occupancy
  Al  Al0  1  0.13447106  0.08225391  0.42517149  1
  Al  Al1  1  0.76466171  0.10004240  0.79484191  1
  Al  Al2  1  0.89602895  0.20405338  0.57324366  1
  Al  Al3  1  0.45322166  0.09682090  0.34287167  1
  Al  Al4  1  0.23727080  0.20244648  0.61194346  1
  Al  Al5  1  0.86257524  0.21177058  0.03166734  1
  Al  Al6  1  0.45265095  0.09845552  0.78513028  1
  Al  Al7  1  0.55832367  0.20090789  0.55875284  1
  Al  Al8  1  0.13328663  0.42919339  0.42116233  1
  Al  Al9  1  0.77050930  0.42666161  0.80782656  1
  Al  Al10  1  0.89499874  0.53475390  0.57923061  1
  Al  Al11  1  0.44900957  0.43682913  0.31669446  1
  Al  Al12  1  0.54338048  0.53396250  0.04218779  1
  Al  Al13  1  0.10422002  0.43623492  0.80118408  1
  Al  Al14  1  0.22229143  0.54665261  0.63392633  1
  Al  Al15  1  0.88770203  0.52923603  0.02398634  1
  Al  Al16  1  0.44322185  0.41764225  0.79918320  1
  Al  Al17  1  0.13622795  0.75587207  0.41078633  1
  Al  Al18  1  0.20603466  0.87538908  0.06192806  1
  Al  Al19  1  0.76838847  0.76548711  0.85938223  1
  Al  Al20  1  0.89544547  0.87619069  0.57708744  1
  Al  Al21  1  0.44105167  0.78031449  0.40123354  1
  Al  Al22  1  0.11253843  0.75507517  0.85877874  1
  Al  Al23  1  0.23285250  0.86448897  0.63559733  1
  Al  Al24  1  0.78498098  0.76135950  0.41582836  1
  Al  Al25  1  0.87620802  0.88948612  0.01985006  1
  Al  Al26  1  0.44374425  0.75562232  0.86444900  1
  Al  Al27  1  0.56400719  0.86484089  0.63169885  1
  Gd  Gd28  1  0.17185940  0.20057072  0.17836618  1
  Gd  Gd29  1  0.52519068  0.21195864  0.05459557  1
  Gd  Gd30  1  0.10849537  0.10174788  0.84218562  1
  Gd  Gd31  1  0.80410767  0.08006924  0.30675320  1
  Gd  Gd32  1  0.17095917  0.57512216  0.15422147  1
  Gd  Gd33  1  0.79468446  0.43983270  0.29778693  1
  Gd  Gd34  1  0.56795147  0.52347588  0.56841744  1
  Gd  Gd35  1  0.56612429  0.83533887  0.14752207  1
  N  N36  1  0.23507969  0.20436720  0.39667898  1
  N  N37  1  0.08750408  0.08874934  0.04817264  1
  N  N38  1  0.84476587  0.22089143  0.86241211  1
  N  N39  1  0.77932968  0.09906937  0.61917138  1
  N  N40  1  0.54863291  0.22069329  0.38547916  1
  N  N41  1  0.43111889  0.09360387  0.17115808  1
  N  N42  1  0.23586141  0.22390625  0.78943149  1
  N  N43  1  0.12026061  0.08660455  0.59922086  1
  N  N44  1  0.91417748  0.20709632  0.39848395  1
  N  N45  1  0.78323741  0.08552300  0.09866850  1
  N  N46  1  0.54920032  0.20189610  0.84806109  1
  N  N47  1  0.46434758  0.08481527  0.61254096  1
  N  N48  1  0.22980053  0.54142062  0.36012651  1
  N  N49  1  0.07994567  0.42723321  0.09447374  1
  N  N50  1  0.88836700  0.53158951  0.85051845  1
  N  N51  1  0.81382804  0.40922457  0.63947573  1
  N  N52  1  0.54484807  0.55609537  0.36700952  1
  N  N53  1  0.44495038  0.44716019  0.14086554  1
  N  N54  1  0.21279780  0.54571467  0.80791943  1
  N  N55  1  0.11630982  0.43420145  0.59914987  1
  N  N56  1  0.91004537  0.54102096  0.40542807  1
  N  N57  1  0.76370019  0.43661563  0.08222982  1
  N  N58  1  0.54969194  0.52827910  0.85628917  1
  N  N59  1  0.43987522  0.40468402  0.62970630  1
  N  N60  1  0.22785112  0.88024692  0.35502789  1
  N  N61  1  0.09542567  0.77809111  0.02902622  1
  N  N62  1  0.88048693  0.88193566  0.84228986  1
  N  N63  1  0.78177128  0.76072949  0.59194681  1
  N  N64  1  0.57758976  0.86334525  0.35639510  1
  N  N65  1  0.42149803  0.75965338  0.03691840  1
  N  N66  1  0.23928707  0.84035049  0.80361815  1
  N  N67  1  0.12543348  0.75931467  0.58356372  1
  N  N68  1  0.91171139  0.85372019  0.40050314  1
  N  N69  1  0.78491645  0.75857292  0.03462521  1
  N  N70  1  0.55257723  0.86603262  0.80796504  1
  N  N71  1  0.43885941  0.78608958  0.57307091  1
