# generated using pymatgen
data_Gd2Al7N9
_symmetry_space_group_name_H-M   'P 1'
_cell_length_a   9.75873458
_cell_length_b   9.81401462
_cell_length_c   11.02395891
_cell_angle_alpha   89.54783492
_cell_angle_beta   89.33398412
_cell_angle_gamma   60.06172074
_symmetry_Int_Tables_number   1
_chemical_formula_structural   Gd2Al7N9
_chemical_formula_sum   'Gd8 Al28 N36'
_cell_volume   914.84514325
_cell_formula_units_Z   4
loop_
 _symmetry_equiv_pos_site_id
 _symmetry_equiv_pos_as_xyz
  1  'x, y, z'
loop_
 _atom_site_type_symbol
 _atom_site_label
 _atom_site_symmetry_multiplicity
 _atom_site_fract_x
 _atom_site_fract_y
 _atom_site_fract_z
 _atom_site_occupancy
  Al  Al0  1  0.12768890  0.08742679  0.41277476  1
  Al  Al1  1  0.77084211  0.09604984  0.80072259  1
  Al  Al2  1  0.89671157  0.20334121  0.57730938  1
  Al  Al3  1  0.44248991  0.09692756  0.41031504  1
  Al  Al4  1  0.23333915  0.20715538  0.63769419  1
  Al  Al5  1  0.87432534  0.20723012  0.04935533  1
  Al  Al6  1  0.44625908  0.08685027  0.86853682  1
  Al  Al7  1  0.55449920  0.20999744  0.57412959  1
  Al  Al8  1  0.12571474  0.42680674  0.41792829  1
  Al  Al9  1  0.77587091  0.42128415  0.81488450  1
  Al  Al10  1  0.89681106  0.53196955  0.58934483  1
  Al  Al11  1  0.43783991  0.44163057  0.32568618  1
  Al  Al12  1  0.54381949  0.54078678  0.05691384  1
  Al  Al13  1  0.11896185  0.42272189  0.87009533  1
  Al  Al14  1  0.21347710  0.54165426  0.64512277  1
  Al  Al15  1  0.88182138  0.52912136  0.02709211  1
  Al  Al16  1  0.44420115  0.41754593  0.80665607  1
  Al  Al17  1  0.12706455  0.75237943  0.40912621  1
  Al  Al18  1  0.21163869  0.87506495  0.12546887  1
  Al  Al19  1  0.77824084  0.75954043  0.85924478  1
  Al  Al20  1  0.89382927  0.87389533  0.58295420  1
  Al  Al21  1  0.43379864  0.78304631  0.39494221  1
  Al  Al22  1  0.12319076  0.75221081  0.87080210  1
  Al  Al23  1  0.22906326  0.86909336  0.63707258  1
  Al  Al24  1  0.77478441  0.76317327  0.41923267  1
  Al  Al25  1  0.88706758  0.88594583  0.02961362  1
  Al  Al26  1  0.44439921  0.75342303  0.87798761  1
  Al  Al27  1  0.55208912  0.88018692  0.64065014  1
  Gd  Gd28  1  0.21243177  0.20239215  0.15050120  1
  Gd  Gd29  1  0.54970241  0.22594397  0.05167086  1
  Gd  Gd30  1  0.11924251  0.08441208  0.86618792  1
  Gd  Gd31  1  0.78910273  0.08282775  0.32044147  1
  Gd  Gd32  1  0.17000451  0.57121901  0.14597032  1
  Gd  Gd33  1  0.78529081  0.43516885  0.30937307  1
  Gd  Gd34  1  0.55616954  0.54007003  0.58205684  1
  Gd  Gd35  1  0.57263682  0.85384219  0.13701739  1
  N  N36  1  0.22502152  0.20761084  0.36570644  1
  N  N37  1  0.09268771  0.08658284  0.07619059  1
  N  N38  1  0.85376595  0.21485360  0.87482750  1
  N  N39  1  0.78014762  0.09677712  0.62470950  1
  N  N40  1  0.53505170  0.22989037  0.39355788  1
  N  N41  1  0.43680408  0.08141497  0.04524587  1
  N  N42  1  0.23998209  0.21675735  0.80864116  1
  N  N43  1  0.12239756  0.08880314  0.59696068  1
  N  N44  1  0.90767024  0.20276218  0.40382869  1
  N  N45  1  0.79528132  0.07736319  0.11167534  1
  N  N46  1  0.55541766  0.19987941  0.84740390  1
  N  N47  1  0.45086133  0.09100127  0.58481163  1
  N  N48  1  0.21627243  0.54370736  0.35442391  1
  N  N49  1  0.09987127  0.41918626  0.04395040  1
  N  N50  1  0.88530889  0.53232540  0.85252673  1
  N  N51  1  0.80972410  0.40763070  0.64269165  1
  N  N52  1  0.53381986  0.55999053  0.37725863  1
  N  N53  1  0.43881006  0.45696973  0.14941236  1
  N  N54  1  0.21424500  0.54126640  0.82325186  1
  N  N55  1  0.12062367  0.42519552  0.59118824  1
  N  N56  1  0.89966600  0.54557988  0.40588444  1
  N  N57  1  0.76945561  0.43262157  0.09411001  1
  N  N58  1  0.55346729  0.52573157  0.86842248  1
  N  N59  1  0.43430123  0.41248829  0.63699574  1
  N  N60  1  0.21937660  0.87836249  0.32884660  1
  N  N61  1  0.10606689  0.78717495  0.04432516  1
  N  N62  1  0.88862501  0.87847514  0.85008125  1
  N  N63  1  0.77442403  0.76218376  0.60018634  1
  N  N64  1  0.56342915  0.87898374  0.35114603  1
  N  N65  1  0.42310809  0.76178422  0.05490511  1
  N  N66  1  0.24642777  0.83344625  0.80534758  1
  N  N67  1  0.12606767  0.75592509  0.58566682  1
  N  N68  1  0.90370969  0.85219617  0.40576568  1
  N  N69  1  0.80606296  0.74653267  0.04437775  1
  N  N70  1  0.55307186  0.86576813  0.81835885  1
  N  N71  1  0.42929157  0.80156510  0.56903748  1
