# generated using pymatgen
data_Gd2Al7N9
_symmetry_space_group_name_H-M   'P 1'
_cell_length_a   9.91096201
_cell_length_b   9.87443769
_cell_length_c   10.48454781
_cell_angle_alpha   89.22331657
_cell_angle_beta   88.90738431
_cell_angle_gamma   60.21856005
_symmetry_Int_Tables_number   1
_chemical_formula_structural   Gd2Al7N9
_chemical_formula_sum   'Gd8 Al28 N36'
_cell_volume   890.38329687
_cell_formula_units_Z   4
loop_
 _symmetry_equiv_pos_site_id
 _symmetry_equiv_pos_as_xyz
  1  'x, y, z'
loop_
 _atom_site_type_symbol
 _atom_site_label
 _atom_site_symmetry_multiplicity
 _atom_site_fract_x
 _atom_site_fract_y
 _atom_site_fract_z
 _atom_site_occupancy
  Al  Al0  1  0.12169605  0.09435633  0.38529655  1
  Al  Al1  1  0.77053611  0.09224756  0.78580239  1
  Al  Al2  1  0.89282295  0.20889608  0.56026047  1
  Al  Al3  1  0.44276168  0.10112599  0.32391953  1
  Al  Al4  1  0.22895152  0.21422831  0.55670124  1
  Al  Al5  1  0.87768573  0.20206882  0.02621165  1
  Al  Al6  1  0.44626027  0.09348279  0.78537998  1
  Al  Al7  1  0.54606620  0.20847726  0.55771079  1
  Al  Al8  1  0.10634218  0.43709099  0.31957341  1
  Al  Al9  1  0.77918043  0.42794351  0.81140049  1
  Al  Al10  1  0.89915385  0.53942546  0.56293436  1
  Al  Al11  1  0.43997904  0.43792450  0.31034290  1
  Al  Al12  1  0.55059740  0.53727063  0.03358517  1
  Al  Al13  1  0.11621327  0.43051960  0.79307642  1
  Al  Al14  1  0.21842561  0.53992975  0.54715604  1
  Al  Al15  1  0.88941153  0.54172591  0.04220120  1
  Al  Al16  1  0.43234384  0.42281157  0.78891303  1
  Al  Al17  1  0.11449496  0.76585976  0.30862418  1
  Al  Al18  1  0.21135907  0.86399094  0.03716514  1
  Al  Al19  1  0.77869248  0.76221037  0.79756803  1
  Al  Al20  1  0.89432941  0.86423410  0.55531142  1
  Al  Al21  1  0.43988613  0.76809211  0.33483231  1
  Al  Al22  1  0.11097841  0.74950031  0.79336443  1
  Al  Al23  1  0.22407349  0.86574692  0.56046357  1
  Al  Al24  1  0.79829828  0.75383477  0.31171208  1
  Al  Al25  1  0.89694668  0.87179380  0.05015006  1
  Al  Al26  1  0.44079406  0.76007592  0.80672044  1
  Al  Al27  1  0.55854193  0.87531364  0.55969063  1
  Gd  Gd28  1  0.21217445  0.20252402  0.07145808  1
  Gd  Gd29  1  0.55664407  0.20433078  0.04067875  1
  Gd  Gd30  1  0.10872848  0.09150053  0.80775912  1
  Gd  Gd31  1  0.78175540  0.09266984  0.31251176  1
  Gd  Gd32  1  0.21486852  0.54521731  0.06717765  1
  Gd  Gd33  1  0.78546723  0.43932471  0.28502067  1
  Gd  Gd34  1  0.56379856  0.53515522  0.57595309  1
  Gd  Gd35  1  0.56218326  0.85902174  0.06239604  1
  N  N36  1  0.22383890  0.21309733  0.37048968  1
  N  N37  1  0.08985761  0.07904074  0.04163371  1
  N  N38  1  0.84977294  0.21585973  0.84778779  1
  N  N39  1  0.78014499  0.09217720  0.59867951  1
  N  N40  1  0.52864547  0.22691886  0.37630122  1
  N  N41  1  0.44953384  0.09000540  0.14836086  1
  N  N42  1  0.23992048  0.22031835  0.84936717  1
  N  N43  1  0.11846651  0.09161849  0.57878355  1
  N  N44  1  0.90866656  0.20898466  0.37879931  1
  N  N45  1  0.79678803  0.08217780  0.09810539  1
  N  N46  1  0.55411809  0.20070572  0.82240566  1
  N  N47  1  0.44448301  0.09225077  0.60224881  1
  N  N48  1  0.22163678  0.54479543  0.35741250  1
  N  N49  1  0.06822183  0.44077896  0.14270422  1
  N  N50  1  0.89518522  0.54196381  0.85702318  1
  N  N51  1  0.81849808  0.41156065  0.62757985  1
  N  N52  1  0.53632367  0.55496848  0.36220414  1
  N  N53  1  0.46444733  0.43399103  0.12881138  1
  N  N54  1  0.21910426  0.53689426  0.84684989  1
  N  N55  1  0.11446187  0.43038844  0.60846987  1
  N  N56  1  0.90042892  0.55260644  0.38453120  1
  N  N57  1  0.77249454  0.43179795  0.06349388  1
  N  N58  1  0.55085006  0.53371648  0.83860519  1
  N  N59  1  0.42268225  0.41927653  0.61010873  1
  N  N60  1  0.22416924  0.87243870  0.37251560  1
  N  N61  1  0.09487063  0.78940829  0.12681674  1
  N  N62  1  0.88924367  0.86959958  0.85604387  1
  N  N63  1  0.77888950  0.76178989  0.61501301  1
  N  N64  1  0.56415559  0.86874877  0.36852252  1
  N  N65  1  0.42186549  0.74612864  0.08018817  1
  N  N66  1  0.23002962  0.83461130  0.85247500  1
  N  N67  1  0.11131516  0.75806084  0.60890693  1
  N  N68  1  0.90919616  0.84657718  0.37634362  1
  N  N69  1  0.81220400  0.74486763  0.12287145  1
  N  N70  1  0.55466373  0.87411120  0.84124719  1
  N  N71  1  0.42967090  0.79074911  0.61742617  1
