# generated using pymatgen
data_Gd2Al7N9
_symmetry_space_group_name_H-M   'P 1'
_cell_length_a   9.89361499
_cell_length_b   9.85470195
_cell_length_c   10.63077702
_cell_angle_alpha   89.24109110
_cell_angle_beta   89.04814549
_cell_angle_gamma   59.89729814
_symmetry_Int_Tables_number   1
_chemical_formula_structural   Gd2Al7N9
_chemical_formula_sum   'Gd8 Al28 N36'
_cell_volume   896.55476349
_cell_formula_units_Z   4
loop_
 _symmetry_equiv_pos_site_id
 _symmetry_equiv_pos_as_xyz
  1  'x, y, z'
loop_
 _atom_site_type_symbol
 _atom_site_label
 _atom_site_symmetry_multiplicity
 _atom_site_fract_x
 _atom_site_fract_y
 _atom_site_fract_z
 _atom_site_occupancy
  Al  Al0  1  0.12695722  0.08576885  0.38444159  1
  Al  Al1  1  0.77191104  0.09464761  0.78443326  1
  Al  Al2  1  0.89448049  0.20520319  0.55666740  1
  Al  Al3  1  0.44400405  0.10468399  0.32292210  1
  Al  Al4  1  0.23024092  0.21043543  0.55527599  1
  Al  Al5  1  0.87562246  0.20391046  0.02544632  1
  Al  Al6  1  0.44922365  0.08982258  0.78882991  1
  Al  Al7  1  0.54768642  0.20829409  0.55842377  1
  Al  Al8  1  0.10781644  0.43498783  0.32028334  1
  Al  Al9  1  0.77812310  0.42718922  0.80625949  1
  Al  Al10  1  0.90142611  0.53513158  0.56939702  1
  Al  Al11  1  0.44090332  0.43814571  0.30865871  1
  Al  Al12  1  0.54846148  0.53010246  0.03455766  1
  Al  Al13  1  0.12019400  0.42944868  0.79317454  1
  Al  Al14  1  0.21892873  0.53757837  0.54634609  1
  Al  Al15  1  0.88864970  0.53855914  0.03427316  1
  Al  Al16  1  0.43405534  0.42369582  0.78751828  1
  Al  Al17  1  0.11042345  0.76173969  0.31190786  1
  Al  Al18  1  0.20831932  0.87960908  0.11896203  1
  Al  Al19  1  0.77580372  0.76272424  0.80432543  1
  Al  Al20  1  0.89387001  0.86780823  0.56057527  1
  Al  Al21  1  0.43614601  0.77302600  0.37358873  1
  Al  Al22  1  0.11220060  0.74920374  0.78548368  1
  Al  Al23  1  0.22826453  0.86547734  0.61189480  1
  Al  Al24  1  0.79452924  0.75592010  0.34387157  1
  Al  Al25  1  0.89677606  0.87603171  0.03810687  1
  Al  Al26  1  0.43417690  0.75882956  0.86226951  1
  Al  Al27  1  0.55936462  0.87997963  0.55568190  1
  Gd  Gd28  1  0.21230564  0.20389358  0.07355695  1
  Gd  Gd29  1  0.55124738  0.20421480  0.03546811  1
  Gd  Gd30  1  0.10892782  0.09757676  0.81616936  1
  Gd  Gd31  1  0.78214976  0.09052261  0.30480128  1
  Gd  Gd32  1  0.20412640  0.55259973  0.06486761  1
  Gd  Gd33  1  0.79130362  0.43684494  0.28520002  1
  Gd  Gd34  1  0.56186664  0.53712854  0.57577965  1
  Gd  Gd35  1  0.56380175  0.84736313  0.08841033  1
  N  N36  1  0.22587565  0.21082826  0.37244174  1
  N  N37  1  0.09223817  0.07467349  0.04134364  1
  N  N38  1  0.85015412  0.21733447  0.84967119  1
  N  N39  1  0.78004723  0.09415957  0.60063345  1
  N  N40  1  0.53130338  0.22672566  0.37812115  1
  N  N41  1  0.45020121  0.09009845  0.15003847  1
  N  N42  1  0.24448495  0.22223963  0.85699857  1
  N  N43  1  0.12017804  0.08723223  0.57612362  1
  N  N44  1  0.91075786  0.20306718  0.37738168  1
  N  N45  1  0.79256589  0.08563016  0.09199452  1
  N  N46  1  0.55550233  0.20042924  0.82069141  1
  N  N47  1  0.44518926  0.09197166  0.60626374  1
  N  N48  1  0.22235396  0.54258275  0.35942439  1
  N  N49  1  0.06118941  0.44180209  0.14673584  1
  N  N50  1  0.89885462  0.53350693  0.85130992  1
  N  N51  1  0.81772760  0.40830982  0.62571141  1
  N  N52  1  0.54049386  0.55264915  0.35775239  1
  N  N53  1  0.45610747  0.43492808  0.12842863  1
  N  N54  1  0.21986467  0.54082686  0.84649392  1
  N  N55  1  0.11808602  0.42565054  0.61122525  1
  N  N56  1  0.90399248  0.54869260  0.39196403  1
  N  N57  1  0.76838266  0.43427561  0.06643937  1
  N  N58  1  0.55234726  0.53093758  0.83862496  1
  N  N59  1  0.42327696  0.41979089  0.61051775  1
  N  N60  1  0.22840357  0.88279421  0.30900187  1
  N  N61  1  0.08247559  0.79133744  0.13453331  1
  N  N62  1  0.89462166  0.87210428  0.84742327  1
  N  N63  1  0.77637353  0.76238804  0.61706466  1
  N  N64  1  0.57225871  0.87306305  0.36320056  1
  N  N65  1  0.40610840  0.74741933  0.04121460  1
  N  N66  1  0.24050109  0.83992556  0.78814128  1
  N  N67  1  0.11086145  0.75401205  0.60210147  1
  N  N68  1  0.90800424  0.84971506  0.38352108  1
  N  N69  1  0.81610714  0.74558529  0.08324004  1
  N  N70  1  0.55286281  0.87231852  0.85122206  1
  N  N71  1  0.42726451  0.79584438  0.55085699  1
