# generated using pymatgen
data_Gd2Al7N9
_symmetry_space_group_name_H-M   'P 1'
_cell_length_a   9.87178205
_cell_length_b   9.85997345
_cell_length_c   10.47656905
_cell_angle_alpha   89.92246163
_cell_angle_beta   89.59590585
_cell_angle_gamma   60.08172080
_symmetry_Int_Tables_number   1
_chemical_formula_structural   Gd2Al7N9
_chemical_formula_sum   'Gd8 Al28 N36'
_cell_volume   883.82422474
_cell_formula_units_Z   4
loop_
 _symmetry_equiv_pos_site_id
 _symmetry_equiv_pos_as_xyz
  1  'x, y, z'
loop_
 _atom_site_type_symbol
 _atom_site_label
 _atom_site_symmetry_multiplicity
 _atom_site_fract_x
 _atom_site_fract_y
 _atom_site_fract_z
 _atom_site_occupancy
  Al  Al0  1  0.11892534  0.09022114  0.35012424  1
  Al  Al1  1  0.77513566  0.09251609  0.78612345  1
  Al  Al2  1  0.89672485  0.20572689  0.55639186  1
  Al  Al3  1  0.44267500  0.09740585  0.32244007  1
  Al  Al4  1  0.22487979  0.20985795  0.54954455  1
  Al  Al5  1  0.88299042  0.20170853  0.03347545  1
  Al  Al6  1  0.44745788  0.09380586  0.78075131  1
  Al  Al7  1  0.54675907  0.20843390  0.55825882  1
  Al  Al8  1  0.10528769  0.43635446  0.31907495  1
  Al  Al9  1  0.78036062  0.42763020  0.81299785  1
  Al  Al10  1  0.89802918  0.53824294  0.56237314  1
  Al  Al11  1  0.43785116  0.43482223  0.30943939  1
  Al  Al12  1  0.54723444  0.54341328  0.04156462  1
  Al  Al13  1  0.11675798  0.43005774  0.78968129  1
  Al  Al14  1  0.21897790  0.54006387  0.54880755  1
  Al  Al15  1  0.88732537  0.54356765  0.04280315  1
  Al  Al16  1  0.43544059  0.42661741  0.78775153  1
  Al  Al17  1  0.11110470  0.76192661  0.31033042  1
  Al  Al18  1  0.21302156  0.86764910  0.05683782  1
  Al  Al19  1  0.77948732  0.76226823  0.79644922  1
  Al  Al20  1  0.89449249  0.86421799  0.55712702  1
  Al  Al21  1  0.43562466  0.75990316  0.30242172  1
  Al  Al22  1  0.11586986  0.75176661  0.79669710  1
  Al  Al23  1  0.22345753  0.87021295  0.54983435  1
  Al  Al24  1  0.79351136  0.75304137  0.31259935  1
  Al  Al25  1  0.89617689  0.87294318  0.04907158  1
  Al  Al26  1  0.44120020  0.76225895  0.80190581  1
  Al  Al27  1  0.55511782  0.87460248  0.55316447  1
  Gd  Gd28  1  0.21581740  0.20710575  0.06758270  1
  Gd  Gd29  1  0.55609811  0.20837312  0.03564462  1
  Gd  Gd30  1  0.11631003  0.08517763  0.80158399  1
  Gd  Gd31  1  0.77828999  0.08839762  0.31054305  1
  Gd  Gd32  1  0.21008188  0.54700327  0.06282647  1
  Gd  Gd33  1  0.78579977  0.43475906  0.28505312  1
  Gd  Gd34  1  0.56190963  0.54028056  0.56740202  1
  Gd  Gd35  1  0.56240979  0.86251604  0.06061376  1
  N  N36  1  0.22128489  0.20965705  0.36339237  1
  N  N37  1  0.09101471  0.08262874  0.08620267  1
  N  N38  1  0.86082153  0.21227624  0.85370182  1
  N  N39  1  0.78227709  0.09154650  0.59954851  1
  N  N40  1  0.52665734  0.22541560  0.37667111  1
  N  N41  1  0.45394313  0.09282164  0.14611976  1
  N  N42  1  0.24000514  0.21914140  0.84660848  1
  N  N43  1  0.11818479  0.09111170  0.58139176  1
  N  N44  1  0.90694963  0.20388632  0.37647272  1
  N  N45  1  0.79582872  0.08404497  0.09555897  1
  N  N46  1  0.55628546  0.20239231  0.81784783  1
  N  N47  1  0.44318730  0.09214042  0.59785511  1
  N  N48  1  0.22040732  0.54275840  0.35952996  1
  N  N49  1  0.06767847  0.44274672  0.14212396  1
  N  N50  1  0.89631497  0.54229235  0.85741997  1
  N  N51  1  0.81629187  0.41058664  0.62764825  1
  N  N52  1  0.53629210  0.55067940  0.35698032  1
  N  N53  1  0.45818484  0.43825470  0.12671143  1
  N  N54  1  0.22103762  0.53710862  0.84301727  1
  N  N55  1  0.11530805  0.42832699  0.60564078  1
  N  N56  1  0.89871272  0.55092390  0.38398224  1
  N  N57  1  0.77082406  0.43473959  0.06517122  1
  N  N58  1  0.55043209  0.53948752  0.84607058  1
  N  N59  1  0.42605127  0.42152016  0.60938146  1
  N  N60  1  0.22368015  0.86882899  0.36582566  1
  N  N61  1  0.09293415  0.78822453  0.12937828  1
  N  N62  1  0.89195214  0.86961910  0.85578745  1
  N  N63  1  0.77744406  0.76137266  0.61410176  1
  N  N64  1  0.56089047  0.86457562  0.36287522  1
  N  N65  1  0.42431343  0.75001696  0.11831768  1
  N  N66  1  0.23615215  0.83489271  0.87260530  1
  N  N67  1  0.11419170  0.76137531  0.61104077  1
  N  N68  1  0.90691105  0.84393360  0.37856484  1
  N  N69  1  0.81065026  0.74791074  0.12214021  1
  N  N70  1  0.55472761  0.87586023  0.84151952  1
  N  N71  1  0.42482501  0.79484225  0.62089355  1
