# generated using pymatgen
data_Gd2Al7N9
_symmetry_space_group_name_H-M   'P 1'
_cell_length_a   9.91960333
_cell_length_b   9.88050024
_cell_length_c   10.48414681
_cell_angle_alpha   89.19917282
_cell_angle_beta   88.86408707
_cell_angle_gamma   60.21739516
_symmetry_Int_Tables_number   1
_chemical_formula_structural   Gd2Al7N9
_chemical_formula_sum   'Gd8 Al28 N36'
_cell_volume   891.64894972
_cell_formula_units_Z   4
loop_
 _symmetry_equiv_pos_site_id
 _symmetry_equiv_pos_as_xyz
  1  'x, y, z'
loop_
 _atom_site_type_symbol
 _atom_site_label
 _atom_site_symmetry_multiplicity
 _atom_site_fract_x
 _atom_site_fract_y
 _atom_site_fract_z
 _atom_site_occupancy
  Al  Al0  1  0.12151072  0.09463900  0.38525685  1
  Al  Al1  1  0.77047502  0.09217567  0.78584828  1
  Al  Al2  1  0.89272985  0.20910618  0.56006211  1
  Al  Al3  1  0.44275619  0.10171462  0.32375262  1
  Al  Al4  1  0.22907677  0.21424839  0.55669988  1
  Al  Al5  1  0.87781682  0.20175304  0.02629082  1
  Al  Al6  1  0.44633260  0.09340274  0.78570378  1
  Al  Al7  1  0.54582493  0.20867837  0.55759908  1
  Al  Al8  1  0.10636352  0.43713142  0.31945181  1
  Al  Al9  1  0.77994074  0.42731394  0.81111646  1
  Al  Al10  1  0.89931607  0.53943999  0.56293942  1
  Al  Al11  1  0.44006002  0.43844454  0.31071530  1
  Al  Al12  1  0.55200816  0.53458724  0.03221579  1
  Al  Al13  1  0.11629225  0.43063310  0.79306078  1
  Al  Al14  1  0.21825688  0.53985529  0.54690431  1
  Al  Al15  1  0.88963302  0.54161782  0.04218990  1
  Al  Al16  1  0.43200717  0.42199247  0.78876531  1
  Al  Al17  1  0.11489040  0.76600902  0.30841996  1
  Al  Al18  1  0.20961661  0.86442557  0.03460080  1
  Al  Al19  1  0.77848625  0.76233176  0.79779681  1
  Al  Al20  1  0.89431729  0.86417644  0.55506647  1
  Al  Al21  1  0.44116076  0.76946304  0.35446562  1
  Al  Al22  1  0.10994483  0.74957672  0.79252838  1
  Al  Al23  1  0.22200050  0.86673929  0.56185889  1
  Al  Al24  1  0.79891623  0.75386925  0.31162321  1
  Al  Al25  1  0.89693719  0.87159952  0.05004285  1
  Al  Al26  1  0.44104120  0.75836262  0.81825956  1
  Al  Al27  1  0.55977964  0.87616912  0.56063013  1
  Gd  Gd28  1  0.21203246  0.20251666  0.07133771  1
  Gd  Gd29  1  0.55677321  0.20414152  0.04099818  1
  Gd  Gd30  1  0.10792608  0.09313540  0.80717660  1
  Gd  Gd31  1  0.78181117  0.09283667  0.31265451  1
  Gd  Gd32  1  0.21547367  0.54503944  0.06724573  1
  Gd  Gd33  1  0.78488770  0.43993108  0.28537634  1
  Gd  Gd34  1  0.56418530  0.53398351  0.57910687  1
  Gd  Gd35  1  0.56159559  0.85799568  0.06449843  1
  N  N36  1  0.22397960  0.21304963  0.37054219  1
  N  N37  1  0.08983781  0.07903958  0.04128388  1
  N  N38  1  0.84954595  0.21573333  0.84796444  1
  N  N39  1  0.78005970  0.09232678  0.59858061  1
  N  N40  1  0.52865986  0.22716955  0.37617505  1
  N  N41  1  0.44906823  0.09024833  0.14823547  1
  N  N42  1  0.24012489  0.22066244  0.84946254  1
  N  N43  1  0.11796524  0.09216434  0.57877311  1
  N  N44  1  0.90864791  0.20921281  0.37860741  1
  N  N45  1  0.79688897  0.08188632  0.09818970  1
  N  N46  1  0.55420106  0.20041181  0.82272916  1
  N  N47  1  0.44446508  0.09265197  0.60258189  1
  N  N48  1  0.22168180  0.54487856  0.35714610  1
  N  N49  1  0.06837682  0.44078245  0.14257699  1
  N  N50  1  0.89516511  0.54184180  0.85699913  1
  N  N51  1  0.81941122  0.41124300  0.62758374  1
  N  N52  1  0.53644214  0.55526950  0.36324954  1
  N  N53  1  0.46491769  0.43410937  0.12929940  1
  N  N54  1  0.21893055  0.53720099  0.84690294  1
  N  N55  1  0.11441527  0.43038572  0.60840854  1
  N  N56  1  0.90047366  0.55276049  0.38446380  1
  N  N57  1  0.77280279  0.43149401  0.06360288  1
  N  N58  1  0.55201475  0.53093647  0.83663375  1
  N  N59  1  0.42193881  0.41897360  0.61005066  1
  N  N60  1  0.22317177  0.87317453  0.37256392  1
  N  N61  1  0.09527214  0.78927368  0.12640667  1
  N  N62  1  0.88892636  0.86954145  0.85603418  1
  N  N63  1  0.77924746  0.76182259  0.61516859  1
  N  N64  1  0.56572773  0.87003719  0.36878990  1
  N  N65  1  0.42204711  0.74478224  0.06107550  1
  N  N66  1  0.22690275  0.83700924  0.84836280  1
  N  N67  1  0.11066936  0.75763838  0.60835940  1
  N  N68  1  0.90946989  0.84668631  0.37602379  1
  N  N69  1  0.81236629  0.74472921  0.12268206  1
  N  N70  1  0.55488510  0.87422508  0.84124158  1
  N  N71  1  0.43040980  0.79051764  0.60913916  1
