# generated using pymatgen
data_Gd2Al7N9
_symmetry_space_group_name_H-M   'P 1'
_cell_length_a   9.76718886
_cell_length_b   9.77082006
_cell_length_c   11.24297414
_cell_angle_alpha   89.61465740
_cell_angle_beta   88.63387358
_cell_angle_gamma   59.94065530
_symmetry_Int_Tables_number   1
_chemical_formula_structural   Gd2Al7N9
_chemical_formula_sum   'Gd8 Al28 N36'
_cell_volume   928.36994654
_cell_formula_units_Z   4
loop_
 _symmetry_equiv_pos_site_id
 _symmetry_equiv_pos_as_xyz
  1  'x, y, z'
loop_
 _atom_site_type_symbol
 _atom_site_label
 _atom_site_symmetry_multiplicity
 _atom_site_fract_x
 _atom_site_fract_y
 _atom_site_fract_z
 _atom_site_occupancy
  Al  Al0  1  0.13409880  0.08288045  0.42443877  1
  Al  Al1  1  0.76478649  0.10000723  0.79486431  1
  Al  Al2  1  0.89595677  0.20384053  0.57328601  1
  Al  Al3  1  0.45221808  0.09709903  0.34225690  1
  Al  Al4  1  0.23567963  0.20445179  0.61394376  1
  Al  Al5  1  0.86311109  0.21151240  0.03187596  1
  Al  Al6  1  0.45280634  0.09839615  0.78542095  1
  Al  Al7  1  0.55750091  0.20114676  0.55901208  1
  Al  Al8  1  0.13329393  0.42883208  0.42026149  1
  Al  Al9  1  0.77085065  0.42662063  0.80745440  1
  Al  Al10  1  0.89626964  0.53388463  0.57927298  1
  Al  Al11  1  0.44821085  0.43697383  0.31673101  1
  Al  Al12  1  0.54422415  0.53388051  0.04228962  1
  Al  Al13  1  0.10597007  0.43548994  0.81310631  1
  Al  Al14  1  0.22091329  0.54524201  0.63512203  1
  Al  Al15  1  0.88738601  0.52969908  0.02393820  1
  Al  Al16  1  0.44392679  0.41755363  0.79940558  1
  Al  Al17  1  0.13591645  0.75521496  0.41070836  1
  Al  Al18  1  0.20672208  0.87552316  0.06297492  1
  Al  Al19  1  0.76832985  0.76580231  0.85959903  1
  Al  Al20  1  0.89541936  0.87582999  0.57695131  1
  Al  Al21  1  0.44028892  0.78064718  0.40144190  1
  Al  Al22  1  0.11269673  0.75570047  0.85895472  1
  Al  Al23  1  0.23266366  0.86439183  0.63519285  1
  Al  Al24  1  0.78442419  0.76123357  0.41575469  1
  Al  Al25  1  0.87652257  0.88973116  0.02011360  1
  Al  Al26  1  0.44390442  0.75566259  0.86454419  1
  Al  Al27  1  0.56378664  0.86500849  0.63164561  1
  Gd  Gd28  1  0.17183607  0.20315453  0.17596821  1
  Gd  Gd29  1  0.52537462  0.21212999  0.05441735  1
  Gd  Gd30  1  0.10860558  0.10121167  0.84215943  1
  Gd  Gd31  1  0.80349451  0.07983985  0.30714135  1
  Gd  Gd32  1  0.17190133  0.57471446  0.15243297  1
  Gd  Gd33  1  0.79280154  0.43922826  0.29898771  1
  Gd  Gd34  1  0.56721712  0.52371203  0.56887220  1
  Gd  Gd35  1  0.56655040  0.83531897  0.14779170  1
  N  N36  1  0.23368996  0.20470490  0.39306058  1
  N  N37  1  0.08800712  0.08856457  0.04815109  1
  N  N38  1  0.84487306  0.22102490  0.86265627  1
  N  N39  1  0.77919137  0.09879888  0.61944374  1
  N  N40  1  0.54771818  0.22084833  0.38564171  1
  N  N41  1  0.43136909  0.09335968  0.17024455  1
  N  N42  1  0.23556993  0.22460121  0.79063550  1
  N  N43  1  0.12051470  0.08693953  0.59913835  1
  N  N44  1  0.91317596  0.20672338  0.39914317  1
  N  N45  1  0.78353784  0.08566823  0.09884421  1
  N  N46  1  0.54948211  0.20182214  0.84824371  1
  N  N47  1  0.46319104  0.08534758  0.61302366  1
  N  N48  1  0.22883598  0.54162838  0.35830494  1
  N  N49  1  0.08656621  0.42512449  0.08398131  1
  N  N50  1  0.88714759  0.53249418  0.85084371  1
  N  N51  1  0.81383266  0.40916719  0.63933755  1
  N  N52  1  0.54351750  0.55636218  0.36769328  1
  N  N53  1  0.44574044  0.44725938  0.14069964  1
  N  N54  1  0.21317287  0.54578138  0.80911678  1
  N  N55  1  0.11765341  0.43296452  0.59557801  1
  N  N56  1  0.90925827  0.54114207  0.40404676  1
  N  N57  1  0.76515360  0.43633935  0.08322401  1
  N  N58  1  0.55026349  0.52822790  0.85665812  1
  N  N59  1  0.43941379  0.40476146  0.63039077  1
  N  N60  1  0.22703435  0.88015395  0.35528721  1
  N  N61  1  0.09587211  0.77879327  0.02906288  1
  N  N62  1  0.88054287  0.88204010  0.84273474  1
  N  N63  1  0.78174504  0.76025593  0.59179247  1
  N  N64  1  0.57664274  0.86382145  0.35645431  1
  N  N65  1  0.42208236  0.75951152  0.03697436  1
  N  N66  1  0.23954642  0.84019237  0.80326621  1
  N  N67  1  0.12558399  0.75825134  0.58379608  1
  N  N68  1  0.91115409  0.85364651  0.40077165  1
  N  N69  1  0.78569910  0.75843582  0.03525133  1
  N  N70  1  0.55259928  0.86620645  0.80812271  1
  N  N71  1  0.43872196  0.78616679  0.57314674  1
