# generated using pymatgen
data_Gd2Al7N9
_symmetry_space_group_name_H-M   'P 1'
_cell_length_a   9.81839289
_cell_length_b   9.85286226
_cell_length_c   10.68629079
_cell_angle_alpha   90.01352513
_cell_angle_beta   88.98385215
_cell_angle_gamma   60.30776418
_symmetry_Int_Tables_number   1
_chemical_formula_structural   Gd2Al7N9
_chemical_formula_sum   'Gd8 Al28 N36'
_cell_volume   897.85710568
_cell_formula_units_Z   4
loop_
 _symmetry_equiv_pos_site_id
 _symmetry_equiv_pos_as_xyz
  1  'x, y, z'
loop_
 _atom_site_type_symbol
 _atom_site_label
 _atom_site_symmetry_multiplicity
 _atom_site_fract_x
 _atom_site_fract_y
 _atom_site_fract_z
 _atom_site_occupancy
  Al  Al0  1  0.13088684  0.08082322  0.42984431  1
  Al  Al1  1  0.77898651  0.09467443  0.82726041  1
  Al  Al2  1  0.90057006  0.20316468  0.59853710  1
  Al  Al3  1  0.44798767  0.09779649  0.41750582  1
  Al  Al4  1  0.23415725  0.20642362  0.64464349  1
  Al  Al5  1  0.87720563  0.20548359  0.07165851  1
  Al  Al6  1  0.44613866  0.08996951  0.88804960  1
  Al  Al7  1  0.55127613  0.19838501  0.66104043  1
  Al  Al8  1  0.12094654  0.42513221  0.43352949  1
  Al  Al9  1  0.76918417  0.42188768  0.84083449  1
  Al  Al10  1  0.89762163  0.53700616  0.66368641  1
  Al  Al11  1  0.43473683  0.44382760  0.33175874  1
  Al  Al12  1  0.53347035  0.54860096  0.06844873  1
  Al  Al13  1  0.12435192  0.42453854  0.88396215  1
  Al  Al14  1  0.21217350  0.54450377  0.65079256  1
  Al  Al15  1  0.87851646  0.53725130  0.04483372  1
  Al  Al16  1  0.43240314  0.43228222  0.83077577  1
  Al  Al17  1  0.12496670  0.75368333  0.41268366  1
  Al  Al18  1  0.21045814  0.87662924  0.14766249  1
  Al  Al19  1  0.77751292  0.77494158  0.88649016  1
  Al  Al20  1  0.89831820  0.86368101  0.65316010  1
  Al  Al21  1  0.44180652  0.77558385  0.40891200  1
  Al  Al22  1  0.11139097  0.76080205  0.89757884  1
  Al  Al23  1  0.22750730  0.86719949  0.65247499  1
  Al  Al24  1  0.80202871  0.74209732  0.40942172  1
  Al  Al25  1  0.89341293  0.87965857  0.14228443  1
  Al  Al26  1  0.44085559  0.76004137  0.88973498  1
  Al  Al27  1  0.55969381  0.87483116  0.64618855  1
  Gd  Gd28  1  0.20737116  0.21054331  0.17185123  1
  Gd  Gd29  1  0.54673631  0.22315228  0.10768201  1
  Gd  Gd30  1  0.12324380  0.08940978  0.88101590  1
  Gd  Gd31  1  0.77751528  0.08138409  0.37440695  1
  Gd  Gd32  1  0.14786419  0.57510536  0.17545592  1
  Gd  Gd33  1  0.79098492  0.42203322  0.31668768  1
  Gd  Gd34  1  0.56012770  0.53231430  0.59829342  1
  Gd  Gd35  1  0.56591361  0.85652750  0.15115163  1
  N  N36  1  0.22812399  0.20037849  0.39441564  1
  N  N37  1  0.09407149  0.08904085  0.09717425  1
  N  N38  1  0.85816905  0.21338607  0.89407553  1
  N  N39  1  0.77958714  0.09535332  0.63835470  1
  N  N40  1  0.51889777  0.22180914  0.33535747  1
  N  N41  1  0.43004069  0.08526087  0.06267300  1
  N  N42  1  0.24600031  0.21977631  0.82070913  1
  N  N43  1  0.12380649  0.08587862  0.61946543  1
  N  N44  1  0.91398485  0.19668355  0.42254031  1
  N  N45  1  0.79658991  0.09457354  0.15429561  1
  N  N46  1  0.55723125  0.20064192  0.85195065  1
  N  N47  1  0.45869454  0.08945146  0.59750865  1
  N  N48  1  0.22737724  0.53586011  0.38660526  1
  N  N49  1  0.09138954  0.42087887  0.05600930  1
  N  N50  1  0.88312177  0.54507005  0.85435667  1
  N  N51  1  0.80878734  0.40654649  0.66366759  1
  N  N52  1  0.53996880  0.55316166  0.38748704  1
  N  N53  1  0.41591338  0.47672995  0.15213412  1
  N  N54  1  0.20827510  0.55147466  0.83914060  1
  N  N55  1  0.10939658  0.43053961  0.61101518  1
  N  N56  1  0.92402646  0.53449685  0.36203613  1
  N  N57  1  0.76134421  0.44019381  0.09703979  1
  N  N58  1  0.54856645  0.53344806  0.87845014  1
  N  N59  1  0.43009728  0.41269216  0.65296204  1
  N  N60  1  0.22819751  0.87367551  0.34365375  1
  N  N61  1  0.09476532  0.79313970  0.07327530  1
  N  N62  1  0.89499296  0.87103011  0.83228039  1
  N  N63  1  0.78786815  0.75516809  0.59880673  1
  N  N64  1  0.57252325  0.87071318  0.36779187  1
  N  N65  1  0.41751768  0.76744810  0.06925103  1
  N  N66  1  0.23983597  0.83672219  0.82547529  1
  N  N67  1  0.11211201  0.76576453  0.59297916  1
  N  N68  1  0.92748841  0.82263368  0.32559855  1
  N  N69  1  0.80826409  0.75582512  0.06478452  1
  N  N70  1  0.55827842  0.86811287  0.83230155  1
  N  N71  1  0.43175093  0.79476494  0.58793856  1
