# generated using pymatgen
data_Gd2Al7N9
_symmetry_space_group_name_H-M   'P 1'
_cell_length_a   9.87705870
_cell_length_b   9.86339609
_cell_length_c   10.48963017
_cell_angle_alpha   89.82352384
_cell_angle_beta   89.44273306
_cell_angle_gamma   60.11023695
_symmetry_Int_Tables_number   1
_chemical_formula_structural   Gd2Al7N9
_chemical_formula_sum   'Gd8 Al28 N36'
_cell_volume   885.94105048
_cell_formula_units_Z   4
loop_
 _symmetry_equiv_pos_site_id
 _symmetry_equiv_pos_as_xyz
  1  'x, y, z'
loop_
 _atom_site_type_symbol
 _atom_site_label
 _atom_site_symmetry_multiplicity
 _atom_site_fract_x
 _atom_site_fract_y
 _atom_site_fract_z
 _atom_site_occupancy
  Al  Al0  1  0.12084400  0.09102200  0.37769576  1
  Al  Al1  1  0.77332842  0.09271206  0.78549358  1
  Al  Al2  1  0.89351986  0.20731977  0.55933052  1
  Al  Al3  1  0.44309399  0.09744635  0.32265492  1
  Al  Al4  1  0.22764200  0.21248342  0.55328357  1
  Al  Al5  1  0.87987611  0.20359007  0.02785079  1
  Al  Al6  1  0.44734490  0.09360567  0.78191795  1
  Al  Al7  1  0.54711089  0.20841526  0.55785232  1
  Al  Al8  1  0.10537075  0.43646781  0.31975086  1
  Al  Al9  1  0.77891241  0.42889471  0.81178391  1
  Al  Al10  1  0.89799778  0.53889303  0.56243171  1
  Al  Al11  1  0.43801413  0.43505485  0.30881925  1
  Al  Al12  1  0.54657114  0.54370991  0.04146091  1
  Al  Al13  1  0.11659352  0.42975425  0.79091386  1
  Al  Al14  1  0.21920078  0.53993138  0.54868556  1
  Al  Al15  1  0.88691618  0.54352014  0.04253048  1
  Al  Al16  1  0.43535411  0.42647778  0.78816939  1
  Al  Al17  1  0.11165009  0.76316743  0.31054969  1
  Al  Al18  1  0.21385424  0.86602166  0.05162868  1
  Al  Al19  1  0.77950185  0.76235875  0.79658772  1
  Al  Al20  1  0.89433186  0.86405972  0.55675361  1
  Al  Al21  1  0.43493018  0.76073451  0.30213130  1
  Al  Al22  1  0.11606509  0.74994454  0.79639371  1
  Al  Al23  1  0.22580016  0.86555506  0.55301966  1
  Al  Al24  1  0.79385651  0.75332503  0.31240079  1
  Al  Al25  1  0.89646216  0.87432569  0.04918582  1
  Al  Al26  1  0.44264601  0.76056042  0.80121235  1
  Al  Al27  1  0.55574537  0.87447113  0.55314139  1
  Gd  Gd28  1  0.21478261  0.20582134  0.06935195  1
  Gd  Gd29  1  0.55564468  0.20840421  0.03643272  1
  Gd  Gd30  1  0.11527153  0.08378933  0.80706322  1
  Gd  Gd31  1  0.77977285  0.08889411  0.31060877  1
  Gd  Gd32  1  0.20821841  0.54779727  0.06375017  1
  Gd  Gd33  1  0.78803229  0.43370352  0.28452633  1
  Gd  Gd34  1  0.56229400  0.53975557  0.56579877  1
  Gd  Gd35  1  0.56295492  0.86220688  0.06044689  1
  N  N36  1  0.22239291  0.21082980  0.36665597  1
  N  N37  1  0.09153779  0.08132773  0.05511471  1
  N  N38  1  0.85619803  0.21468605  0.84881723  1
  N  N39  1  0.78149850  0.09122578  0.59941461  1
  N  N40  1  0.52742140  0.22547195  0.37637258  1
  N  N41  1  0.45403609  0.09188313  0.14651510  1
  N  N42  1  0.23996081  0.21901298  0.84706167  1
  N  N43  1  0.11916723  0.09071191  0.57751746  1
  N  N44  1  0.90692482  0.20460884  0.37860537  1
  N  N45  1  0.79586212  0.08568855  0.09587714  1
  N  N46  1  0.55538650  0.20235971  0.81882314  1
  N  N47  1  0.44447698  0.09178136  0.59906083  1
  N  N48  1  0.22048227  0.54321198  0.35946467  1
  N  N49  1  0.06597337  0.44221472  0.14312033  1
  N  N50  1  0.89587768  0.54247060  0.85735890  1
  N  N51  1  0.81552004  0.41218436  0.62721394  1
  N  N52  1  0.53716171  0.55056670  0.35541198  1
  N  N53  1  0.45639732  0.43899425  0.12614050  1
  N  N54  1  0.22092376  0.53611906  0.84407672  1
  N  N55  1  0.11494039  0.42947402  0.60690973  1
  N  N56  1  0.89875144  0.55139788  0.38435866  1
  N  N57  1  0.77013721  0.43470202  0.06457251  1
  N  N58  1  0.55066657  0.53904127  0.84604517  1
  N  N59  1  0.42606354  0.42137998  0.60955640  1
  N  N60  1  0.22421293  0.86877016  0.36854588  1
  N  N61  1  0.09331630  0.79009290  0.12961657  1
  N  N62  1  0.89189282  0.86990753  0.85588517  1
  N  N63  1  0.77760884  0.76159900  0.61429046  1
  N  N64  1  0.56111374  0.86485694  0.36318771  1
  N  N65  1  0.42321913  0.75105819  0.11772591  1
  N  N66  1  0.23884753  0.82955326  0.86858602  1
  N  N67  1  0.11374907  0.76026959  0.61126829  1
  N  N68  1  0.90713297  0.84430584  0.37838452  1
  N  N69  1  0.81135732  0.74810711  0.12195042  1
  N  N70  1  0.55480629  0.87532485  0.84155936  1
  N  N71  1  0.42672002  0.79340569  0.62071611  1
