# generated using pymatgen
data_Gd2Al7N9
_symmetry_space_group_name_H-M   'P 1'
_cell_length_a   9.83729887
_cell_length_b   9.85638030
_cell_length_c   10.66672760
_cell_angle_alpha   90.08142602
_cell_angle_beta   89.12012864
_cell_angle_gamma   60.31721852
_symmetry_Int_Tables_number   1
_chemical_formula_structural   Gd2Al7N9
_chemical_formula_sum   'Gd8 Al28 N36'
_cell_volume   898.37957334
_cell_formula_units_Z   4
loop_
 _symmetry_equiv_pos_site_id
 _symmetry_equiv_pos_as_xyz
  1  'x, y, z'
loop_
 _atom_site_type_symbol
 _atom_site_label
 _atom_site_symmetry_multiplicity
 _atom_site_fract_x
 _atom_site_fract_y
 _atom_site_fract_z
 _atom_site_occupancy
  Al  Al0  1  0.12983111  0.08087020  0.42961676  1
  Al  Al1  1  0.77888742  0.09523350  0.82713986  1
  Al  Al2  1  0.90018169  0.20393112  0.59860728  1
  Al  Al3  1  0.44690390  0.09746298  0.41760343  1
  Al  Al4  1  0.23381827  0.20721727  0.64352272  1
  Al  Al5  1  0.87945890  0.20441223  0.07252275  1
  Al  Al6  1  0.44597759  0.09020051  0.88819722  1
  Al  Al7  1  0.55027982  0.19914048  0.66145941  1
  Al  Al8  1  0.11883634  0.42663401  0.43279165  1
  Al  Al9  1  0.76990089  0.42251298  0.84133180  1
  Al  Al10  1  0.89700553  0.53772085  0.66218805  1
  Al  Al11  1  0.43506946  0.44195153  0.33181859  1
  Al  Al12  1  0.53671838  0.54746819  0.06739132  1
  Al  Al13  1  0.12368344  0.42482730  0.88333561  1
  Al  Al14  1  0.21136024  0.54526632  0.65321403  1
  Al  Al15  1  0.87985447  0.53763353  0.04574441  1
  Al  Al16  1  0.43256715  0.43238051  0.83222197  1
  Al  Al17  1  0.12344531  0.75235261  0.41151539  1
  Al  Al18  1  0.21119346  0.87755691  0.14772100  1
  Al  Al19  1  0.77793611  0.77520108  0.88660967  1
  Al  Al20  1  0.89778035  0.86401080  0.65298142  1
  Al  Al21  1  0.44013666  0.77509852  0.40909733  1
  Al  Al22  1  0.11047340  0.76288869  0.89777218  1
  Al  Al23  1  0.22683410  0.86732446  0.65217530  1
  Al  Al24  1  0.79912022  0.74289102  0.41084427  1
  Al  Al25  1  0.89525066  0.87783784  0.14553843  1
  Al  Al26  1  0.44040822  0.76087420  0.88997196  1
  Al  Al27  1  0.55866511  0.87552084  0.64677697  1
  Gd  Gd28  1  0.20936978  0.21002638  0.17196377  1
  Gd  Gd29  1  0.55158987  0.21916060  0.10746948  1
  Gd  Gd30  1  0.12236271  0.09102339  0.87931888  1
  Gd  Gd31  1  0.77659434  0.08124962  0.37704901  1
  Gd  Gd32  1  0.15741346  0.57160828  0.16862119  1
  Gd  Gd33  1  0.78844495  0.42204708  0.31771323  1
  Gd  Gd34  1  0.55910502  0.53309679  0.60033383  1
  Gd  Gd35  1  0.56715660  0.85543640  0.15104473  1
  N  N36  1  0.22685501  0.20089076  0.39545923  1
  N  N37  1  0.09622812  0.08901332  0.09611985  1
  N  N38  1  0.85771205  0.21390991  0.89464067  1
  N  N39  1  0.77869196  0.09623610  0.63813923  1
  N  N40  1  0.51865392  0.22045408  0.33531419  1
  N  N41  1  0.43152795  0.08445088  0.06302236  1
  N  N42  1  0.24637043  0.22030104  0.82019750  1
  N  N43  1  0.12308616  0.08621943  0.61987444  1
  N  N44  1  0.91360453  0.19636997  0.42261077  1
  N  N45  1  0.80013618  0.09338335  0.15675526  1
  N  N46  1  0.55754616  0.20059306  0.85247592  1
  N  N47  1  0.45819679  0.08986599  0.59772668  1
  N  N48  1  0.22584309  0.53514479  0.38148588  1
  N  N49  1  0.09213115  0.41971708  0.05575223  1
  N  N50  1  0.88369780  0.54551132  0.85418543  1
  N  N51  1  0.80862432  0.40700368  0.66375476  1
  N  N52  1  0.53766398  0.55251125  0.38904689  1
  N  N53  1  0.42210857  0.47257469  0.15032848  1
  N  N54  1  0.20844902  0.55213064  0.84160418  1
  N  N55  1  0.10923414  0.43190617  0.61117730  1
  N  N56  1  0.91868457  0.53468610  0.36796723  1
  N  N57  1  0.76321079  0.44031929  0.09692284  1
  N  N58  1  0.54919504  0.53408736  0.87764370  1
  N  N59  1  0.42874024  0.41349952  0.65394915  1
  N  N60  1  0.22685047  0.87343193  0.34361991  1
  N  N61  1  0.09486498  0.79480956  0.07370974  1
  N  N62  1  0.89499613  0.87169146  0.83222362  1
  N  N63  1  0.78605933  0.75689347  0.59981098  1
  N  N64  1  0.57016628  0.87065336  0.36802556  1
  N  N65  1  0.41838215  0.76640268  0.06982430  1
  N  N66  1  0.23938785  0.83757190  0.82570724  1
  N  N67  1  0.11182257  0.76490937  0.59267670  1
  N  N68  1  0.92475134  0.82284781  0.32773765  1
  N  N69  1  0.80937538  0.75601345  0.06516069  1
  N  N70  1  0.55818463  0.86836804  0.83290528  1
  N  N71  1  0.43072976  0.79536675  0.58843076  1
