# generated using pymatgen
data_Gd2Al7N9
_symmetry_space_group_name_H-M   'P 1'
_cell_length_a   9.83140631
_cell_length_b   9.74785956
_cell_length_c   11.16558637
_cell_angle_alpha   88.97519803
_cell_angle_beta   89.08515280
_cell_angle_gamma   59.93779350
_symmetry_Int_Tables_number   1
_chemical_formula_structural   Gd2Al7N9
_chemical_formula_sum   'Gd8 Al28 N36'
_cell_volume   925.93562374
_cell_formula_units_Z   4
loop_
 _symmetry_equiv_pos_site_id
 _symmetry_equiv_pos_as_xyz
  1  'x, y, z'
loop_
 _atom_site_type_symbol
 _atom_site_label
 _atom_site_symmetry_multiplicity
 _atom_site_fract_x
 _atom_site_fract_y
 _atom_site_fract_z
 _atom_site_occupancy
  Al  Al0  1  0.12824976  0.08969719  0.42839128  1
  Al  Al1  1  0.76707521  0.09630404  0.79387877  1
  Al  Al2  1  0.89380549  0.20835783  0.57565194  1
  Al  Al3  1  0.44711920  0.10607812  0.34447497  1
  Al  Al4  1  0.23450198  0.21220716  0.60665249  1
  Al  Al5  1  0.86845956  0.20403059  0.02986116  1
  Al  Al6  1  0.45460114  0.09542349  0.78696628  1
  Al  Al7  1  0.55474959  0.20550574  0.55998174  1
  Al  Al8  1  0.10606542  0.44271466  0.35569953  1
  Al  Al9  1  0.77455751  0.42579765  0.81185381  1
  Al  Al10  1  0.90075677  0.53491483  0.57827095  1
  Al  Al11  1  0.44449108  0.44399326  0.31210585  1
  Al  Al12  1  0.55099737  0.52876834  0.03912070  1
  Al  Al13  1  0.10781144  0.43216498  0.79675816  1
  Al  Al14  1  0.22079086  0.54625540  0.63437817  1
  Al  Al15  1  0.88774102  0.52434237  0.04266834  1
  Al  Al16  1  0.44716584  0.41646691  0.79963360  1
  Al  Al17  1  0.12984161  0.76090130  0.40055378  1
  Al  Al18  1  0.21249135  0.86917421  0.05542793  1
  Al  Al19  1  0.77537157  0.75733209  0.86369205  1
  Al  Al20  1  0.89626551  0.87693724  0.57534139  1
  Al  Al21  1  0.43467362  0.78747372  0.39971463  1
  Al  Al22  1  0.11515279  0.75276753  0.85789158  1
  Al  Al23  1  0.23452691  0.86292020  0.63375488  1
  Al  Al24  1  0.77785015  0.76881011  0.41724564  1
  Al  Al25  1  0.88410798  0.88160931  0.02358482  1
  Al  Al26  1  0.44745358  0.75459979  0.86302011  1
  Al  Al27  1  0.56474830  0.86645008  0.63154374  1
  Gd  Gd28  1  0.17781432  0.17368495  0.18215347  1
  Gd  Gd29  1  0.54168866  0.20030621  0.05144780  1
  Gd  Gd30  1  0.10619992  0.10256960  0.83341049  1
  Gd  Gd31  1  0.79572443  0.08885118  0.30980696  1
  Gd  Gd32  1  0.19374703  0.54689805  0.12716611  1
  Gd  Gd33  1  0.79310168  0.44261613  0.29589428  1
  Gd  Gd34  1  0.56955550  0.52530266  0.56708780  1
  Gd  Gd35  1  0.56662200  0.83900211  0.14846806  1
  N  N36  1  0.22686186  0.21422979  0.39512007  1
  N  N37  1  0.09120062  0.08281308  0.04064057  1
  N  N38  1  0.84401893  0.21806750  0.86183816  1
  N  N39  1  0.77904595  0.10035346  0.61823487  1
  N  N40  1  0.54103545  0.22968483  0.38617926  1
  N  N41  1  0.42823950  0.10067898  0.16919673  1
  N  N42  1  0.24252189  0.21829575  0.80127470  1
  N  N43  1  0.11970592  0.08940215  0.60086020  1
  N  N44  1  0.90960332  0.21217810  0.40080435  1
  N  N45  1  0.79404343  0.07568548  0.10139249  1
  N  N46  1  0.55482189  0.19755408  0.84575488  1
  N  N47  1  0.46030221  0.08903547  0.61271824  1
  N  N48  1  0.21916121  0.55373855  0.33388229  1
  N  N49  1  0.04014848  0.43758974  0.17082617  1
  N  N50  1  0.90062157  0.52061222  0.86610167  1
  N  N51  1  0.81503626  0.41241043  0.64258767  1
  N  N52  1  0.53672858  0.56493906  0.36350302  1
  N  N53  1  0.45975075  0.43455665  0.13537361  1
  N  N54  1  0.21950718  0.54057886  0.81637915  1
  N  N55  1  0.10982987  0.43884073  0.62017289  1
  N  N56  1  0.89905089  0.54934136  0.40881399  1
  N  N57  1  0.76713554  0.42612528  0.08215496  1
  N  N58  1  0.55402367  0.52746104  0.85579058  1
  N  N59  1  0.43802831  0.40960838  0.62915006  1
  N  N60  1  0.22091121  0.89286111  0.35128816  1
  N  N61  1  0.10111711  0.77221013  0.02972467  1
  N  N62  1  0.88458516  0.87650846  0.84408028  1
  N  N63  1  0.78074925  0.76418992  0.59318809  1
  N  N64  1  0.57000347  0.87276110  0.35770962  1
  N  N65  1  0.42726021  0.75613363  0.03735639  1
  N  N66  1  0.24157885  0.83829198  0.80373008  1
  N  N67  1  0.12754977  0.75837077  0.57825896  1
  N  N68  1  0.90589483  0.85936864  0.40011323  1
  N  N69  1  0.79006653  0.75373209  0.04080008  1
  N  N70  1  0.55968276  0.86083039  0.80899746  1
  N  N71  1  0.43805388  0.78842293  0.57291567  1
