# generated using pymatgen
data_Gd2Al7N9
_symmetry_space_group_name_H-M   'P 1'
_cell_length_a   9.87553780
_cell_length_b   9.85697093
_cell_length_c   10.43291122
_cell_angle_alpha   90.44039598
_cell_angle_beta   90.33299138
_cell_angle_gamma   60.03236731
_symmetry_Int_Tables_number   1
_chemical_formula_structural   Gd2Al7N9
_chemical_formula_sum   'Gd8 Al28 N36'
_cell_volume   879.76762159
_cell_formula_units_Z   4
loop_
 _symmetry_equiv_pos_site_id
 _symmetry_equiv_pos_as_xyz
  1  'x, y, z'
loop_
 _atom_site_type_symbol
 _atom_site_label
 _atom_site_symmetry_multiplicity
 _atom_site_fract_x
 _atom_site_fract_y
 _atom_site_fract_z
 _atom_site_occupancy
  Al  Al0  1  0.11462223  0.08625793  0.42994252  1
  Al  Al1  1  0.78144690  0.09362358  0.90351935  1
  Al  Al2  1  0.88751489  0.20868938  0.67153454  1
  Al  Al3  1  0.44472110  0.09186799  0.43564311  1
  Al  Al4  1  0.22474964  0.21120530  0.64447900  1
  Al  Al5  1  0.89895222  0.19415655  0.15623815  1
  Al  Al6  1  0.44411223  0.09805537  0.89131996  1
  Al  Al7  1  0.55427443  0.20404114  0.67416243  1
  Al  Al8  1  0.11158100  0.43608850  0.43214004  1
  Al  Al9  1  0.77407706  0.43285349  0.91977226  1
  Al  Al10  1  0.89269605  0.53782376  0.66584683  1
  Al  Al11  1  0.42766209  0.42931226  0.42172003  1
  Al  Al12  1  0.54000012  0.54733618  0.15757576  1
  Al  Al13  1  0.11110911  0.42962391  0.89427989  1
  Al  Al14  1  0.21660699  0.54097420  0.66358427  1
  Al  Al15  1  0.89332222  0.54136117  0.14731865  1
  Al  Al16  1  0.44159527  0.43436344  0.90793115  1
  Al  Al17  1  0.11415989  0.75755701  0.41855139  1
  Al  Al18  1  0.21412187  0.87356283  0.16442824  1
  Al  Al19  1  0.78740445  0.75714713  0.90265141  1
  Al  Al20  1  0.89168638  0.87045171  0.66763596  1
  Al  Al21  1  0.43320859  0.77127637  0.41210533  1
  Al  Al22  1  0.11490475  0.75991457  0.90393569  1
  Al  Al23  1  0.22208575  0.86978983  0.65821779  1
  Al  Al24  1  0.79173647  0.75625916  0.41184752  1
  Al  Al25  1  0.90122475  0.86998106  0.14863211  1
  Al  Al26  1  0.44407339  0.75371728  0.91329291  1
  Al  Al27  1  0.55788191  0.87357840  0.65994459  1
  Gd  Gd28  1  0.21188210  0.20981767  0.18627492  1
  Gd  Gd29  1  0.55496049  0.20680319  0.14435237  1
  Gd  Gd30  1  0.12227154  0.09236988  0.89751087  1
  Gd  Gd31  1  0.77701340  0.08963358  0.41443284  1
  Gd  Gd32  1  0.20186823  0.55105667  0.16119084  1
  Gd  Gd33  1  0.78140218  0.43510217  0.38972304  1
  Gd  Gd34  1  0.55510006  0.54346592  0.66072321  1
  Gd  Gd35  1  0.56453181  0.86333899  0.15283416  1
  N  N36  1  0.22091892  0.20424950  0.41310788  1
  N  N37  1  0.10751781  0.08061575  0.10976835  1
  N  N38  1  0.86367896  0.22453395  0.85379181  1
  N  N39  1  0.77720744  0.09527564  0.63014587  1
  N  N40  1  0.51944640  0.21804395  0.36120022  1
  N  N41  1  0.42571253  0.09555340  0.06977470  1
  N  N42  1  0.23780121  0.22366348  0.82674881  1
  N  N43  1  0.10527940  0.09056169  0.61860531  1
  N  N44  1  0.92134911  0.18614637  0.33859044  1
  N  N45  1  0.80515423  0.08072520  0.09146593  1
  N  N46  1  0.55823087  0.20798717  0.86071623  1
  N  N47  1  0.45671660  0.08930198  0.61697619  1
  N  N48  1  0.21747789  0.54064561  0.38068321  1
  N  N49  1  0.08799919  0.42395219  0.07256247  1
  N  N50  1  0.88477111  0.53967587  0.84894642  1
  N  N51  1  0.80788702  0.41326601  0.60486860  1
  N  N52  1  0.51734080  0.55435107  0.34998003  1
  N  N53  1  0.44169970  0.44768091  0.08626520  1
  N  N54  1  0.22045913  0.54236164  0.85156202  1
  N  N55  1  0.10347456  0.43946128  0.61226988  1
  N  N56  1  0.91776739  0.54893351  0.33459399  1
  N  N57  1  0.77191338  0.43389331  0.11568083  1
  N  N58  1  0.56015980  0.53833242  0.87339625  1
  N  N59  1  0.43088140  0.41305078  0.60722453  1
  N  N60  1  0.21850888  0.87355077  0.35617087  1
  N  N61  1  0.10341040  0.78719789  0.08555617  1
  N  N62  1  0.89347702  0.87042191  0.84926294  1
  N  N63  1  0.78304195  0.75866758  0.60202724  1
  N  N64  1  0.56146439  0.87179578  0.37267641  1
  N  N65  1  0.42303654  0.75610954  0.09779850  1
  N  N66  1  0.24353281  0.83685905  0.83704822  1
  N  N67  1  0.10778253  0.76451517  0.60376796  1
  N  N68  1  0.90872479  0.84572264  0.33811905  1
  N  N69  1  0.81268876  0.74853084  0.08477444  1
  N  N70  1  0.56007528  0.86494212  0.85141912  1
  N  N71  1  0.42846600  0.79331537  0.59262279  1
