# generated using pymatgen
data_Gd2Al7N9
_symmetry_space_group_name_H-M   'P 1'
_cell_length_a   9.94234603
_cell_length_b   9.85891368
_cell_length_c   10.53777871
_cell_angle_alpha   89.17341405
_cell_angle_beta   88.83334059
_cell_angle_gamma   59.95429811
_symmetry_Int_Tables_number   1
_chemical_formula_structural   Gd2Al7N9
_chemical_formula_sum   'Gd8 Al28 N36'
_cell_volume   893.92735547
_cell_formula_units_Z   4
loop_
 _symmetry_equiv_pos_site_id
 _symmetry_equiv_pos_as_xyz
  1  'x, y, z'
loop_
 _atom_site_type_symbol
 _atom_site_label
 _atom_site_symmetry_multiplicity
 _atom_site_fract_x
 _atom_site_fract_y
 _atom_site_fract_z
 _atom_site_occupancy
  Al  Al0  1  0.12693133  0.08601730  0.38622241  1
  Al  Al1  1  0.77083600  0.09338507  0.78472230  1
  Al  Al2  1  0.89532704  0.20766948  0.55895248  1
  Al  Al3  1  0.44460503  0.10151679  0.32247941  1
  Al  Al4  1  0.23109515  0.21170469  0.55538728  1
  Al  Al5  1  0.87499137  0.20216614  0.02613426  1
  Al  Al6  1  0.44820915  0.09050375  0.78856550  1
  Al  Al7  1  0.54605533  0.20861311  0.55816304  1
  Al  Al8  1  0.10759389  0.43526196  0.32016547  1
  Al  Al9  1  0.77909174  0.42915143  0.80918334  1
  Al  Al10  1  0.90059522  0.53962618  0.56363370  1
  Al  Al11  1  0.44134460  0.43790079  0.31049569  1
  Al  Al12  1  0.55110828  0.52885343  0.03203316  1
  Al  Al13  1  0.11799785  0.43218552  0.79390171  1
  Al  Al14  1  0.21850078  0.53868224  0.54576123  1
  Al  Al15  1  0.88835380  0.54180456  0.04181430  1
  Al  Al16  1  0.43260431  0.42257396  0.78796517  1
  Al  Al17  1  0.11300217  0.76312637  0.31168276  1
  Al  Al18  1  0.20623990  0.87598295  0.10301982  1
  Al  Al19  1  0.77577154  0.76357768  0.80015359  1
  Al  Al20  1  0.89382382  0.86485992  0.55410829  1
  Al  Al21  1  0.43641311  0.77263793  0.37717375  1
  Al  Al22  1  0.10912724  0.75081398  0.78750824  1
  Al  Al23  1  0.22814213  0.86512702  0.60952434  1
  Al  Al24  1  0.80018915  0.75501858  0.31047069  1
  Al  Al25  1  0.89504231  0.87197522  0.04741891  1
  Al  Al26  1  0.43418471  0.75856451  0.85575993  1
  Al  Al27  1  0.56458194  0.87812270  0.55081781  1
  Gd  Gd28  1  0.21003271  0.20223605  0.07427837  1
  Gd  Gd29  1  0.55596691  0.20093798  0.03875773  1
  Gd  Gd30  1  0.10599512  0.10095368  0.81223994  1
  Gd  Gd31  1  0.78215945  0.09472018  0.31215986  1
  Gd  Gd32  1  0.21385453  0.54477050  0.06584902  1
  Gd  Gd33  1  0.78681490  0.44008414  0.28794712  1
  Gd  Gd34  1  0.56376814  0.53530353  0.58007625  1
  Gd  Gd35  1  0.55732579  0.85101457  0.08218466  1
  N  N36  1  0.22614816  0.21036360  0.37119172  1
  N  N37  1  0.08999711  0.07441712  0.03737048  1
  N  N38  1  0.84738143  0.21799674  0.84924252  1
  N  N39  1  0.78042632  0.09352805  0.59874419  1
  N  N40  1  0.52920455  0.22623159  0.37699560  1
  N  N41  1  0.44699239  0.09037357  0.14730780  1
  N  N42  1  0.24276754  0.22334469  0.85553781  1
  N  N43  1  0.12073804  0.08864871  0.57783982  1
  N  N44  1  0.91237922  0.20702670  0.37915428  1
  N  N45  1  0.79551471  0.08245639  0.09797420  1
  N  N46  1  0.55493798  0.19998459  0.82197626  1
  N  N47  1  0.44607712  0.09086147  0.60515951  1
  N  N48  1  0.22294997  0.54233428  0.35757679  1
  N  N49  1  0.06613927  0.44106927  0.14380194  1
  N  N50  1  0.89644877  0.54044056  0.85744260  1
  N  N51  1  0.82027974  0.41122400  0.62718009  1
  N  N52  1  0.53878371  0.55233963  0.36129148  1
  N  N53  1  0.46287841  0.43231974  0.12854468  1
  N  N54  1  0.21947289  0.54138671  0.84690638  1
  N  N55  1  0.11605120  0.42826356  0.61005589  1
  N  N56  1  0.90234217  0.55365923  0.38573234  1
  N  N57  1  0.76947361  0.43442255  0.06614115  1
  N  N58  1  0.55290042  0.53051504  0.83610013  1
  N  N59  1  0.42182208  0.41993361  0.61023196  1
  N  N60  1  0.22633655  0.87954439  0.32025431  1
  N  N61  1  0.08707936  0.78510474  0.13040825  1
  N  N62  1  0.89064184  0.87008174  0.85489720  1
  N  N63  1  0.77787702  0.76324491  0.61675459  1
  N  N64  1  0.57317128  0.87099599  0.36017837  1
  N  N65  1  0.40655754  0.74543942  0.03680292  1
  N  N66  1  0.23679685  0.84219456  0.78902698  1
  N  N67  1  0.10825861  0.75538217  0.60214375  1
  N  N68  1  0.90782593  0.84868641  0.37632184  1
  N  N69  1  0.81049962  0.74590474  0.11941357  1
  N  N70  1  0.55457212  0.87210860  0.85168404  1
  N  N71  1  0.43189641  0.79365472  0.55785566  1
