# generated using pymatgen
data_Gd2Al7N9
_symmetry_space_group_name_H-M   'P 1'
_cell_length_a   9.72496423
_cell_length_b   9.78363452
_cell_length_c   10.99932611
_cell_angle_alpha   89.68848691
_cell_angle_beta   88.83508905
_cell_angle_gamma   60.14314735
_symmetry_Int_Tables_number   1
_chemical_formula_structural   Gd2Al7N9
_chemical_formula_sum   'Gd8 Al28 N36'
_cell_volume   907.43072281
_cell_formula_units_Z   4
loop_
 _symmetry_equiv_pos_site_id
 _symmetry_equiv_pos_as_xyz
  1  'x, y, z'
loop_
 _atom_site_type_symbol
 _atom_site_label
 _atom_site_symmetry_multiplicity
 _atom_site_fract_x
 _atom_site_fract_y
 _atom_site_fract_z
 _atom_site_occupancy
  Al  Al0  1  0.13049897  0.08800026  0.43000614  1
  Al  Al1  1  0.77781023  0.09151312  0.81868849  1
  Al  Al2  1  0.90109295  0.19977886  0.59580327  1
  Al  Al3  1  0.44983165  0.09958572  0.42640236  1
  Al  Al4  1  0.23191627  0.20577812  0.65066178  1
  Al  Al5  1  0.87062068  0.20678258  0.06726845  1
  Al  Al6  1  0.44664867  0.08716484  0.88001117  1
  Al  Al7  1  0.55795745  0.20123200  0.61621544  1
  Al  Al8  1  0.12078719  0.43137417  0.43389288  1
  Al  Al9  1  0.76681859  0.41681309  0.83658368  1
  Al  Al10  1  0.89828561  0.53241325  0.66816576  1
  Al  Al11  1  0.43846715  0.44189340  0.33479613  1
  Al  Al12  1  0.52988700  0.54804056  0.07716992  1
  Al  Al13  1  0.12567684  0.42123902  0.88762892  1
  Al  Al14  1  0.21295735  0.54263723  0.65704428  1
  Al  Al15  1  0.87637830  0.53029534  0.03935038  1
  Al  Al16  1  0.44036729  0.42454752  0.82096808  1
  Al  Al17  1  0.13311912  0.75353162  0.42919300  1
  Al  Al18  1  0.20849768  0.87530217  0.14944025  1
  Al  Al19  1  0.77394646  0.76688892  0.87866866  1
  Al  Al20  1  0.89629870  0.86936882  0.59705515  1
  Al  Al21  1  0.43959747  0.78232973  0.40842320  1
  Al  Al22  1  0.12414296  0.75140973  0.89259177  1
  Al  Al23  1  0.23248880  0.86540374  0.65633937  1
  Al  Al24  1  0.79011425  0.74942882  0.42644152  1
  Al  Al25  1  0.88260501  0.88925259  0.04737084  1
  Al  Al26  1  0.44408651  0.75422958  0.89562756  1
  Al  Al27  1  0.55602824  0.87138990  0.65224318  1
  Gd  Gd28  1  0.21001064  0.20889286  0.17013887  1
  Gd  Gd29  1  0.54132827  0.23573582  0.06314671  1
  Gd  Gd30  1  0.12491235  0.08412387  0.89127644  1
  Gd  Gd31  1  0.79227180  0.08385525  0.33770684  1
  Gd  Gd32  1  0.13417550  0.58373638  0.18083737  1
  Gd  Gd33  1  0.79621167  0.43017205  0.31309921  1
  Gd  Gd34  1  0.56636601  0.52541587  0.58097898  1
  Gd  Gd35  1  0.56886494  0.86055514  0.15488050  1
  N  N36  1  0.23029048  0.20673012  0.38599557  1
  N  N37  1  0.08725296  0.09038535  0.10287456  1
  N  N38  1  0.85846196  0.21006497  0.89362369  1
  N  N39  1  0.78562641  0.09060172  0.64385626  1
  N  N40  1  0.53875383  0.23039193  0.39987658  1
  N  N41  1  0.43157471  0.08687337  0.05674855  1
  N  N42  1  0.24023618  0.21787684  0.82159853  1
  N  N43  1  0.12664806  0.08443525  0.61385756  1
  N  N44  1  0.90977619  0.20650371  0.42358627  1
  N  N45  1  0.78481336  0.08222585  0.12717205  1
  N  N46  1  0.55597462  0.20033973  0.85242081  1
  N  N47  1  0.45391545  0.08594626  0.60218524  1
  N  N48  1  0.22518777  0.54313636  0.38270164  1
  N  N49  1  0.09272323  0.42149811  0.05659907  1
  N  N50  1  0.88551986  0.53656489  0.85423480  1
  N  N51  1  0.80707509  0.40271013  0.66603705  1
  N  N52  1  0.54182077  0.56153145  0.37746242  1
  N  N53  1  0.41552860  0.46718198  0.16127108  1
  N  N54  1  0.21266964  0.54383087  0.83709195  1
  N  N55  1  0.10999585  0.42955545  0.60822926  1
  N  N56  1  0.92328518  0.55179619  0.35749763  1
  N  N57  1  0.76080989  0.43452491  0.10117680  1
  N  N58  1  0.54809634  0.52664630  0.88948921  1
  N  N59  1  0.43388738  0.41383191  0.65195391  1
  N  N60  1  0.22286199  0.87899193  0.34579868  1
  N  N61  1  0.10107634  0.78670412  0.06818920  1
  N  N62  1  0.89008820  0.87792247  0.86916403  1
  N  N63  1  0.78159086  0.74876863  0.61165773  1
  N  N64  1  0.56975833  0.87811959  0.36895917  1
  N  N65  1  0.41841611  0.76882297  0.07285252  1
  N  N66  1  0.24560793  0.83533146  0.82569630  1
  N  N67  1  0.12576674  0.75745782  0.60505959  1
  N  N68  1  0.90921057  0.85155011  0.42214934  1
  N  N69  1  0.80093021  0.74702664  0.05645179  1
  N  N70  1  0.55407862  0.86463796  0.83174700  1
  N  N71  1  0.43497778  0.78865530  0.58516968  1
