# generated using pymatgen
data_Gd2Al7N9
_symmetry_space_group_name_H-M   'P 1'
_cell_length_a   9.75879819
_cell_length_b   9.82933566
_cell_length_c   10.85856480
_cell_angle_alpha   90.49455190
_cell_angle_beta   89.05251540
_cell_angle_gamma   60.02129444
_symmetry_Int_Tables_number   1
_chemical_formula_structural   Gd2Al7N9
_chemical_formula_sum   'Gd8 Al28 N36'
_cell_volume   901.93385645
_cell_formula_units_Z   4
loop_
 _symmetry_equiv_pos_site_id
 _symmetry_equiv_pos_as_xyz
  1  'x, y, z'
loop_
 _atom_site_type_symbol
 _atom_site_label
 _atom_site_symmetry_multiplicity
 _atom_site_fract_x
 _atom_site_fract_y
 _atom_site_fract_z
 _atom_site_occupancy
  Al  Al0  1  0.13163429  0.08145345  0.42912652  1
  Al  Al1  1  0.78287240  0.09694741  0.82691443  1
  Al  Al2  1  0.90095002  0.19763233  0.59471628  1
  Al  Al3  1  0.45510895  0.09620452  0.41637367  1
  Al  Al4  1  0.23397250  0.20373853  0.64517557  1
  Al  Al5  1  0.86779274  0.21415064  0.06345216  1
  Al  Al6  1  0.44651327  0.08966827  0.88403832  1
  Al  Al7  1  0.55767332  0.19218967  0.65981573  1
  Al  Al8  1  0.12430728  0.42446485  0.43450540  1
  Al  Al9  1  0.77146819  0.41851454  0.83286630  1
  Al  Al10  1  0.90049760  0.53070586  0.66410234  1
  Al  Al11  1  0.43405448  0.44336171  0.32487121  1
  Al  Al12  1  0.52649168  0.55307434  0.07150588  1
  Al  Al13  1  0.12724157  0.42348947  0.88741825  1
  Al  Al14  1  0.21684128  0.53799886  0.65438555  1
  Al  Al15  1  0.87367580  0.53612366  0.03841596  1
  Al  Al16  1  0.43932063  0.42874914  0.82710499  1
  Al  Al17  1  0.13103746  0.75084116  0.42910639  1
  Al  Al18  1  0.20674361  0.87723316  0.15053114  1
  Al  Al19  1  0.77285616  0.76675135  0.87332071  1
  Al  Al20  1  0.89977392  0.86487624  0.63670167  1
  Al  Al21  1  0.44284093  0.77491132  0.40702132  1
  Al  Al22  1  0.12972088  0.75099396  0.89186930  1
  Al  Al23  1  0.23188818  0.86764542  0.65504680  1
  Al  Al24  1  0.79894077  0.74487235  0.42191245  1
  Al  Al25  1  0.88120921  0.89304581  0.04089959  1
  Al  Al26  1  0.44612208  0.75725692  0.89103084  1
  Al  Al27  1  0.55769747  0.87279603  0.64569956  1
  Gd  Gd28  1  0.19993134  0.21999270  0.17609899  1
  Gd  Gd29  1  0.52445849  0.23672527  0.09734400  1
  Gd  Gd30  1  0.13621667  0.08409004  0.89733483  1
  Gd  Gd31  1  0.79916824  0.07468923  0.32683988  1
  Gd  Gd32  1  0.11188557  0.60353933  0.18932053  1
  Gd  Gd33  1  0.79513379  0.42412187  0.31463435  1
  Gd  Gd34  1  0.56181163  0.52629560  0.58712347  1
  Gd  Gd35  1  0.56451490  0.86460130  0.15292367  1
  N  N36  1  0.23163923  0.19933015  0.39223182  1
  N  N37  1  0.08120834  0.09660049  0.11072084  1
  N  N38  1  0.87015609  0.21262970  0.88869165  1
  N  N39  1  0.78602432  0.09067643  0.64762666  1
  N  N40  1  0.52768216  0.21508137  0.32653885  1
  N  N41  1  0.41554963  0.08927488  0.05586573  1
  N  N42  1  0.24438180  0.21959299  0.81868870  1
  N  N43  1  0.12632439  0.08343436  0.61387305  1
  N  N44  1  0.91111124  0.19817653  0.42117416  1
  N  N45  1  0.78316665  0.08950751  0.11212009  1
  N  N46  1  0.55847929  0.20003192  0.85163766  1
  N  N47  1  0.46082879  0.08727570  0.59585070  1
  N  N48  1  0.22955715  0.53508710  0.38800093  1
  N  N49  1  0.08862404  0.43055668  0.05820259  1
  N  N50  1  0.88632462  0.53824630  0.85134910  1
  N  N51  1  0.80772333  0.40410964  0.65982305  1
  N  N52  1  0.54178586  0.55207734  0.38117785  1
  N  N53  1  0.40005502  0.48918167  0.15298972  1
  N  N54  1  0.21413196  0.54489326  0.83677659  1
  N  N55  1  0.11184709  0.42749030  0.60900817  1
  N  N56  1  0.92764291  0.53973261  0.35817845  1
  N  N57  1  0.75670131  0.44188686  0.09877326  1
  N  N58  1  0.55150452  0.53085905  0.88186948  1
  N  N59  1  0.43652685  0.40702131  0.65301554  1
  N  N60  1  0.22659435  0.87203020  0.34485423  1
  N  N61  1  0.09620682  0.79366785  0.06467093  1
  N  N62  1  0.89381470  0.87372350  0.85198294  1
  N  N63  1  0.78750983  0.74963278  0.61056021  1
  N  N64  1  0.57462758  0.86736025  0.36876326  1
  N  N65  1  0.41589324  0.77356168  0.06912628  1
  N  N66  1  0.24634982  0.83736790  0.82474417  1
  N  N67  1  0.12350646  0.75725282  0.60587499  1
  N  N68  1  0.92176623  0.83413917  0.38619570  1
  N  N69  1  0.79823564  0.75477169  0.05184038  1
  N  N70  1  0.55425551  0.86845262  0.82793321  1
  N  N71  1  0.43483930  0.78970275  0.58474032  1
