# generated using pymatgen
data_Gd2Al7N9
_symmetry_space_group_name_H-M   'P 1'
_cell_length_a   9.87370696
_cell_length_b   9.87993614
_cell_length_c   10.49740209
_cell_angle_alpha   90.51598377
_cell_angle_beta   90.87729023
_cell_angle_gamma   59.95162374
_symmetry_Int_Tables_number   1
_chemical_formula_structural   Gd2Al7N9
_chemical_formula_sum   'Gd8 Al28 N36'
_cell_volume   886.30559774
_cell_formula_units_Z   4
loop_
 _symmetry_equiv_pos_site_id
 _symmetry_equiv_pos_as_xyz
  1  'x, y, z'
loop_
 _atom_site_type_symbol
 _atom_site_label
 _atom_site_symmetry_multiplicity
 _atom_site_fract_x
 _atom_site_fract_y
 _atom_site_fract_z
 _atom_site_occupancy
  Al  Al0  1  0.11288989  0.08692374  0.41420377  1
  Al  Al1  1  0.78322918  0.09181670  0.89217179  1
  Al  Al2  1  0.88648230  0.20796794  0.65536264  1
  Al  Al3  1  0.44123554  0.09285288  0.42459035  1
  Al  Al4  1  0.22262146  0.21196657  0.63539824  1
  Al  Al5  1  0.90112598  0.19329380  0.14651296  1
  Al  Al6  1  0.44639355  0.09682277  0.88235411  1
  Al  Al7  1  0.55390430  0.20048399  0.66305948  1
  Al  Al8  1  0.10768814  0.43546143  0.41796872  1
  Al  Al9  1  0.78608340  0.42995241  0.87844742  1
  Al  Al10  1  0.89127233  0.54073691  0.64996124  1
  Al  Al11  1  0.42327284  0.42738054  0.42351466  1
  Al  Al12  1  0.56132428  0.53815427  0.06373530  1
  Al  Al13  1  0.11237450  0.43084349  0.88546472  1
  Al  Al14  1  0.21087865  0.54101033  0.65267915  1
  Al  Al15  1  0.89565350  0.54096971  0.13750695  1
  Al  Al16  1  0.43902138  0.42600060  0.88529318  1
  Al  Al17  1  0.11510489  0.75531223  0.40600969  1
  Al  Al18  1  0.21914530  0.87063093  0.15190711  1
  Al  Al19  1  0.78798796  0.75883280  0.89185621  1
  Al  Al20  1  0.89151662  0.87055930  0.65625224  1
  Al  Al21  1  0.43009306  0.77315455  0.41224110  1
  Al  Al22  1  0.11530831  0.75978778  0.89323110  1
  Al  Al23  1  0.21594851  0.87629159  0.64684814  1
  Al  Al24  1  0.79018176  0.75617421  0.40114646  1
  Al  Al25  1  0.90342750  0.86748193  0.13734806  1
  Al  Al26  1  0.44233769  0.76508951  0.89064321  1
  Al  Al27  1  0.55636459  0.87781883  0.64870112  1
  Gd  Gd28  1  0.21833625  0.20987891  0.17311008  1
  Gd  Gd29  1  0.56079671  0.20613297  0.13621239  1
  Gd  Gd30  1  0.12196787  0.09242459  0.88995496  1
  Gd  Gd31  1  0.77551889  0.08650043  0.40422308  1
  Gd  Gd32  1  0.21535095  0.54821499  0.15032839  1
  Gd  Gd33  1  0.77032772  0.43753768  0.37467229  1
  Gd  Gd34  1  0.54349647  0.54925761  0.63689855  1
  Gd  Gd35  1  0.56590813  0.85866356  0.14569715  1
  N  N36  1  0.21822369  0.20463263  0.39586495  1
  N  N37  1  0.11095433  0.08030257  0.10173505  1
  N  N38  1  0.86692911  0.21975504  0.83661794  1
  N  N39  1  0.77595453  0.09424561  0.61779429  1
  N  N40  1  0.51625387  0.21999926  0.35218668  1
  N  N41  1  0.43449902  0.09171177  0.06012537  1
  N  N42  1  0.23712193  0.22380268  0.81833315  1
  N  N43  1  0.10186261  0.09426833  0.60279062  1
  N  N44  1  0.91566393  0.18513367  0.32821654  1
  N  N45  1  0.80891112  0.07891364  0.07791268  1
  N  N46  1  0.56122187  0.20279941  0.84710216  1
  N  N47  1  0.45266824  0.09163557  0.60473701  1
  N  N48  1  0.21589417  0.53829309  0.36878697  1
  N  N49  1  0.09180486  0.42876316  0.06379208  1
  N  N50  1  0.88962990  0.54249389  0.83295936  1
  N  N51  1  0.80171075  0.41759676  0.59948120  1
  N  N52  1  0.51329199  0.55481137  0.40294481  1
  N  N53  1  0.44777499  0.44021530  0.06281238  1
  N  N54  1  0.21751738  0.54397092  0.83865547  1
  N  N55  1  0.10098430  0.43813870  0.59760773  1
  N  N56  1  0.91038700  0.55109338  0.32527604  1
  N  N57  1  0.78020983  0.42893146  0.10325238  1
  N  N58  1  0.56399953  0.53984791  0.86845075  1
  N  N59  1  0.42338666  0.40853913  0.60761396  1
  N  N60  1  0.22011442  0.87132210  0.34282823  1
  N  N61  1  0.10608480  0.78505412  0.07431204  1
  N  N62  1  0.89436139  0.87011043  0.83751454  1
  N  N63  1  0.78192984  0.76132804  0.59024606  1
  N  N64  1  0.55852222  0.87169841  0.36448845  1
  N  N65  1  0.42543012  0.75533593  0.07466994  1
  N  N66  1  0.23900160  0.84059659  0.82427370  1
  N  N67  1  0.10704742  0.76480900  0.59111766  1
  N  N68  1  0.90774767  0.84448344  0.32516794  1
  N  N69  1  0.81128903  0.74851889  0.07268997  1
  N  N70  1  0.56161503  0.86767895  0.83783482  1
  N  N71  1  0.42081571  0.80678099  0.59030254  1
