# generated using pymatgen
data_Gd2Al7N9
_symmetry_space_group_name_H-M   'P 1'
_cell_length_a   9.89336280
_cell_length_b   9.85782860
_cell_length_c   10.64123387
_cell_angle_alpha   89.25191168
_cell_angle_beta   89.10102658
_cell_angle_gamma   59.89867456
_symmetry_Int_Tables_number   1
_chemical_formula_structural   Gd2Al7N9
_chemical_formula_sum   'Gd8 Al28 N36'
_cell_volume   897.72272494
_cell_formula_units_Z   4
loop_
 _symmetry_equiv_pos_site_id
 _symmetry_equiv_pos_as_xyz
  1  'x, y, z'
loop_
 _atom_site_type_symbol
 _atom_site_label
 _atom_site_symmetry_multiplicity
 _atom_site_fract_x
 _atom_site_fract_y
 _atom_site_fract_z
 _atom_site_occupancy
  Al  Al0  1  0.12652305  0.08578366  0.38400068  1
  Al  Al1  1  0.77177852  0.09571838  0.78388820  1
  Al  Al2  1  0.89418276  0.20520460  0.55575889  1
  Al  Al3  1  0.44396531  0.10467971  0.32296235  1
  Al  Al4  1  0.22997648  0.21051519  0.55468303  1
  Al  Al5  1  0.87533396  0.20427265  0.02526236  1
  Al  Al6  1  0.44904396  0.09014747  0.78918005  1
  Al  Al7  1  0.54757613  0.20854477  0.55809893  1
  Al  Al8  1  0.10732753  0.43551733  0.32000750  1
  Al  Al9  1  0.77790219  0.42659711  0.80549833  1
  Al  Al10  1  0.90288434  0.53213144  0.57201768  1
  Al  Al11  1  0.44083836  0.43824132  0.30815067  1
  Al  Al12  1  0.54795850  0.53043610  0.03415310  1
  Al  Al13  1  0.12126251  0.42846737  0.79310031  1
  Al  Al14  1  0.21913038  0.53741862  0.54617367  1
  Al  Al15  1  0.88938621  0.53690604  0.03102562  1
  Al  Al16  1  0.43414703  0.42386505  0.78746286  1
  Al  Al17  1  0.10981810  0.76163761  0.31173371  1
  Al  Al18  1  0.20853114  0.87943524  0.11892710  1
  Al  Al19  1  0.77668976  0.76258927  0.81045226  1
  Al  Al20  1  0.89531173  0.86982973  0.56322757  1
  Al  Al21  1  0.43543699  0.77316261  0.37409968  1
  Al  Al22  1  0.11322937  0.74916347  0.78502552  1
  Al  Al23  1  0.22799812  0.86584550  0.61231313  1
  Al  Al24  1  0.79165971  0.75663329  0.36836478  1
  Al  Al25  1  0.89775601  0.87717496  0.03454036  1
  Al  Al26  1  0.43445294  0.75960246  0.86235589  1
  Al  Al27  1  0.55608647  0.88133402  0.55952312  1
  Gd  Gd28  1  0.21247625  0.20353022  0.07466097  1
  Gd  Gd29  1  0.55066157  0.20410072  0.03519657  1
  Gd  Gd30  1  0.10895517  0.09804006  0.81651470  1
  Gd  Gd31  1  0.78227791  0.08916954  0.30379097  1
  Gd  Gd32  1  0.20260974  0.55315813  0.06449594  1
  Gd  Gd33  1  0.79152082  0.43737002  0.28472666  1
  Gd  Gd34  1  0.56166875  0.53690979  0.57546368  1
  Gd  Gd35  1  0.56795306  0.84418338  0.09146957  1
  N  N36  1  0.22567838  0.21085378  0.37190572  1
  N  N37  1  0.09211559  0.07479943  0.04143554  1
  N  N38  1  0.85025527  0.21750821  0.84977404  1
  N  N39  1  0.77949254  0.09544601  0.60053804  1
  N  N40  1  0.53151611  0.22660779  0.37785671  1
  N  N41  1  0.45134066  0.08855525  0.15025159  1
  N  N42  1  0.24505090  0.22214107  0.85836730  1
  N  N43  1  0.11990263  0.08741229  0.57562914  1
  N  N44  1  0.91019537  0.20292976  0.37648767  1
  N  N45  1  0.79236349  0.08566520  0.09100865  1
  N  N46  1  0.55555363  0.20063372  0.82063814  1
  N  N47  1  0.44415213  0.09327867  0.60660860  1
  N  N48  1  0.22217395  0.54257170  0.35925590  1
  N  N49  1  0.05929229  0.44306728  0.14673049  1
  N  N50  1  0.90032956  0.53006951  0.84804644  1
  N  N51  1  0.81711795  0.40732611  0.62539211  1
  N  N52  1  0.54047037  0.55293143  0.35749759  1
  N  N53  1  0.45543280  0.43524600  0.12801913  1
  N  N54  1  0.21988038  0.54096145  0.84633302  1
  N  N55  1  0.11932180  0.42470583  0.61153038  1
  N  N56  1  0.90534932  0.54586489  0.39433016  1
  N  N57  1  0.76800789  0.43472595  0.06607615  1
  N  N58  1  0.55211614  0.53122749  0.83848818  1
  N  N59  1  0.42337334  0.41968112  0.61043916  1
  N  N60  1  0.22816002  0.88274165  0.30887189  1
  N  N61  1  0.08142791  0.79190826  0.13450628  1
  N  N62  1  0.89599580  0.87415841  0.84353031  1
  N  N63  1  0.77635923  0.76250063  0.61319875  1
  N  N64  1  0.57101622  0.87344163  0.36464455  1
  N  N65  1  0.40683610  0.74825228  0.04129835  1
  N  N66  1  0.24058948  0.84056775  0.78836797  1
  N  N67  1  0.11224569  0.75340307  0.60220747  1
  N  N68  1  0.90885119  0.85018213  0.38584001  1
  N  N69  1  0.81656166  0.74605966  0.06242220  1
  N  N70  1  0.55194992  0.87259265  0.84866935  1
  N  N71  1  0.42651921  0.79561366  0.55117846  1
