# generated using pymatgen
data_Gd2Al7N9
_symmetry_space_group_name_H-M   'P 1'
_cell_length_a   9.90193271
_cell_length_b   9.82344915
_cell_length_c   10.78811183
_cell_angle_alpha   89.66213326
_cell_angle_beta   89.40075327
_cell_angle_gamma   59.71909264
_symmetry_Int_Tables_number   1
_chemical_formula_structural   Gd2Al7N9
_chemical_formula_sum   'Gd8 Al28 N36'
_cell_volume   906.14956453
_cell_formula_units_Z   4
loop_
 _symmetry_equiv_pos_site_id
 _symmetry_equiv_pos_as_xyz
  1  'x, y, z'
loop_
 _atom_site_type_symbol
 _atom_site_label
 _atom_site_symmetry_multiplicity
 _atom_site_fract_x
 _atom_site_fract_y
 _atom_site_fract_z
 _atom_site_occupancy
  Al  Al0  1  0.12527779  0.08307743  0.39530527  1
  Al  Al1  1  0.77011723  0.09762950  0.79354196  1
  Al  Al2  1  0.89584722  0.20316085  0.56782578  1
  Al  Al3  1  0.44249427  0.10198876  0.33685632  1
  Al  Al4  1  0.23160453  0.20687441  0.56624365  1
  Al  Al5  1  0.87441048  0.20696413  0.03924720  1
  Al  Al6  1  0.44435625  0.10203121  0.79992791  1
  Al  Al7  1  0.54791248  0.20553992  0.56750276  1
  Al  Al8  1  0.10110333  0.43779776  0.33439515  1
  Al  Al9  1  0.77668727  0.42575966  0.81814588  1
  Al  Al10  1  0.90494561  0.52649440  0.58626854  1
  Al  Al11  1  0.44249985  0.43733923  0.31803080  1
  Al  Al12  1  0.54748183  0.53729752  0.04456838  1
  Al  Al13  1  0.12079366  0.42953223  0.81132424  1
  Al  Al14  1  0.22272848  0.53262281  0.58528901  1
  Al  Al15  1  0.88315667  0.53777313  0.04206191  1
  Al  Al16  1  0.43744286  0.42490440  0.80541950  1
  Al  Al17  1  0.12186466  0.75576965  0.39056346  1
  Al  Al18  1  0.20874287  0.87980191  0.11953013  1
  Al  Al19  1  0.77846805  0.76180558  0.85697051  1
  Al  Al20  1  0.89523930  0.87179607  0.57847954  1
  Al  Al21  1  0.43684761  0.77484946  0.39202365  1
  Al  Al22  1  0.12130029  0.75834157  0.86859631  1
  Al  Al23  1  0.23128293  0.86120578  0.62841522  1
  Al  Al24  1  0.77775235  0.75828870  0.41762282  1
  Al  Al25  1  0.88668669  0.88737524  0.02984339  1
  Al  Al26  1  0.43862029  0.76273987  0.87182828  1
  Al  Al27  1  0.55513520  0.87186167  0.63328811  1
  Gd  Gd28  1  0.20990998  0.21157312  0.08558064  1
  Gd  Gd29  1  0.55244134  0.20518169  0.05021798  1
  Gd  Gd30  1  0.10599954  0.10325763  0.82710603  1
  Gd  Gd31  1  0.78262167  0.08516838  0.31717821  1
  Gd  Gd32  1  0.20183817  0.54991115  0.10036636  1
  Gd  Gd33  1  0.79328416  0.43493005  0.29677625  1
  Gd  Gd34  1  0.56537964  0.53081012  0.58269535  1
  Gd  Gd35  1  0.57342423  0.83883745  0.14266007  1
  N  N36  1  0.22409500  0.20902123  0.38559040  1
  N  N37  1  0.09073852  0.08501884  0.05822981  1
  N  N38  1  0.84919854  0.21663196  0.86575174  1
  N  N39  1  0.77809045  0.09802851  0.61332332  1
  N  N40  1  0.53054394  0.22531433  0.39060396  1
  N  N41  1  0.44860257  0.09357300  0.16289549  1
  N  N42  1  0.24527397  0.22115683  0.87321954  1
  N  N43  1  0.12172247  0.08473534  0.58881981  1
  N  N44  1  0.90887934  0.20109945  0.39161141  1
  N  N45  1  0.79619844  0.08306077  0.10654402  1
  N  N46  1  0.55707423  0.20098019  0.83909143  1
  N  N47  1  0.44283329  0.09651698  0.62068809  1
  N  N48  1  0.22208780  0.53910447  0.35075043  1
  N  N49  1  0.04078106  0.45187322  0.16322728  1
  N  N50  1  0.90189434  0.52417515  0.86192326  1
  N  N51  1  0.81839354  0.40403363  0.64191998  1
  N  N52  1  0.54007068  0.55204620  0.37157369  1
  N  N53  1  0.46094505  0.43911194  0.13932072  1
  N  N54  1  0.22413849  0.53627961  0.86262337  1
  N  N55  1  0.11983052  0.42226044  0.63046327  1
  N  N56  1  0.90445000  0.53967677  0.41157250  1
  N  N57  1  0.76467576  0.43763049  0.07940391  1
  N  N58  1  0.55232943  0.53342549  0.85368438  1
  N  N59  1  0.42907792  0.41468074  0.62975916  1
  N  N60  1  0.22248103  0.87540619  0.31931285  1
  N  N61  1  0.09924085  0.79208381  0.04904199  1
  N  N62  1  0.89138620  0.87829312  0.84274863  1
  N  N63  1  0.77762356  0.76074149  0.60130898  1
  N  N64  1  0.56858273  0.86524542  0.35740834  1
  N  N65  1  0.41735707  0.76183397  0.04979583  1
  N  N66  1  0.23975373  0.84115131  0.80138566  1
  N  N67  1  0.12601482  0.75489831  0.57349458  1
  N  N68  1  0.90245634  0.84896131  0.39677462  1
  N  N69  1  0.79607054  0.75988156  0.03879116  1
  N  N70  1  0.55361516  0.86708209  0.81646133  1
  N  N71  1  0.43154237  0.79337544  0.56808705  1
