# generated using pymatgen
data_Gd2Al7N9
_symmetry_space_group_name_H-M   'P 1'
_cell_length_a   9.87421846
_cell_length_b   9.86311152
_cell_length_c   10.63722959
_cell_angle_alpha   90.37368700
_cell_angle_beta   89.44013502
_cell_angle_gamma   60.17388861
_symmetry_Int_Tables_number   1
_chemical_formula_structural   Gd2Al7N9
_chemical_formula_sum   'Gd8 Al28 N36'
_cell_volume   898.61990796
_cell_formula_units_Z   4
loop_
 _symmetry_equiv_pos_site_id
 _symmetry_equiv_pos_as_xyz
  1  'x, y, z'
loop_
 _atom_site_type_symbol
 _atom_site_label
 _atom_site_symmetry_multiplicity
 _atom_site_fract_x
 _atom_site_fract_y
 _atom_site_fract_z
 _atom_site_occupancy
  Al  Al0  1  0.13116324  0.07855078  0.42705709  1
  Al  Al1  1  0.77398115  0.09962051  0.82438617  1
  Al  Al2  1  0.90046663  0.20524437  0.59717085  1
  Al  Al3  1  0.44446170  0.09111502  0.42130325  1
  Al  Al4  1  0.23091787  0.21042788  0.64486886  1
  Al  Al5  1  0.87697089  0.20270326  0.07208874  1
  Al  Al6  1  0.44438840  0.09897484  0.88820706  1
  Al  Al7  1  0.54417122  0.20591743  0.65691826  1
  Al  Al8  1  0.11078120  0.42749162  0.42422068  1
  Al  Al9  1  0.78052731  0.42585225  0.83858662  1
  Al  Al10  1  0.89809616  0.53992971  0.65947139  1
  Al  Al11  1  0.42804179  0.42489841  0.42181632  1
  Al  Al12  1  0.55483396  0.54405300  0.05201292  1
  Al  Al13  1  0.11723895  0.43347501  0.88483119  1
  Al  Al14  1  0.21436328  0.54083816  0.65288581  1
  Al  Al15  1  0.88504723  0.54457606  0.08099412  1
  Al  Al16  1  0.43537648  0.43088862  0.88430012  1
  Al  Al17  1  0.12121124  0.74855347  0.40848448  1
  Al  Al18  1  0.20917515  0.88029609  0.14557700  1
  Al  Al19  1  0.78028843  0.77197258  0.89008237  1
  Al  Al20  1  0.89788274  0.86224784  0.65268875  1
  Al  Al21  1  0.43812129  0.76913212  0.41216408  1
  Al  Al22  1  0.11100233  0.76333106  0.89450319  1
  Al  Al23  1  0.22447719  0.86903125  0.65042139  1
  Al  Al24  1  0.79571682  0.74094830  0.40776155  1
  Al  Al25  1  0.89989678  0.87013023  0.15082098  1
  Al  Al26  1  0.43970523  0.76810987  0.88778505  1
  Al  Al27  1  0.55743217  0.87814045  0.64882788  1
  Gd  Gd28  1  0.20263963  0.21475337  0.16829619  1
  Gd  Gd29  1  0.55057774  0.21303202  0.14059605  1
  Gd  Gd30  1  0.11736117  0.09489259  0.87396583  1
  Gd  Gd31  1  0.78274657  0.07417408  0.39014246  1
  Gd  Gd32  1  0.20737284  0.55632549  0.15471524  1
  Gd  Gd33  1  0.77301097  0.42159545  0.32594655  1
  Gd  Gd34  1  0.55235794  0.54329233  0.62652154  1
  Gd  Gd35  1  0.56003724  0.85983925  0.15021266  1
  N  N36  1  0.22647557  0.19846916  0.38919354  1
  N  N37  1  0.09520974  0.08929590  0.09100691  1
  N  N38  1  0.85322555  0.21884096  0.89354630  1
  N  N39  1  0.77908547  0.09597800  0.63492326  1
  N  N40  1  0.52159569  0.21880487  0.35513814  1
  N  N41  1  0.43009064  0.09127038  0.06414925  1
  N  N42  1  0.24052398  0.22636629  0.82300139  1
  N  N43  1  0.12228930  0.08784270  0.61945844  1
  N  N44  1  0.91650281  0.19333322  0.42107248  1
  N  N45  1  0.80345470  0.08933353  0.15967420  1
  N  N46  1  0.55239497  0.20809999  0.83921283  1
  N  N47  1  0.45371676  0.09030879  0.60023084  1
  N  N48  1  0.22204042  0.53182107  0.37112281  1
  N  N49  1  0.09523947  0.43392158  0.06053455  1
  N  N50  1  0.88993377  0.54791621  0.84806686  1
  N  N51  1  0.81098267  0.40829942  0.65886118  1
  N  N52  1  0.52693331  0.54872004  0.40301995  1
  N  N53  1  0.44091948  0.44571391  0.06021108  1
  N  N54  1  0.21705291  0.54842000  0.83560060  1
  N  N55  1  0.10752680  0.43281200  0.60395738  1
  N  N56  1  0.91059177  0.53355066  0.35525045  1
  N  N57  1  0.76852567  0.44024757  0.10278564  1
  N  N58  1  0.55874607  0.54354587  0.86290266  1
  N  N59  1  0.42434041  0.41066595  0.60363549  1
  N  N60  1  0.22558068  0.87027462  0.34151967  1
  N  N61  1  0.09610586  0.79192598  0.07309314  1
  N  N62  1  0.89367036  0.87295874  0.83259600  1
  N  N63  1  0.78448980  0.75770489  0.59656570  1
  N  N64  1  0.56662919  0.86721875  0.36713957  1
  N  N65  1  0.41915328  0.76157741  0.06961774  1
  N  N66  1  0.23866931  0.83948017  0.82493714  1
  N  N67  1  0.11247138  0.76282459  0.59101165  1
  N  N68  1  0.92130819  0.82206531  0.33163897  1
  N  N69  1  0.80248909  0.76141549  0.06969223  1
  N  N70  1  0.55804298  0.87342121  0.83549420  1
  N  N71  1  0.42753389  0.80115829  0.58980471  1
