# generated using pymatgen
data_Gd2Al7N9
_symmetry_space_group_name_H-M   'P 1'
_cell_length_a   9.90128888
_cell_length_b   9.87375577
_cell_length_c   10.59838572
_cell_angle_alpha   90.26037064
_cell_angle_beta   89.28214348
_cell_angle_gamma   60.26060342
_symmetry_Int_Tables_number   1
_chemical_formula_structural   Gd2Al7N9
_chemical_formula_sum   'Gd8 Al28 N36'
_cell_volume   899.52142572
_cell_formula_units_Z   4
loop_
 _symmetry_equiv_pos_site_id
 _symmetry_equiv_pos_as_xyz
  1  'x, y, z'
loop_
 _atom_site_type_symbol
 _atom_site_label
 _atom_site_symmetry_multiplicity
 _atom_site_fract_x
 _atom_site_fract_y
 _atom_site_fract_z
 _atom_site_occupancy
  Al  Al0  1  0.13007211  0.08029212  0.42891040  1
  Al  Al1  1  0.77884355  0.09655527  0.82744447  1
  Al  Al2  1  0.90088173  0.20496936  0.59780553  1
  Al  Al3  1  0.44593113  0.09476274  0.41860439  1
  Al  Al4  1  0.23393162  0.20888589  0.64169089  1
  Al  Al5  1  0.88012349  0.20371677  0.07341965  1
  Al  Al6  1  0.44450197  0.09161322  0.88844256  1
  Al  Al7  1  0.54908172  0.20096252  0.66391480  1
  Al  Al8  1  0.11468753  0.42864041  0.43067414  1
  Al  Al9  1  0.77454920  0.42391045  0.83945867  1
  Al  Al10  1  0.89758412  0.53939890  0.65755989  1
  Al  Al11  1  0.43358871  0.43362178  0.35604742  1
  Al  Al12  1  0.54579244  0.54381723  0.05730070  1
  Al  Al13  1  0.12119081  0.42660080  0.88241982  1
  Al  Al14  1  0.21168271  0.54594702  0.65907393  1
  Al  Al15  1  0.88041438  0.54080075  0.04821632  1
  Al  Al16  1  0.43304147  0.43201621  0.84526176  1
  Al  Al17  1  0.12038012  0.75132271  0.40881209  1
  Al  Al18  1  0.21131561  0.87867348  0.14661919  1
  Al  Al19  1  0.77802883  0.77671324  0.88595563  1
  Al  Al20  1  0.89793217  0.86482630  0.65220690  1
  Al  Al21  1  0.43737253  0.77292610  0.41046036  1
  Al  Al22  1  0.10869908  0.76671883  0.89768718  1
  Al  Al23  1  0.22571442  0.86813292  0.65125411  1
  Al  Al24  1  0.79535168  0.74466135  0.41288890  1
  Al  Al25  1  0.89850690  0.87303661  0.15001381  1
  Al  Al26  1  0.43952875  0.76440705  0.88837046  1
  Al  Al27  1  0.55773411  0.87741122  0.64751567  1
  Gd  Gd28  1  0.20649205  0.21125145  0.17167444  1
  Gd  Gd29  1  0.55754004  0.20634910  0.11245060  1
  Gd  Gd30  1  0.12069974  0.09430041  0.87691191  1
  Gd  Gd31  1  0.77825400  0.08164244  0.38100222  1
  Gd  Gd32  1  0.18275602  0.56052560  0.15125734  1
  Gd  Gd33  1  0.78251832  0.42420651  0.32109016  1
  Gd  Gd34  1  0.55722091  0.53674754  0.61259663  1
  Gd  Gd35  1  0.56569735  0.85361968  0.14991365  1
  N  N36  1  0.22659012  0.20096764  0.39661237  1
  N  N37  1  0.09648493  0.08894043  0.09448227  1
  N  N38  1  0.85701121  0.21625778  0.89415259  1
  N  N39  1  0.77842410  0.09814225  0.63712602  1
  N  N40  1  0.51884333  0.21904538  0.33959441  1
  N  N41  1  0.42728851  0.08316313  0.06374856  1
  N  N42  1  0.24602589  0.22213208  0.81962190  1
  N  N43  1  0.12267985  0.08697218  0.61977545  1
  N  N44  1  0.91571990  0.19599268  0.42068856  1
  N  N45  1  0.80574173  0.09047897  0.15987140  1
  N  N46  1  0.55919120  0.19827736  0.85354014  1
  N  N47  1  0.45814928  0.09101732  0.59855357  1
  N  N48  1  0.22159214  0.53473465  0.37076311  1
  N  N49  1  0.09025861  0.42078971  0.05589384  1
  N  N50  1  0.88502027  0.54706869  0.85298519  1
  N  N51  1  0.81113739  0.40787847  0.66082829  1
  N  N52  1  0.53109301  0.54917607  0.39434118  1
  N  N53  1  0.43079366  0.45680692  0.10632510  1
  N  N54  1  0.20757162  0.55386324  0.84556345  1
  N  N55  1  0.11062475  0.43428483  0.61051170  1
  N  N56  1  0.91086697  0.53518568  0.37688818  1
  N  N57  1  0.76548276  0.44220409  0.09774697  1
  N  N58  1  0.55386184  0.53893209  0.86798983  1
  N  N59  1  0.42735693  0.41493957  0.65717564  1
  N  N60  1  0.22580697  0.87208066  0.34329148  1
  N  N61  1  0.09436175  0.79633584  0.07475403  1
  N  N62  1  0.89518368  0.87322540  0.83216906  1
  N  N63  1  0.78390572  0.76024363  0.60136097  1
  N  N64  1  0.56704554  0.86875765  0.36831816  1
  N  N65  1  0.41919806  0.76298513  0.06960754  1
  N  N66  1  0.23820684  0.83964726  0.82601504  1
  N  N67  1  0.11264799  0.76314781  0.59193972  1
  N  N68  1  0.91943932  0.82495509  0.33318810  1
  N  N69  1  0.80720683  0.75919263  0.06563703  1
  N  N70  1  0.55776434  0.87015706  0.83363886  1
  N  N71  1  0.42915948  0.79784519  0.58958445  1
