# generated using pymatgen
data_Gd2Al7N9
_symmetry_space_group_name_H-M   'P 1'
_cell_length_a   9.87291988
_cell_length_b   9.88214366
_cell_length_c   10.50251307
_cell_angle_alpha   90.52021304
_cell_angle_beta   90.84402213
_cell_angle_gamma   59.94625106
_symmetry_Int_Tables_number   1
_chemical_formula_structural   Gd2Al7N9
_chemical_formula_sum   'Gd8 Al28 N36'
_cell_volume   886.82351911
_cell_formula_units_Z   4
loop_
 _symmetry_equiv_pos_site_id
 _symmetry_equiv_pos_as_xyz
  1  'x, y, z'
loop_
 _atom_site_type_symbol
 _atom_site_label
 _atom_site_symmetry_multiplicity
 _atom_site_fract_x
 _atom_site_fract_y
 _atom_site_fract_z
 _atom_site_occupancy
  Al  Al0  1  0.11327486  0.08654628  0.41421355  1
  Al  Al1  1  0.78323425  0.09165487  0.89267213  1
  Al  Al2  1  0.88690532  0.20645502  0.65502781  1
  Al  Al3  1  0.44124910  0.09282809  0.42457375  1
  Al  Al4  1  0.22259477  0.21195317  0.63547164  1
  Al  Al5  1  0.90049117  0.19421733  0.14757621  1
  Al  Al6  1  0.44632408  0.09687422  0.88239733  1
  Al  Al7  1  0.55388112  0.20038862  0.66306364  1
  Al  Al8  1  0.10803611  0.43541615  0.41787076  1
  Al  Al9  1  0.78515246  0.43065195  0.86527284  1
  Al  Al10  1  0.89160923  0.54198634  0.64949432  1
  Al  Al11  1  0.42326412  0.42710662  0.42335782  1
  Al  Al12  1  0.56388128  0.53676664  0.06343903  1
  Al  Al13  1  0.11241675  0.43086976  0.88578163  1
  Al  Al14  1  0.21078074  0.54083361  0.65274984  1
  Al  Al15  1  0.89510811  0.54047386  0.13816958  1
  Al  Al16  1  0.43916261  0.42588537  0.88531967  1
  Al  Al17  1  0.11531401  0.75518188  0.40587812  1
  Al  Al18  1  0.21939039  0.87042774  0.15178425  1
  Al  Al19  1  0.78795837  0.75904799  0.89220708  1
  Al  Al20  1  0.89153229  0.87059612  0.65632759  1
  Al  Al21  1  0.43013069  0.77343221  0.41211649  1
  Al  Al22  1  0.11538871  0.75979874  0.89322470  1
  Al  Al23  1  0.21570121  0.87673836  0.64691013  1
  Al  Al24  1  0.79036897  0.75614691  0.40110145  1
  Al  Al25  1  0.90346688  0.86738299  0.13743754  1
  Al  Al26  1  0.44245904  0.76503239  0.89075808  1
  Al  Al27  1  0.55627663  0.87800719  0.64873228  1
  Gd  Gd28  1  0.21824701  0.21003102  0.17317892  1
  Gd  Gd29  1  0.56063530  0.20647977  0.13612457  1
  Gd  Gd30  1  0.12193661  0.09249704  0.89070269  1
  Gd  Gd31  1  0.77539459  0.08605465  0.40408175  1
  Gd  Gd32  1  0.21558164  0.54816372  0.14998405  1
  Gd  Gd33  1  0.77013270  0.43756450  0.37364276  1
  Gd  Gd34  1  0.54080031  0.55067409  0.63564263  1
  Gd  Gd35  1  0.56573198  0.85864547  0.14565542  1
  N  N36  1  0.21837440  0.20451561  0.39581309  1
  N  N37  1  0.11065065  0.08045090  0.10235429  1
  N  N38  1  0.86754955  0.21839905  0.83632947  1
  N  N39  1  0.77591823  0.09392059  0.61753864  1
  N  N40  1  0.51617627  0.21999688  0.35200501  1
  N  N41  1  0.43441921  0.09181269  0.06004920  1
  N  N42  1  0.23690080  0.22387420  0.81836755  1
  N  N43  1  0.10185244  0.09437120  0.60257442  1
  N  N44  1  0.91592959  0.18455727  0.32962791  1
  N  N45  1  0.80895929  0.07896490  0.07828889  1
  N  N46  1  0.56131355  0.20272761  0.84703458  1
  N  N47  1  0.45266239  0.09166670  0.60470410  1
  N  N48  1  0.21614845  0.53826122  0.36843675  1
  N  N49  1  0.09139483  0.42891947  0.06394061  1
  N  N50  1  0.89036743  0.54343888  0.83241107  1
  N  N51  1  0.80046358  0.41848417  0.60472054  1
  N  N52  1  0.51330914  0.55485509  0.40388341  1
  N  N53  1  0.44826578  0.44046393  0.06242110  1
  N  N54  1  0.21763045  0.54392031  0.83864783  1
  N  N55  1  0.10107563  0.43802683  0.59734453  1
  N  N56  1  0.91074692  0.55105119  0.32640453  1
  N  N57  1  0.77882747  0.42916310  0.11175349  1
  N  N58  1  0.56444598  0.53968000  0.86771523  1
  N  N59  1  0.42297327  0.40808030  0.60737951  1
  N  N60  1  0.22045726  0.87101351  0.34263786  1
  N  N61  1  0.10613938  0.78504154  0.07418832  1
  N  N62  1  0.89435180  0.87018749  0.83759949  1
  N  N63  1  0.78188520  0.76173938  0.59009359  1
  N  N64  1  0.55872665  0.87160748  0.36441975  1
  N  N65  1  0.42599403  0.75466312  0.07427002  1
  N  N66  1  0.23908972  0.84067487  0.82421891  1
  N  N67  1  0.10724684  0.76469992  0.59111875  1
  N  N68  1  0.90808646  0.84421655  0.32505861  1
  N  N69  1  0.81127754  0.74824537  0.07292799  1
  N  N70  1  0.56169198  0.86765779  0.83776560  1
  N  N71  1  0.42026954  0.80783486  0.59000563  1
