# generated using pymatgen
data_Gd2Al7N9
_symmetry_space_group_name_H-M   'P 1'
_cell_length_a   9.95495666
_cell_length_b   9.87276363
_cell_length_c   10.51525147
_cell_angle_alpha   89.15975808
_cell_angle_beta   88.78169929
_cell_angle_gamma   59.98105115
_symmetry_Int_Tables_number   1
_chemical_formula_structural   Gd2Al7N9
_chemical_formula_sum   'Gd8 Al28 N36'
_cell_volume   894.62816179
_cell_formula_units_Z   4
loop_
 _symmetry_equiv_pos_site_id
 _symmetry_equiv_pos_as_xyz
  1  'x, y, z'
loop_
 _atom_site_type_symbol
 _atom_site_label
 _atom_site_symmetry_multiplicity
 _atom_site_fract_x
 _atom_site_fract_y
 _atom_site_fract_z
 _atom_site_occupancy
  Al  Al0  1  0.12574325  0.08708270  0.38902854  1
  Al  Al1  1  0.77080144  0.09324496  0.78459366  1
  Al  Al2  1  0.89456414  0.20895374  0.55935946  1
  Al  Al3  1  0.44460215  0.10115189  0.32309723  1
  Al  Al4  1  0.23113473  0.21273057  0.55575212  1
  Al  Al5  1  0.87351582  0.20313370  0.02524347  1
  Al  Al6  1  0.44828027  0.09083254  0.78885545  1
  Al  Al7  1  0.54569854  0.20881749  0.55813936  1
  Al  Al8  1  0.10728967  0.43541312  0.32056534  1
  Al  Al9  1  0.77940657  0.42908705  0.80916582  1
  Al  Al10  1  0.90064503  0.54000988  0.56396586  1
  Al  Al11  1  0.44128820  0.43837100  0.31068655  1
  Al  Al12  1  0.55167480  0.52792423  0.03036927  1
  Al  Al13  1  0.11830546  0.43229927  0.79426456  1
  Al  Al14  1  0.21819974  0.53915725  0.54535639  1
  Al  Al15  1  0.88855839  0.54157564  0.04163170  1
  Al  Al16  1  0.43215119  0.42218407  0.78818163  1
  Al  Al17  1  0.11556796  0.76580416  0.31191044  1
  Al  Al18  1  0.20249185  0.87110683  0.06556559  1
  Al  Al19  1  0.77640653  0.76379166  0.80026834  1
  Al  Al20  1  0.89457387  0.86434668  0.55367619  1
  Al  Al21  1  0.43644880  0.77207599  0.38252882  1
  Al  Al22  1  0.10881864  0.75057148  0.78764648  1
  Al  Al23  1  0.22579141  0.86606810  0.60152966  1
  Al  Al24  1  0.80040037  0.75496489  0.31124300  1
  Al  Al25  1  0.89427085  0.87203666  0.04791573  1
  Al  Al26  1  0.43764406  0.75783658  0.85026420  1
  Al  Al27  1  0.56555885  0.87775725  0.55315676  1
  Gd  Gd28  1  0.21000748  0.20079824  0.07566125  1
  Gd  Gd29  1  0.55631590  0.20046427  0.03932079  1
  Gd  Gd30  1  0.10511643  0.10375172  0.80865143  1
  Gd  Gd31  1  0.78262585  0.09483251  0.31310148  1
  Gd  Gd32  1  0.21387679  0.54266914  0.06768468  1
  Gd  Gd33  1  0.78617300  0.44084859  0.28815834  1
  Gd  Gd34  1  0.56478939  0.53332981  0.58113054  1
  Gd  Gd35  1  0.55747414  0.85024758  0.08318787  1
  N  N36  1  0.22597390  0.21043814  0.37099396  1
  N  N37  1  0.08777041  0.07742312  0.03457700  1
  N  N38  1  0.84677178  0.21828926  0.84839809  1
  N  N39  1  0.78054110  0.09355437  0.59826554  1
  N  N40  1  0.52910628  0.22632257  0.37656616  1
  N  N41  1  0.44742413  0.08955258  0.14727126  1
  N  N42  1  0.24312500  0.22363556  0.85605709  1
  N  N43  1  0.11947164  0.09234308  0.57986176  1
  N  N44  1  0.91174396  0.20844680  0.37923656  1
  N  N45  1  0.79592795  0.08234100  0.09825771  1
  N  N46  1  0.55509191  0.19996140  0.82216109  1
  N  N47  1  0.44600958  0.09124320  0.60518258  1
  N  N48  1  0.22254155  0.54273471  0.35613386  1
  N  N49  1  0.06577055  0.44002669  0.14374539  1
  N  N50  1  0.89660112  0.54057937  0.85729682  1
  N  N51  1  0.82053934  0.41182070  0.62737018  1
  N  N52  1  0.53864507  0.55270398  0.36200708  1
  N  N53  1  0.46320999  0.43247742  0.12793184  1
  N  N54  1  0.21955924  0.54122252  0.84822563  1
  N  N55  1  0.11597522  0.42885633  0.61001103  1
  N  N56  1  0.90221705  0.55373025  0.38580005  1
  N  N57  1  0.76928531  0.43456974  0.06548361  1
  N  N58  1  0.55345574  0.52962287  0.83478245  1
  N  N59  1  0.42097008  0.41970520  0.61024965  1
  N  N60  1  0.22287332  0.87522001  0.35102679  1
  N  N61  1  0.08983505  0.78631432  0.12782061  1
  N  N62  1  0.89031582  0.87026146  0.85550063  1
  N  N63  1  0.77894091  0.76342530  0.61678215  1
  N  N64  1  0.57231620  0.87079536  0.36159291  1
  N  N65  1  0.40981650  0.74400298  0.03325081  1
  N  N66  1  0.23412199  0.84411187  0.79322620  1
  N  N67  1  0.10773065  0.75460604  0.60390236  1
  N  N68  1  0.90869750  0.84828389  0.37512933  1
  N  N69  1  0.81101459  0.74561655  0.11970771  1
  N  N70  1  0.55555644  0.87242430  0.85120959  1
  N  N71  1  0.43613792  0.79099354  0.56607913  1
