# generated using pymatgen
data_Gd2Al7N9
_symmetry_space_group_name_H-M   'P 1'
_cell_length_a   9.87153839
_cell_length_b   9.89140407
_cell_length_c   10.52441158
_cell_angle_alpha   90.54799232
_cell_angle_beta   90.57176383
_cell_angle_gamma   59.87716053
_symmetry_Int_Tables_number   1
_chemical_formula_structural   Gd2Al7N9
_chemical_formula_sum   'Gd8 Al28 N36'
_cell_volume   888.80129881
_cell_formula_units_Z   4
loop_
 _symmetry_equiv_pos_site_id
 _symmetry_equiv_pos_as_xyz
  1  'x, y, z'
loop_
 _atom_site_type_symbol
 _atom_site_label
 _atom_site_symmetry_multiplicity
 _atom_site_fract_x
 _atom_site_fract_y
 _atom_site_fract_z
 _atom_site_occupancy
  Al  Al0  1  0.11515540  0.08554365  0.41474862  1
  Al  Al1  1  0.78260414  0.09212669  0.89414432  1
  Al  Al2  1  0.88839411  0.20090635  0.65566913  1
  Al  Al3  1  0.44252166  0.09195971  0.42475035  1
  Al  Al4  1  0.22295387  0.21162258  0.63640605  1
  Al  Al5  1  0.89884613  0.19538808  0.15106632  1
  Al  Al6  1  0.44530479  0.09741092  0.88306350  1
  Al  Al7  1  0.55370702  0.19996902  0.66349228  1
  Al  Al8  1  0.11029707  0.43428573  0.41782691  1
  Al  Al9  1  0.78357338  0.43165853  0.82994253  1
  Al  Al10  1  0.89327242  0.54629595  0.64977235  1
  Al  Al11  1  0.42420753  0.42566536  0.42340576  1
  Al  Al12  1  0.56902094  0.53398113  0.06154417  1
  Al  Al13  1  0.11106598  0.43167250  0.88645076  1
  Al  Al14  1  0.21073908  0.53991036  0.65363183  1
  Al  Al15  1  0.89352415  0.53998332  0.13976799  1
  Al  Al16  1  0.43971752  0.42609675  0.88593009  1
  Al  Al17  1  0.11741066  0.75388447  0.40604288  1
  Al  Al18  1  0.21986470  0.86974942  0.15167656  1
  Al  Al19  1  0.78779117  0.75915953  0.89346088  1
  Al  Al20  1  0.89186315  0.87048448  0.65703666  1
  Al  Al21  1  0.43084370  0.77403552  0.41247047  1
  Al  Al22  1  0.11514398  0.76024371  0.89337011  1
  Al  Al23  1  0.21500314  0.87826408  0.64768154  1
  Al  Al24  1  0.79198079  0.75548634  0.40102145  1
  Al  Al25  1  0.90317910  0.86735630  0.13826603  1
  Al  Al26  1  0.44282700  0.76462310  0.89118368  1
  Al  Al27  1  0.55623831  0.87848851  0.64946028  1
  Gd  Gd28  1  0.21627554  0.21096333  0.17353503  1
  Gd  Gd29  1  0.55874099  0.20794512  0.13666393  1
  Gd  Gd30  1  0.12026425  0.09375270  0.89302801  1
  Gd  Gd31  1  0.77659645  0.08427363  0.40398821  1
  Gd  Gd32  1  0.21453631  0.54854000  0.14902392  1
  Gd  Gd33  1  0.76878831  0.43878080  0.36893897  1
  Gd  Gd34  1  0.53244053  0.55499747  0.63395658  1
  Gd  Gd35  1  0.56414983  0.85938269  0.14585382  1
  N  N36  1  0.22023169  0.20332129  0.39560132  1
  N  N37  1  0.10928750  0.08057428  0.10431765  1
  N  N38  1  0.86810812  0.21575645  0.83659217  1
  N  N39  1  0.77601996  0.09265346  0.61699988  1
  N  N40  1  0.51804101  0.21880615  0.35251160  1
  N  N41  1  0.43301436  0.09271554  0.06044824  1
  N  N42  1  0.23582436  0.22419647  0.81868723  1
  N  N43  1  0.10175188  0.09494468  0.60207459  1
  N  N44  1  0.91723578  0.18410267  0.33386608  1
  N  N45  1  0.80795471  0.07954900  0.08059826  1
  N  N46  1  0.56080846  0.20273263  0.84718097  1
  N  N47  1  0.45295342  0.09146759  0.60470320  1
  N  N48  1  0.21816414  0.53714476  0.36746266  1
  N  N49  1  0.08965970  0.42919560  0.06414050  1
  N  N50  1  0.89161272  0.54616787  0.83187287  1
  N  N51  1  0.79716903  0.42117271  0.62609955  1
  N  N52  1  0.51350880  0.55492771  0.40761466  1
  N  N53  1  0.44872180  0.44151688  0.06223614  1
  N  N54  1  0.21781169  0.54387592  0.83902289  1
  N  N55  1  0.10161501  0.43729050  0.59666102  1
  N  N56  1  0.91318334  0.54981467  0.32903597  1
  N  N57  1  0.77429491  0.43081373  0.13047725  1
  N  N58  1  0.56630403  0.53883006  0.86671531  1
  N  N59  1  0.42211326  0.40655473  0.60688836  1
  N  N60  1  0.22211191  0.87001758  0.34251201  1
  N  N61  1  0.10586374  0.78540125  0.07400790  1
  N  N62  1  0.89389119  0.87073262  0.83826072  1
  N  N63  1  0.78231752  0.76268450  0.58968364  1
  N  N64  1  0.56073572  0.87012346  0.36453128  1
  N  N65  1  0.42700546  0.75350434  0.07359042  1
  N  N66  1  0.23899937  0.84135496  0.82438088  1
  N  N67  1  0.10863501  0.76392110  0.59153415  1
  N  N68  1  0.91071701  0.84238880  0.32519859  1
  N  N69  1  0.81059293  0.74818884  0.07430799  1
  N  N70  1  0.56151245  0.86804932  0.83797456  1
  N  N71  1  0.41904931  0.81075779  0.58968402  1
