# generated using pymatgen
data_Gd2Al7N9
_symmetry_space_group_name_H-M   'P 1'
_cell_length_a   9.88766039
_cell_length_b   9.86754732
_cell_length_c   10.61639946
_cell_angle_alpha   90.21231024
_cell_angle_beta   89.24665082
_cell_angle_gamma   60.21542220
_symmetry_Int_Tables_number   1
_chemical_formula_structural   Gd2Al7N9
_chemical_formula_sum   'Gd8 Al28 N36'
_cell_volume   898.83823119
_cell_formula_units_Z   4
loop_
 _symmetry_equiv_pos_site_id
 _symmetry_equiv_pos_as_xyz
  1  'x, y, z'
loop_
 _atom_site_type_symbol
 _atom_site_label
 _atom_site_symmetry_multiplicity
 _atom_site_fract_x
 _atom_site_fract_y
 _atom_site_fract_z
 _atom_site_occupancy
  Al  Al0  1  0.13064175  0.07961140  0.42776529  1
  Al  Al1  1  0.77475044  0.09956785  0.82474387  1
  Al  Al2  1  0.90055332  0.20552734  0.59654442  1
  Al  Al3  1  0.44501467  0.09277722  0.42006842  1
  Al  Al4  1  0.23298239  0.20879631  0.64340613  1
  Al  Al5  1  0.87757956  0.20244722  0.07236213  1
  Al  Al6  1  0.44491667  0.09626138  0.88859732  1
  Al  Al7  1  0.54489619  0.20629648  0.65806327  1
  Al  Al8  1  0.11202148  0.42835290  0.42952872  1
  Al  Al9  1  0.77798888  0.42375637  0.83810066  1
  Al  Al10  1  0.89797376  0.53964282  0.65603543  1
  Al  Al11  1  0.42839334  0.42611583  0.41849204  1
  Al  Al12  1  0.55218036  0.54372973  0.05277238  1
  Al  Al13  1  0.12264977  0.42857412  0.88158827  1
  Al  Al14  1  0.21573378  0.54223476  0.65360705  1
  Al  Al15  1  0.88307838  0.54175949  0.05068227  1
  Al  Al16  1  0.43424788  0.43202750  0.88352212  1
  Al  Al17  1  0.12003789  0.75004033  0.40831154  1
  Al  Al18  1  0.20992601  0.87896344  0.14632653  1
  Al  Al19  1  0.77753762  0.77730071  0.88669759  1
  Al  Al20  1  0.89815849  0.86455674  0.65244771  1
  Al  Al21  1  0.43798380  0.77018656  0.41173602  1
  Al  Al22  1  0.11080994  0.76366749  0.89556431  1
  Al  Al23  1  0.22477127  0.86886691  0.65062524  1
  Al  Al24  1  0.79416745  0.74435381  0.41289827  1
  Al  Al25  1  0.89926462  0.86919303  0.15005814  1
  Al  Al26  1  0.43937508  0.76714187  0.88763503  1
  Al  Al27  1  0.55689041  0.87907233  0.64868990  1
  Gd  Gd28  1  0.20339405  0.21277133  0.16952202  1
  Gd  Gd29  1  0.55118462  0.21121643  0.13382673  1
  Gd  Gd30  1  0.11803720  0.09453852  0.87462474  1
  Gd  Gd31  1  0.78087355  0.07830697  0.38562804  1
  Gd  Gd32  1  0.20168782  0.55431720  0.15394693  1
  Gd  Gd33  1  0.77662409  0.42549575  0.32390477  1
  Gd  Gd34  1  0.55501631  0.54225392  0.62325321  1
  Gd  Gd35  1  0.56417987  0.85486718  0.15034827  1
  N  N36  1  0.22620805  0.20029367  0.39269757  1
  N  N37  1  0.09528460  0.08842389  0.09216095  1
  N  N38  1  0.85432436  0.21740037  0.89359849  1
  N  N39  1  0.77876163  0.09767567  0.63504925  1
  N  N40  1  0.51927945  0.22116588  0.34957638  1
  N  N41  1  0.43027807  0.08681602  0.06471037  1
  N  N42  1  0.24389925  0.22257106  0.82160445  1
  N  N43  1  0.12213089  0.08760518  0.61936686  1
  N  N44  1  0.91615432  0.19531407  0.41975143  1
  N  N45  1  0.80350008  0.08832090  0.15827635  1
  N  N46  1  0.55310595  0.20688190  0.84164116  1
  N  N47  1  0.45573979  0.09071586  0.59935289  1
  N  N48  1  0.22105108  0.53335119  0.37146000  1
  N  N49  1  0.09465772  0.42836634  0.05749843  1
  N  N50  1  0.88760784  0.54666298  0.85372503  1
  N  N51  1  0.81240150  0.40761006  0.66014058  1
  N  N52  1  0.52870145  0.54907218  0.40002886  1
  N  N53  1  0.43599609  0.44762367  0.06015872  1
  N  N54  1  0.21662534  0.54908714  0.83609195  1
  N  N55  1  0.11018067  0.43275640  0.60969901  1
  N  N56  1  0.90763573  0.53490118  0.37776733  1
  N  N57  1  0.76746296  0.44122702  0.09889428  1
  N  N58  1  0.55702593  0.54286659  0.86177999  1
  N  N59  1  0.42570251  0.41113967  0.60365970  1
  N  N60  1  0.22555443  0.87149415  0.34210201  1
  N  N61  1  0.09660107  0.79077385  0.07442958  1
  N  N62  1  0.89480303  0.87397631  0.83233519  1
  N  N63  1  0.78335636  0.76077323  0.60163833  1
  N  N64  1  0.56681473  0.86839328  0.36797755  1
  N  N65  1  0.41934961  0.76098451  0.06981118  1
  N  N66  1  0.23832622  0.83971352  0.82559453  1
  N  N67  1  0.11257690  0.76348663  0.59120623  1
  N  N68  1  0.91925432  0.82377395  0.33277009  1
  N  N69  1  0.80435638  0.76008673  0.06583379  1
  N  N70  1  0.55721444  0.87310353  0.83487271  1
  N  N71  1  0.42793235  0.80081074  0.59002474  1
