# generated using pymatgen
data_Gd2Al7N9
_symmetry_space_group_name_H-M   'P 1'
_cell_length_a   9.90362930
_cell_length_b   9.82238071
_cell_length_c   10.79617473
_cell_angle_alpha   89.67459976
_cell_angle_beta   89.41363434
_cell_angle_gamma   59.70840163
_symmetry_Int_Tables_number   1
_chemical_formula_structural   Gd2Al7N9
_chemical_formula_sum   'Gd8 Al28 N36'
_cell_volume   906.78689694
_cell_formula_units_Z   4
loop_
 _symmetry_equiv_pos_site_id
 _symmetry_equiv_pos_as_xyz
  1  'x, y, z'
loop_
 _atom_site_type_symbol
 _atom_site_label
 _atom_site_symmetry_multiplicity
 _atom_site_fract_x
 _atom_site_fract_y
 _atom_site_fract_z
 _atom_site_occupancy
  Al  Al0  1  0.12525026  0.08308324  0.39528410  1
  Al  Al1  1  0.77015619  0.09757027  0.79350109  1
  Al  Al2  1  0.89585824  0.20316892  0.56778784  1
  Al  Al3  1  0.44246187  0.10208997  0.33683066  1
  Al  Al4  1  0.23162492  0.20705362  0.56599877  1
  Al  Al5  1  0.87434358  0.20697048  0.03919588  1
  Al  Al6  1  0.44434205  0.10214484  0.79998088  1
  Al  Al7  1  0.54779449  0.20561555  0.56715921  1
  Al  Al8  1  0.10126305  0.43822086  0.33413898  1
  Al  Al9  1  0.77656154  0.42580132  0.81800725  1
  Al  Al10  1  0.90480473  0.52650431  0.58607250  1
  Al  Al11  1  0.44214487  0.43764467  0.31721217  1
  Al  Al12  1  0.54763763  0.53715817  0.04435823  1
  Al  Al13  1  0.11989752  0.42904092  0.81194419  1
  Al  Al14  1  0.22150939  0.53477298  0.59697972  1
  Al  Al15  1  0.88295864  0.53768389  0.04207105  1
  Al  Al16  1  0.43895641  0.42431646  0.80570375  1
  Al  Al17  1  0.12259770  0.75392323  0.39056989  1
  Al  Al18  1  0.20874311  0.87956834  0.11933810  1
  Al  Al19  1  0.77831293  0.76195518  0.85712540  1
  Al  Al20  1  0.89497930  0.87199094  0.57830538  1
  Al  Al21  1  0.43668217  0.77500579  0.39188774  1
  Al  Al22  1  0.12112022  0.75881062  0.86847038  1
  Al  Al23  1  0.23141361  0.86154140  0.62836981  1
  Al  Al24  1  0.77783420  0.75829943  0.41766284  1
  Al  Al25  1  0.88693947  0.88716742  0.02974832  1
  Al  Al26  1  0.43858952  0.76288047  0.87185219  1
  Al  Al27  1  0.55513287  0.87187936  0.63330142  1
  Gd  Gd28  1  0.20988699  0.21121098  0.08594769  1
  Gd  Gd29  1  0.55289110  0.20434390  0.05029725  1
  Gd  Gd30  1  0.10597347  0.10346896  0.82720119  1
  Gd  Gd31  1  0.78280543  0.08500129  0.31721464  1
  Gd  Gd32  1  0.20155601  0.55006184  0.10270774  1
  Gd  Gd33  1  0.79353848  0.43486262  0.29656155  1
  Gd  Gd34  1  0.56555856  0.53064268  0.58192134  1
  Gd  Gd35  1  0.57351796  0.83858056  0.14289821  1
  N  N36  1  0.22406232  0.20921324  0.38562702  1
  N  N37  1  0.09071380  0.08478255  0.05796834  1
  N  N38  1  0.84918223  0.21662758  0.86570529  1
  N  N39  1  0.77801720  0.09809928  0.61335417  1
  N  N40  1  0.53038965  0.22562293  0.39046927  1
  N  N41  1  0.44865213  0.09334012  0.16308379  1
  N  N42  1  0.24543104  0.22126341  0.87384008  1
  N  N43  1  0.12170901  0.08485732  0.58875590  1
  N  N44  1  0.90878687  0.20119090  0.39169344  1
  N  N45  1  0.79666376  0.08271349  0.10668977  1
  N  N46  1  0.55723144  0.20081310  0.83935139  1
  N  N47  1  0.44271678  0.09673240  0.62080097  1
  N  N48  1  0.22124673  0.54057106  0.34354291  1
  N  N49  1  0.04025637  0.45137439  0.16299769  1
  N  N50  1  0.90153403  0.52422299  0.86212432  1
  N  N51  1  0.81827951  0.40411797  0.64190620  1
  N  N52  1  0.54000012  0.55210823  0.37109304  1
  N  N53  1  0.46167551  0.43834054  0.13828866  1
  N  N54  1  0.22350045  0.53741044  0.85758153  1
  N  N55  1  0.11928061  0.42179445  0.63113977  1
  N  N56  1  0.90468456  0.53961190  0.41155645  1
  N  N57  1  0.76461687  0.43756431  0.07938060  1
  N  N58  1  0.55245711  0.53356692  0.85377576  1
  N  N59  1  0.43022052  0.41417564  0.63018248  1
  N  N60  1  0.22243632  0.87544066  0.31950915  1
  N  N61  1  0.09968558  0.79148144  0.04830903  1
  N  N62  1  0.89120003  0.87840889  0.84276068  1
  N  N63  1  0.77761442  0.76072141  0.60126666  1
  N  N64  1  0.56865206  0.86527135  0.35753287  1
  N  N65  1  0.41740817  0.76187699  0.04970690  1
  N  N66  1  0.23974210  0.84150581  0.80124151  1
  N  N67  1  0.12619243  0.75452412  0.57377675  1
  N  N68  1  0.90271089  0.84887001  0.39714946  1
  N  N69  1  0.79596308  0.75996527  0.03877567  1
  N  N70  1  0.55356349  0.86717673  0.81636443  1
  N  N71  1  0.43163281  0.79328869  0.56798922  1
