# generated using pymatgen
data_Gd2Al7N9
_symmetry_space_group_name_H-M   'P 1'
_cell_length_a   9.87403088
_cell_length_b   9.83361789
_cell_length_c   10.76350361
_cell_angle_alpha   89.50409615
_cell_angle_beta   89.08299598
_cell_angle_gamma   59.79889612
_symmetry_Int_Tables_number   1
_chemical_formula_structural   Gd2Al7N9
_chemical_formula_sum   'Gd8 Al28 N36'
_cell_volume   903.13509810
_cell_formula_units_Z   4
loop_
 _symmetry_equiv_pos_site_id
 _symmetry_equiv_pos_as_xyz
  1  'x, y, z'
loop_
 _atom_site_type_symbol
 _atom_site_label
 _atom_site_symmetry_multiplicity
 _atom_site_fract_x
 _atom_site_fract_y
 _atom_site_fract_z
 _atom_site_occupancy
  Al  Al0  1  0.12633225  0.08472544  0.38446122  1
  Al  Al1  1  0.76993168  0.09908698  0.78198317  1
  Al  Al2  1  0.89510415  0.20348448  0.55515375  1
  Al  Al3  1  0.44516906  0.10043671  0.32245978  1
  Al  Al4  1  0.23238050  0.20750726  0.55287027  1
  Al  Al5  1  0.87311955  0.20691309  0.02478234  1
  Al  Al6  1  0.44347982  0.10306461  0.78754967  1
  Al  Al7  1  0.55009328  0.20473307  0.55352097  1
  Al  Al8  1  0.10267110  0.43902665  0.32116246  1
  Al  Al9  1  0.77687206  0.42623467  0.80438440  1
  Al  Al10  1  0.90574831  0.52631007  0.57274687  1
  Al  Al11  1  0.44272865  0.43716582  0.30737074  1
  Al  Al12  1  0.54590938  0.53692483  0.03409868  1
  Al  Al13  1  0.12069522  0.42870302  0.79324226  1
  Al  Al14  1  0.22492968  0.52873611  0.54955591  1
  Al  Al15  1  0.88463979  0.53755177  0.02912232  1
  Al  Al16  1  0.43564431  0.42525897  0.78784790  1
  Al  Al17  1  0.11798581  0.75890412  0.34961358  1
  Al  Al18  1  0.20720583  0.87850067  0.11598700  1
  Al  Al19  1  0.77838403  0.76210935  0.84519698  1
  Al  Al20  1  0.89447098  0.87269952  0.56522868  1
  Al  Al21  1  0.44055168  0.77487404  0.38014856  1
  Al  Al22  1  0.11489478  0.75038531  0.78450712  1
  Al  Al23  1  0.23260145  0.86594638  0.61231396  1
  Al  Al24  1  0.77916056  0.75843962  0.40488820  1
  Al  Al25  1  0.89723559  0.88128164  0.02249812  1
  Al  Al26  1  0.43597806  0.76153841  0.86025019  1
  Al  Al27  1  0.55575745  0.87218921  0.62227313  1
  Gd  Gd28  1  0.20825095  0.20948664  0.07598365  1
  Gd  Gd29  1  0.54768725  0.20833206  0.03696580  1
  Gd  Gd30  1  0.10847465  0.10003973  0.81787779  1
  Gd  Gd31  1  0.78781438  0.08137467  0.29898423  1
  Gd  Gd32  1  0.20115910  0.55132896  0.06366595  1
  Gd  Gd33  1  0.79361384  0.43493427  0.28511542  1
  Gd  Gd34  1  0.56479234  0.53232595  0.57131128  1
  Gd  Gd35  1  0.57321223  0.83780430  0.12703044  1
  N  N36  1  0.22565972  0.20972834  0.37117898  1
  N  N37  1  0.09060389  0.07917006  0.04342116  1
  N  N38  1  0.85016463  0.21785714  0.85105772  1
  N  N39  1  0.77829399  0.09771167  0.60168751  1
  N  N40  1  0.53544557  0.22203784  0.37514013  1
  N  N41  1  0.44817575  0.09117354  0.14840775  1
  N  N42  1  0.24422029  0.22426889  0.86222943  1
  N  N43  1  0.12134268  0.08683073  0.57522074  1
  N  N44  1  0.90951471  0.20013882  0.37778321  1
  N  N45  1  0.79077455  0.08619155  0.08744347  1
  N  N46  1  0.55553722  0.20296973  0.82551778  1
  N  N47  1  0.44360873  0.09614273  0.60786321  1
  N  N48  1  0.22563185  0.53626876  0.36427762  1
  N  N49  1  0.04594692  0.45343353  0.14952445  1
  N  N50  1  0.90197480  0.52466956  0.84767159  1
  N  N51  1  0.81787137  0.40460648  0.62764758  1
  N  N52  1  0.54079648  0.55253700  0.35927758  1
  N  N53  1  0.45337669  0.44278880  0.12906576  1
  N  N54  1  0.21914324  0.54244932  0.84361975  1
  N  N55  1  0.12133815  0.42130326  0.61387842  1
  N  N56  1  0.90469187  0.54096864  0.39763042  1
  N  N57  1  0.76493888  0.43748879  0.06720410  1
  N  N58  1  0.55116976  0.53274234  0.84080003  1
  N  N59  1  0.42810932  0.41470916  0.61246418  1
  N  N60  1  0.22771602  0.87739675  0.31345047  1
  N  N61  1  0.08225913  0.79121043  0.11176223  1
  N  N62  1  0.89596050  0.87746584  0.83211441  1
  N  N63  1  0.77741760  0.76074870  0.58938113  1
  N  N64  1  0.57191715  0.86487451  0.34238035  1
  N  N65  1  0.41291319  0.76030337  0.03836819  1
  N  N66  1  0.24094418  0.84170034  0.78644363  1
  N  N67  1  0.11924472  0.75322483  0.59019978  1
  N  N68  1  0.90581504  0.84907531  0.38819529  1
  N  N69  1  0.79820716  0.75856745  0.02495353  1
  N  N70  1  0.55218420  0.86812652  0.80587514  1
  N  N71  1  0.43383259  0.79396341  0.55506895  1
