# generated using pymatgen
data_Gd2Al7N9
_symmetry_space_group_name_H-M   'P 1'
_cell_length_a   9.93403889
_cell_length_b   9.85249285
_cell_length_c   10.54879684
_cell_angle_alpha   89.19055341
_cell_angle_beta   88.86345907
_cell_angle_gamma   59.95757765
_symmetry_Int_Tables_number   1
_chemical_formula_structural   Gd2Al7N9
_chemical_formula_sum   'Gd8 Al28 N36'
_cell_volume   893.57123512
_cell_formula_units_Z   4
loop_
 _symmetry_equiv_pos_site_id
 _symmetry_equiv_pos_as_xyz
  1  'x, y, z'
loop_
 _atom_site_type_symbol
 _atom_site_label
 _atom_site_symmetry_multiplicity
 _atom_site_fract_x
 _atom_site_fract_y
 _atom_site_fract_z
 _atom_site_occupancy
  Al  Al0  1  0.12738387  0.08586072  0.38488246  1
  Al  Al1  1  0.77090289  0.09335639  0.78487939  1
  Al  Al2  1  0.89551724  0.20700644  0.55871083  1
  Al  Al3  1  0.44449504  0.10194345  0.32207082  1
  Al  Al4  1  0.23089293  0.21115351  0.55535415  1
  Al  Al5  1  0.87607032  0.20167813  0.02699371  1
  Al  Al6  1  0.44811483  0.09019209  0.78809961  1
  Al  Al7  1  0.54629077  0.20855669  0.55834200  1
  Al  Al8  1  0.10786419  0.43520053  0.31984667  1
  Al  Al9  1  0.77888209  0.42894417  0.80928278  1
  Al  Al10  1  0.90041564  0.53933910  0.56337100  1
  Al  Al11  1  0.44139792  0.43759688  0.31061419  1
  Al  Al12  1  0.55129070  0.52920479  0.03373029  1
  Al  Al13  1  0.11767413  0.43193896  0.79354140  1
  Al  Al14  1  0.21859077  0.53843301  0.54609516  1
  Al  Al15  1  0.88846237  0.54196341  0.04199579  1
  Al  Al16  1  0.43290215  0.42273912  0.78788077  1
  Al  Al17  1  0.11164883  0.76181555  0.31155510  1
  Al  Al18  1  0.20745701  0.87781428  0.11421301  1
  Al  Al19  1  0.77529410  0.76333136  0.80001125  1
  Al  Al20  1  0.89327897  0.86501748  0.55441416  1
  Al  Al21  1  0.43684621  0.77281173  0.37423868  1
  Al  Al22  1  0.10910203  0.75049290  0.78722473  1
  Al  Al23  1  0.22841901  0.86496973  0.61063210  1
  Al  Al24  1  0.80012917  0.75486775  0.30992601  1
  Al  Al25  1  0.89563595  0.87202096  0.04736078  1
  Al  Al26  1  0.43303772  0.75828016  0.85888829  1
  Al  Al27  1  0.56381750  0.87844270  0.54941633  1
  Gd  Gd28  1  0.21031015  0.20346200  0.07292855  1
  Gd  Gd29  1  0.55587114  0.20149409  0.03823152  1
  Gd  Gd30  1  0.10643551  0.09910989  0.81398198  1
  Gd  Gd31  1  0.78176873  0.09442450  0.31158724  1
  Gd  Gd32  1  0.21411140  0.54639615  0.06501602  1
  Gd  Gd33  1  0.78724731  0.43937013  0.28802535  1
  Gd  Gd34  1  0.56283070  0.53703937  0.57959389  1
  Gd  Gd35  1  0.55747671  0.85199477  0.08125062  1
  N  N36  1  0.22618489  0.21042506  0.37123067  1
  N  N37  1  0.09124569  0.07356477  0.03964840  1
  N  N38  1  0.84779945  0.21766473  0.85001113  1
  N  N39  1  0.78042937  0.09332347  0.59910003  1
  N  N40  1  0.52923415  0.22625101  0.37738607  1
  N  N41  1  0.44675299  0.09127067  0.14719721  1
  N  N42  1  0.24243093  0.22289073  0.85452371  1
  N  N43  1  0.12088938  0.08753919  0.57716082  1
  N  N44  1  0.91267215  0.20591559  0.37897758  1
  N  N45  1  0.79529590  0.08254621  0.09775487  1
  N  N46  1  0.55479922  0.19990459  0.82164104  1
  N  N47  1  0.44609034  0.09068718  0.60491854  1
  N  N48  1  0.22314420  0.54220547  0.35836732  1
  N  N49  1  0.06683181  0.44196195  0.14362667  1
  N  N50  1  0.89620725  0.54030648  0.85753124  1
  N  N51  1  0.81971081  0.41099468  0.62700062  1
  N  N52  1  0.53890814  0.55222424  0.36084081  1
  N  N53  1  0.46287303  0.43211172  0.12915361  1
  N  N54  1  0.21940936  0.54110480  0.84624907  1
  N  N55  1  0.11594239  0.42799884  0.60994701  1
  N  N56  1  0.90245252  0.55350729  0.38556463  1
  N  N57  1  0.77002434  0.43413218  0.06684523  1
  N  N58  1  0.55267473  0.53065993  0.83738673  1
  N  N59  1  0.42232482  0.42021829  0.61022480  1
  N  N60  1  0.22763423  0.88122747  0.31149549  1
  N  N61  1  0.08658960  0.78554374  0.13152726  1
  N  N62  1  0.89077752  0.86986384  0.85467080  1
  N  N63  1  0.77706433  0.76307692  0.61664331  1
  N  N64  1  0.57360739  0.87115935  0.35911215  1
  N  N65  1  0.40596433  0.74588155  0.03963118  1
  N  N66  1  0.23791974  0.84069150  0.78875020  1
  N  N67  1  0.10823019  0.75560121  0.60173262  1
  N  N68  1  0.90732522  0.84872942  0.37691806  1
  N  N69  1  0.81056385  0.74610402  0.11928724  1
  N  N70  1  0.55390394  0.87195083  0.85185459  1
  N  N71  1  0.42952213  0.79542594  0.55385533  1
