# generated using pymatgen
data_Gd2Al7N9
_symmetry_space_group_name_H-M   'P 1'
_cell_length_a   9.90241960
_cell_length_b   9.86867787
_cell_length_c   10.48155556
_cell_angle_alpha   89.27497712
_cell_angle_beta   88.96282620
_cell_angle_gamma   60.21031043
_symmetry_Int_Tables_number   1
_chemical_formula_structural   Gd2Al7N9
_chemical_formula_sum   'Gd8 Al28 N36'
_cell_volume   888.78786989
_cell_formula_units_Z   4
loop_
 _symmetry_equiv_pos_site_id
 _symmetry_equiv_pos_as_xyz
  1  'x, y, z'
loop_
 _atom_site_type_symbol
 _atom_site_label
 _atom_site_symmetry_multiplicity
 _atom_site_fract_x
 _atom_site_fract_y
 _atom_site_fract_z
 _atom_site_occupancy
  Al  Al0  1  0.12193542  0.09374626  0.38490232  1
  Al  Al1  1  0.77066555  0.09235970  0.78565824  1
  Al  Al2  1  0.89288609  0.20880103  0.56048050  1
  Al  Al3  1  0.44315686  0.09983869  0.32395874  1
  Al  Al4  1  0.22882936  0.21402735  0.55650404  1
  Al  Al5  1  0.87760946  0.20243335  0.02617920  1
  Al  Al6  1  0.44616731  0.09345398  0.78484681  1
  Al  Al7  1  0.54628082  0.20839617  0.55774040  1
  Al  Al8  1  0.10629153  0.43702580  0.31988349  1
  Al  Al9  1  0.77843753  0.42862285  0.81159663  1
  Al  Al10  1  0.89890971  0.53946575  0.56294119  1
  Al  Al11  1  0.43992716  0.43733422  0.31003778  1
  Al  Al12  1  0.54939269  0.53982084  0.03651615  1
  Al  Al13  1  0.11612494  0.43031639  0.79296268  1
  Al  Al14  1  0.21865984  0.53999404  0.54746588  1
  Al  Al15  1  0.88904134  0.54192908  0.04221090  1
  Al  Al16  1  0.43276343  0.42373836  0.78908075  1
  Al  Al17  1  0.11399434  0.76574791  0.30904805  1
  Al  Al18  1  0.21301747  0.86387388  0.04110225  1
  Al  Al19  1  0.77887452  0.76206604  0.79717338  1
  Al  Al20  1  0.89437145  0.86427303  0.55559189  1
  Al  Al21  1  0.43744721  0.76572573  0.31509634  1
  Al  Al22  1  0.11233606  0.74933557  0.79433361  1
  Al  Al23  1  0.22568938  0.86501493  0.55791960  1
  Al  Al24  1  0.79693490  0.75420189  0.31207590  1
  Al  Al25  1  0.89709022  0.87212530  0.05011277  1
  Al  Al26  1  0.44108622  0.76051082  0.80208749  1
  Al  Al27  1  0.55741768  0.87471393  0.55726168  1
  Gd  Gd28  1  0.21231156  0.20269284  0.07161271  1
  Gd  Gd29  1  0.55655134  0.20494335  0.04017385  1
  Gd  Gd30  1  0.10991344  0.08931631  0.80824201  1
  Gd  Gd31  1  0.78171361  0.09240025  0.31254139  1
  Gd  Gd32  1  0.21354452  0.54524339  0.06695577  1
  Gd  Gd33  1  0.78632159  0.43854011  0.28504045  1
  Gd  Gd34  1  0.56313299  0.53684540  0.57213452  1
  Gd  Gd35  1  0.56317372  0.86030869  0.06101293  1
  N  N36  1  0.22378318  0.21292671  0.37015991  1
  N  N37  1  0.08997992  0.07906545  0.04233676  1
  N  N38  1  0.85024443  0.21596533  0.84764046  1
  N  N39  1  0.78023715  0.09204147  0.59879121  1
  N  N40  1  0.52853468  0.22657024  0.37625487  1
  N  N41  1  0.45024458  0.08998610  0.14798914  1
  N  N42  1  0.23959727  0.21985537  0.84923498  1
  N  N43  1  0.11885819  0.09115537  0.57879823  1
  N  N44  1  0.90866921  0.20863453  0.37910128  1
  N  N45  1  0.79673193  0.08259054  0.09798736  1
  N  N46  1  0.55403793  0.20095781  0.82206714  1
  N  N47  1  0.44458926  0.09186291  0.60176988  1
  N  N48  1  0.22154543  0.54462052  0.35772171  1
  N  N49  1  0.06770415  0.44077460  0.14292965  1
  N  N50  1  0.89518162  0.54210308  0.85707672  1
  N  N51  1  0.81729301  0.41214628  0.62758760  1
  N  N52  1  0.53649684  0.55421087  0.36006366  1
  N  N53  1  0.46294518  0.43478430  0.12797673  1
  N  N54  1  0.21931894  0.53652456  0.84672196  1
  N  N55  1  0.11454621  0.43033217  0.60848426  1
  N  N56  1  0.90039311  0.55259293  0.38466601  1
  N  N57  1  0.77201160  0.43235081  0.06365397  1
  N  N58  1  0.54997459  0.53632022  0.84157173  1
  N  N59  1  0.42353257  0.41975812  0.61022497  1
  N  N60  1  0.22464006  0.87175357  0.37130253  1
  N  N61  1  0.09480204  0.78926646  0.12719407  1
  N  N62  1  0.88969385  0.86968387  0.85603207  1
  N  N63  1  0.77842242  0.76188124  0.61477225  1
  N  N64  1  0.56306060  0.86732586  0.36662199  1
  N  N65  1  0.42225917  0.74829194  0.10133684  1
  N  N66  1  0.23370977  0.83184434  0.85751896  1
  N  N67  1  0.11208498  0.75861884  0.60960913  1
  N  N68  1  0.90885892  0.84638432  0.37669196  1
  N  N69  1  0.81207717  0.74533443  0.12275263  1
  N  N70  1  0.55431680  0.87389101  0.84145151  1
  N  N71  1  0.42890949  0.79131712  0.61957363  1
