# generated using pymatgen
data_Gd2Al7N9
_symmetry_space_group_name_H-M   'P 1'
_cell_length_a   9.75833756
_cell_length_b   9.83186584
_cell_length_c   10.84795091
_cell_angle_alpha   90.49412169
_cell_angle_beta   89.02151812
_cell_angle_gamma   60.04243361
_symmetry_Int_Tables_number   1
_chemical_formula_structural   Gd2Al7N9
_chemical_formula_sum   'Gd8 Al28 N36'
_cell_volume   901.42000159
_cell_formula_units_Z   4
loop_
 _symmetry_equiv_pos_site_id
 _symmetry_equiv_pos_as_xyz
  1  'x, y, z'
loop_
 _atom_site_type_symbol
 _atom_site_label
 _atom_site_symmetry_multiplicity
 _atom_site_fract_x
 _atom_site_fract_y
 _atom_site_fract_z
 _atom_site_occupancy
  Al  Al0  1  0.13218894  0.08058426  0.43152697  1
  Al  Al1  1  0.78049926  0.10031163  0.83109447  1
  Al  Al2  1  0.90097684  0.19703135  0.59724985  1
  Al  Al3  1  0.45551885  0.09584400  0.41865167  1
  Al  Al4  1  0.23410291  0.20345519  0.64803866  1
  Al  Al5  1  0.86741552  0.21540682  0.06580683  1
  Al  Al6  1  0.44597573  0.09001129  0.88677612  1
  Al  Al7  1  0.55785889  0.19236111  0.66201372  1
  Al  Al8  1  0.12545113  0.42266411  0.43751481  1
  Al  Al9  1  0.77138796  0.41935132  0.83485481  1
  Al  Al10  1  0.90077127  0.53097504  0.66549312  1
  Al  Al11  1  0.43418165  0.44335741  0.32797185  1
  Al  Al12  1  0.52613538  0.55362693  0.07441083  1
  Al  Al13  1  0.12692481  0.42387545  0.88999498  1
  Al  Al14  1  0.21701451  0.53795574  0.65490009  1
  Al  Al15  1  0.87345449  0.53657926  0.04107438  1
  Al  Al16  1  0.43866966  0.42930756  0.82928579  1
  Al  Al17  1  0.12910159  0.75154690  0.43056719  1
  Al  Al18  1  0.20656311  0.87730860  0.15305762  1
  Al  Al19  1  0.77154495  0.76648451  0.87627502  1
  Al  Al20  1  0.90050579  0.86437367  0.65481153  1
  Al  Al21  1  0.44366713  0.77453196  0.40940140  1
  Al  Al22  1  0.13156961  0.74966107  0.89500045  1
  Al  Al23  1  0.23160099  0.86773633  0.65678361  1
  Al  Al24  1  0.80219096  0.74460158  0.42258555  1
  Al  Al25  1  0.88121503  0.89304968  0.04423515  1
  Al  Al26  1  0.44606757  0.75731348  0.89308964  1
  Al  Al27  1  0.55850534  0.87304351  0.64711933  1
  Gd  Gd28  1  0.19897833  0.22084924  0.17845831  1
  Gd  Gd29  1  0.52289081  0.23799642  0.10049304  1
  Gd  Gd30  1  0.13607831  0.08362885  0.89950668  1
  Gd  Gd31  1  0.79990274  0.07305252  0.32760553  1
  Gd  Gd32  1  0.10847308  0.60647556  0.19486688  1
  Gd  Gd33  1  0.79551369  0.42262351  0.31782097  1
  Gd  Gd34  1  0.56182565  0.52682150  0.59000742  1
  Gd  Gd35  1  0.56406102  0.86517718  0.15565541  1
  N  N36  1  0.23228314  0.19830524  0.39451986  1
  N  N37  1  0.08059350  0.09683419  0.11322369  1
  N  N38  1  0.87012718  0.21385910  0.89112219  1
  N  N39  1  0.78601079  0.09076349  0.65150193  1
  N  N40  1  0.52799266  0.21461038  0.32859849  1
  N  N41  1  0.41498006  0.08954284  0.05863161  1
  N  N42  1  0.24394928  0.21964844  0.82169042  1
  N  N43  1  0.12635656  0.08347085  0.61667076  1
  N  N44  1  0.91177988  0.19573944  0.42357511  1
  N  N45  1  0.78213009  0.09077205  0.11269697  1
  N  N46  1  0.55718216  0.20114685  0.85467248  1
  N  N47  1  0.46080287  0.08761688  0.59833240  1
  N  N48  1  0.23074152  0.53397657  0.39299752  1
  N  N49  1  0.08793841  0.43193599  0.06105547  1
  N  N50  1  0.88578994  0.53884322  0.85352547  1
  N  N51  1  0.80804038  0.40423785  0.66161948  1
  N  N52  1  0.54235570  0.55176839  0.38406551  1
  N  N53  1  0.39966608  0.49017751  0.15628681  1
  N  N54  1  0.21366462  0.54509480  0.83825238  1
  N  N55  1  0.11238658  0.42657565  0.61187977  1
  N  N56  1  0.92825689  0.53700147  0.36269188  1
  N  N57  1  0.75629676  0.44275925  0.10153205  1
  N  N58  1  0.55134745  0.53110067  0.88397057  1
  N  N59  1  0.43670019  0.40708985  0.65513534  1
  N  N60  1  0.22766476  0.87152925  0.34718772  1
  N  N61  1  0.09594338  0.79391155  0.06639739  1
  N  N62  1  0.89344144  0.87352579  0.85136912  1
  N  N63  1  0.78958400  0.75110156  0.61232843  1
  N  N64  1  0.57603063  0.86696039  0.37156969  1
  N  N65  1  0.41560495  0.77404882  0.07123922  1
  N  N66  1  0.24643746  0.83681647  0.82653501  1
  N  N67  1  0.12020975  0.75927072  0.60754328  1
  N  N68  1  0.92781417  0.82618079  0.36967495  1
  N  N69  1  0.79753427  0.75576363  0.05364675  1
  N  N70  1  0.55402736  0.86881406  0.82991332  1
  N  N71  1  0.43494693  0.79006008  0.58710361  1
