# generated using pymatgen
data_Gd2Al7N9
_symmetry_space_group_name_H-M   'P 1'
_cell_length_a   9.74114550
_cell_length_b   9.80488641
_cell_length_c   11.05646686
_cell_angle_alpha   89.81455965
_cell_angle_beta   89.55534725
_cell_angle_gamma   60.01379485
_symmetry_Int_Tables_number   1
_chemical_formula_structural   Gd2Al7N9
_chemical_formula_sum   'Gd8 Al28 N36'
_cell_volume   914.63275893
_cell_formula_units_Z   4
loop_
 _symmetry_equiv_pos_site_id
 _symmetry_equiv_pos_as_xyz
  1  'x, y, z'
loop_
 _atom_site_type_symbol
 _atom_site_label
 _atom_site_symmetry_multiplicity
 _atom_site_fract_x
 _atom_site_fract_y
 _atom_site_fract_z
 _atom_site_occupancy
  Al  Al0  1  0.12664467  0.08630112  0.40660967  1
  Al  Al1  1  0.77458773  0.09551583  0.79552148  1
  Al  Al2  1  0.89745795  0.20212428  0.57133743  1
  Al  Al3  1  0.44246964  0.09550938  0.40667755  1
  Al  Al4  1  0.23144121  0.20690079  0.63099709  1
  Al  Al5  1  0.87202990  0.20913061  0.04464473  1
  Al  Al6  1  0.44715460  0.08762432  0.85808114  1
  Al  Al7  1  0.55517587  0.20899915  0.56989970  1
  Al  Al8  1  0.12582885  0.42622583  0.41257378  1
  Al  Al9  1  0.77934882  0.41977233  0.80867516  1
  Al  Al10  1  0.89696402  0.53153538  0.58285967  1
  Al  Al11  1  0.43790252  0.43990231  0.31986409  1
  Al  Al12  1  0.54372763  0.54083160  0.05096960  1
  Al  Al13  1  0.11920861  0.42406452  0.86384499  1
  Al  Al14  1  0.21357765  0.54203677  0.64019668  1
  Al  Al15  1  0.88156645  0.53043947  0.02103238  1
  Al  Al16  1  0.44566133  0.41836961  0.80080099  1
  Al  Al17  1  0.12712638  0.75101060  0.40351673  1
  Al  Al18  1  0.21044203  0.87635143  0.12450060  1
  Al  Al19  1  0.77800154  0.76028262  0.85395008  1
  Al  Al20  1  0.89397831  0.87364470  0.57632820  1
  Al  Al21  1  0.43378998  0.78152057  0.38963371  1
  Al  Al22  1  0.12296074  0.75417251  0.86588833  1
  Al  Al23  1  0.22849847  0.87011112  0.63226577  1
  Al  Al24  1  0.77475344  0.76199235  0.41310127  1
  Al  Al25  1  0.88542649  0.88774268  0.02366600  1
  Al  Al26  1  0.44557974  0.75264729  0.87195545  1
  Al  Al27  1  0.55293416  0.87834779  0.63423837  1
  Gd  Gd28  1  0.21124777  0.20634068  0.14826003  1
  Gd  Gd29  1  0.54475142  0.22616829  0.04471868  1
  Gd  Gd30  1  0.12720080  0.08266584  0.87106242  1
  Gd  Gd31  1  0.78744654  0.08199909  0.31348889  1
  Gd  Gd32  1  0.16991353  0.57323456  0.13944224  1
  Gd  Gd33  1  0.78508483  0.43355012  0.30275263  1
  Gd  Gd34  1  0.55746984  0.53798925  0.57507545  1
  Gd  Gd35  1  0.57039651  0.85523664  0.13121037  1
  N  N36  1  0.22491054  0.20635110  0.36220241  1
  N  N37  1  0.08928253  0.08991803  0.07959710  1
  N  N38  1  0.86082108  0.21262572  0.86948251  1
  N  N39  1  0.78132134  0.09602806  0.61992980  1
  N  N40  1  0.53464184  0.22885393  0.38939761  1
  N  N41  1  0.43108937  0.08160028  0.03667768  1
  N  N42  1  0.23923919  0.21824597  0.80092895  1
  N  N43  1  0.12301084  0.08780668  0.58848433  1
  N  N44  1  0.90582152  0.20164243  0.39797858  1
  N  N45  1  0.79082331  0.08027737  0.10456674  1
  N  N46  1  0.55764525  0.20011518  0.84113801  1
  N  N47  1  0.45131970  0.09004796  0.58061475  1
  N  N48  1  0.21580583  0.54243088  0.34740182  1
  N  N49  1  0.10048326  0.42003064  0.03746405  1
  N  N50  1  0.88577074  0.53347123  0.84695243  1
  N  N51  1  0.81113557  0.40666983  0.63711727  1
  N  N52  1  0.53385288  0.55849126  0.37122373  1
  N  N53  1  0.43957740  0.45632032  0.14376884  1
  N  N54  1  0.21512894  0.54249736  0.81808319  1
  N  N55  1  0.12080444  0.42570698  0.58511423  1
  N  N56  1  0.89938365  0.54403985  0.39981899  1
  N  N57  1  0.76901192  0.43453813  0.08809302  1
  N  N58  1  0.55583237  0.52496697  0.86276721  1
  N  N59  1  0.43475048  0.41232580  0.63197856  1
  N  N60  1  0.21937738  0.87626102  0.32266318  1
  N  N61  1  0.10480469  0.79046106  0.03920597  1
  N  N62  1  0.88871588  0.87849200  0.84511311  1
  N  N63  1  0.77497980  0.76156957  0.59323990  1
  N  N64  1  0.56261401  0.87802099  0.34589310  1
  N  N65  1  0.42137850  0.76236573  0.04893935  1
  N  N66  1  0.24592695  0.83552820  0.80015102  1
  N  N67  1  0.12638320  0.75558354  0.57966601  1
  N  N68  1  0.90334036  0.85163210  0.39948958  1
  N  N69  1  0.80403347  0.74855432  0.03863473  1
  N  N70  1  0.55349489  0.86535425  0.81132183  1
  N  N71  1  0.42953145  0.79967948  0.56348506  1
