# generated using pymatgen
data_Gd2Al7N9
_symmetry_space_group_name_H-M   'P 1'
_cell_length_a   9.89285132
_cell_length_b   9.85626046
_cell_length_c   10.63799412
_cell_angle_alpha   89.24483385
_cell_angle_beta   89.07393811
_cell_angle_gamma   59.89689066
_symmetry_Int_Tables_number   1
_chemical_formula_structural   Gd2Al7N9
_chemical_formula_sum   'Gd8 Al28 N36'
_cell_volume   897.23800748
_cell_formula_units_Z   4
loop_
 _symmetry_equiv_pos_site_id
 _symmetry_equiv_pos_as_xyz
  1  'x, y, z'
loop_
 _atom_site_type_symbol
 _atom_site_label
 _atom_site_symmetry_multiplicity
 _atom_site_fract_x
 _atom_site_fract_y
 _atom_site_fract_z
 _atom_site_occupancy
  Al  Al0  1  0.12673405  0.08579306  0.38424428  1
  Al  Al1  1  0.77186574  0.09515487  0.78417785  1
  Al  Al2  1  0.89432169  0.20519645  0.55620808  1
  Al  Al3  1  0.44393741  0.10480235  0.32294088  1
  Al  Al4  1  0.23011111  0.21046731  0.55500618  1
  Al  Al5  1  0.87547613  0.20411144  0.02531377  1
  Al  Al6  1  0.44914459  0.08997406  0.78903660  1
  Al  Al7  1  0.54765221  0.20840891  0.55827297  1
  Al  Al8  1  0.10762237  0.43520282  0.32014972  1
  Al  Al9  1  0.77801928  0.42688559  0.80586461  1
  Al  Al10  1  0.90211668  0.53369764  0.57082813  1
  Al  Al11  1  0.44086410  0.43821294  0.30836903  1
  Al  Al12  1  0.54816594  0.53026434  0.03433359  1
  Al  Al13  1  0.12072023  0.42896442  0.79314146  1
  Al  Al14  1  0.21903321  0.53749280  0.54627769  1
  Al  Al15  1  0.88901847  0.53770991  0.03249774  1
  Al  Al16  1  0.43410235  0.42378160  0.78749478  1
  Al  Al17  1  0.11018074  0.76168524  0.31180995  1
  Al  Al18  1  0.20846136  0.87951801  0.11893419  1
  Al  Al19  1  0.77615156  0.76267783  0.80661270  1
  Al  Al20  1  0.89453833  0.86878535  0.56200607  1
  Al  Al21  1  0.43574314  0.77307254  0.37389717  1
  Al  Al22  1  0.11270194  0.74918771  0.78525567  1
  Al  Al23  1  0.22812929  0.86566164  0.61212676  1
  Al  Al24  1  0.79296468  0.75634376  0.35603944  1
  Al  Al25  1  0.89727605  0.87663165  0.03620683  1
  Al  Al26  1  0.43432114  0.75921788  0.86232300  1
  Al  Al27  1  0.55778391  0.88062162  0.55768397  1
  Gd  Gd28  1  0.21243981  0.20368474  0.07409883  1
  Gd  Gd29  1  0.55092084  0.20417137  0.03531499  1
  Gd  Gd30  1  0.10896644  0.09779755  0.81635689  1
  Gd  Gd31  1  0.78222426  0.08986933  0.30419775  1
  Gd  Gd32  1  0.20316708  0.55297487  0.06469712  1
  Gd  Gd33  1  0.79145817  0.43709847  0.28484735  1
  Gd  Gd34  1  0.56178580  0.53697756  0.57560648  1
  Gd  Gd35  1  0.56600350  0.84569370  0.08985671  1
  N  N36  1  0.22577791  0.21085616  0.37223190  1
  N  N37  1  0.09219927  0.07473402  0.04137483  1
  N  N38  1  0.85022769  0.21740920  0.84970546  1
  N  N39  1  0.77977545  0.09478153  0.60060671  1
  N  N40  1  0.53144884  0.22668286  0.37800651  1
  N  N41  1  0.45082532  0.08930653  0.15021448  1
  N  N42  1  0.24476836  0.22220288  0.85769902  1
  N  N43  1  0.12003667  0.08731896  0.57586109  1
  N  N44  1  0.91044307  0.20302431  0.37692685  1
  N  N45  1  0.79245315  0.08569669  0.09146381  1
  N  N46  1  0.55553059  0.20053441  0.82067038  1
  N  N47  1  0.44469143  0.09260425  0.60646700  1
  N  N48  1  0.22224600  0.54259060  0.35936748  1
  N  N49  1  0.06018299  0.44233590  0.14683194  1
  N  N50  1  0.89958198  0.53178943  0.84960172  1
  N  N51  1  0.81742722  0.40780277  0.62555209  1
  N  N52  1  0.54051617  0.55279552  0.35759931  1
  N  N53  1  0.45568733  0.43511013  0.12822409  1
  N  N54  1  0.21986820  0.54089781  0.84642789  1
  N  N55  1  0.11870999  0.42517213  0.61138906  1
  N  N56  1  0.90467130  0.54724389  0.39329877  1
  N  N57  1  0.76818037  0.43447434  0.06621899  1
  N  N58  1  0.55222913  0.53107712  0.83853511  1
  N  N59  1  0.42333196  0.41971877  0.61049103  1
  N  N60  1  0.22828948  0.88279251  0.30896210  1
  N  N61  1  0.08193364  0.79170374  0.13459920  1
  N  N62  1  0.89530004  0.87311100  0.84544144  1
  N  N63  1  0.77638213  0.76242282  0.61575850  1
  N  N64  1  0.57155301  0.87335907  0.36414183  1
  N  N65  1  0.40645392  0.74781040  0.04121768  1
  N  N66  1  0.24054871  0.84024514  0.78823368  1
  N  N67  1  0.11155269  0.75369943  0.60215987  1
  N  N68  1  0.90844656  0.84998886  0.38480544  1
  N  N69  1  0.81658368  0.74570951  0.07254469  1
  N  N70  1  0.55241221  0.87244971  0.84999620  1
  N  N71  1  0.42691567  0.79570478  0.55102640  1
