# generated using pymatgen
data_Gd2Al7N9
_symmetry_space_group_name_H-M   'P 1'
_cell_length_a   9.83623601
_cell_length_b   9.74926073
_cell_length_c   11.14445015
_cell_angle_alpha   88.96816942
_cell_angle_beta   89.13160236
_cell_angle_gamma   59.89758059
_symmetry_Int_Tables_number   1
_chemical_formula_structural   Gd2Al7N9
_chemical_formula_sum   'Gd8 Al28 N36'
_cell_volume   924.39896940
_cell_formula_units_Z   4
loop_
 _symmetry_equiv_pos_site_id
 _symmetry_equiv_pos_as_xyz
  1  'x, y, z'
loop_
 _atom_site_type_symbol
 _atom_site_label
 _atom_site_symmetry_multiplicity
 _atom_site_fract_x
 _atom_site_fract_y
 _atom_site_fract_z
 _atom_site_occupancy
  Al  Al0  1  0.12617142  0.08706781  0.42624985  1
  Al  Al1  1  0.76837052  0.09642115  0.79370205  1
  Al  Al2  1  0.89368115  0.20883622  0.57540866  1
  Al  Al3  1  0.44811108  0.10526082  0.34355345  1
  Al  Al4  1  0.23501992  0.21311613  0.58608079  1
  Al  Al5  1  0.86792126  0.20344310  0.02957697  1
  Al  Al6  1  0.45114747  0.09864485  0.78911866  1
  Al  Al7  1  0.55471714  0.20595337  0.56101699  1
  Al  Al8  1  0.10335047  0.44490989  0.35096117  1
  Al  Al9  1  0.77512513  0.42607019  0.81207859  1
  Al  Al10  1  0.90217012  0.53407497  0.57986838  1
  Al  Al11  1  0.44408226  0.44373671  0.31179860  1
  Al  Al12  1  0.55136082  0.52844502  0.03885912  1
  Al  Al13  1  0.11158735  0.42898546  0.80026120  1
  Al  Al14  1  0.22071607  0.54559573  0.63540823  1
  Al  Al15  1  0.88738119  0.52449570  0.04263589  1
  Al  Al16  1  0.44786034  0.41671816  0.79953031  1
  Al  Al17  1  0.12966871  0.75983792  0.39962208  1
  Al  Al18  1  0.21230346  0.86852169  0.05557302  1
  Al  Al19  1  0.77565059  0.75744854  0.86302361  1
  Al  Al20  1  0.89654417  0.87693626  0.57531276  1
  Al  Al21  1  0.43465472  0.78715978  0.39946683  1
  Al  Al22  1  0.11504440  0.75392005  0.85739329  1
  Al  Al23  1  0.23454847  0.86316249  0.63386061  1
  Al  Al24  1  0.77801475  0.76825637  0.41782007  1
  Al  Al25  1  0.88404333  0.88148039  0.02343297  1
  Al  Al26  1  0.44751503  0.75539932  0.86310642  1
  Al  Al27  1  0.56378075  0.86791164  0.63261984  1
  Gd  Gd28  1  0.17765028  0.17321475  0.17974498  1
  Gd  Gd29  1  0.53976368  0.19989905  0.04961765  1
  Gd  Gd30  1  0.10769743  0.10485752  0.83272868  1
  Gd  Gd31  1  0.79436999  0.08872246  0.30904462  1
  Gd  Gd32  1  0.19510932  0.54466906  0.12407112  1
  Gd  Gd33  1  0.79227643  0.44307907  0.29616637  1
  Gd  Gd34  1  0.56911444  0.52645242  0.56800744  1
  Gd  Gd35  1  0.56675484  0.83886427  0.14810411  1
  N  N36  1  0.22684200  0.21395002  0.39798443  1
  N  N37  1  0.08949929  0.08157740  0.04165864  1
  N  N38  1  0.84501213  0.21840620  0.86159618  1
  N  N39  1  0.77952222  0.10030375  0.61759775  1
  N  N40  1  0.54039307  0.22928747  0.38670667  1
  N  N41  1  0.42791508  0.10058751  0.17021500  1
  N  N42  1  0.24562488  0.21990316  0.82726483  1
  N  N43  1  0.12049661  0.09019404  0.59952906  1
  N  N44  1  0.90903220  0.21170092  0.39974570  1
  N  N45  1  0.79208827  0.07595468  0.10063240  1
  N  N46  1  0.55717442  0.19764911  0.84397733  1
  N  N47  1  0.45611357  0.09221196  0.61445321  1
  N  N48  1  0.21883757  0.55333785  0.33209416  1
  N  N49  1  0.03933671  0.43799534  0.17277617  1
  N  N50  1  0.90078731  0.52122521  0.86590612  1
  N  N51  1  0.81513374  0.41236400  0.64237439  1
  N  N52  1  0.53620249  0.56461911  0.36380523  1
  N  N53  1  0.46054324  0.43347520  0.13471491  1
  N  N54  1  0.21991277  0.54205347  0.81585557  1
  N  N55  1  0.11265180  0.43366962  0.62316384  1
  N  N56  1  0.89966257  0.54863593  0.41009515  1
  N  N57  1  0.76738064  0.42600932  0.08249660  1
  N  N58  1  0.55442734  0.52811941  0.85536044  1
  N  N59  1  0.43795851  0.41034431  0.62867554  1
  N  N60  1  0.22120862  0.89149336  0.34962064  1
  N  N61  1  0.10107107  0.77161654  0.02984950  1
  N  N62  1  0.88495173  0.87651068  0.84369763  1
  N  N63  1  0.78064515  0.76456174  0.59389994  1
  N  N64  1  0.57023161  0.87220435  0.35793759  1
  N  N65  1  0.42716305  0.75591821  0.03771413  1
  N  N66  1  0.24163705  0.83942255  0.80384795  1
  N  N67  1  0.12785648  0.75784735  0.57780953  1
  N  N68  1  0.90573347  0.85897053  0.39969233  1
  N  N69  1  0.79028541  0.75356741  0.04093989  1
  N  N70  1  0.55952991  0.86168544  0.80924785  1
  N  N71  1  0.43761200  0.78974970  0.57270478  1
