# generated using pymatgen
data_Gd2Al7N9
_symmetry_space_group_name_H-M   'P 1'
_cell_length_a   9.73321680
_cell_length_b   9.79678140
_cell_length_c   11.10151500
_cell_angle_alpha   89.98074308
_cell_angle_beta   89.72916705
_cell_angle_gamma   60.00849427
_symmetry_Int_Tables_number   1
_chemical_formula_structural   Gd2Al7N9
_chemical_formula_sum   'Gd8 Al28 N36'
_cell_volume   916.81945732
_cell_formula_units_Z   4
loop_
 _symmetry_equiv_pos_site_id
 _symmetry_equiv_pos_as_xyz
  1  'x, y, z'
loop_
 _atom_site_type_symbol
 _atom_site_label
 _atom_site_symmetry_multiplicity
 _atom_site_fract_x
 _atom_site_fract_y
 _atom_site_fract_z
 _atom_site_occupancy
  Al  Al0  1  0.12564845  0.08386740  0.40813168  1
  Al  Al1  1  0.77983773  0.09511811  0.79556145  1
  Al  Al2  1  0.89664143  0.20174743  0.57028769  1
  Al  Al3  1  0.44394510  0.09376898  0.40983841  1
  Al  Al4  1  0.22097395  0.21135881  0.62583752  1
  Al  Al5  1  0.86986725  0.20929511  0.04359220  1
  Al  Al6  1  0.45350094  0.09484160  0.79936200  1
  Al  Al7  1  0.55790321  0.21010688  0.57073049  1
  Al  Al8  1  0.12571738  0.42755179  0.41356864  1
  Al  Al9  1  0.78174091  0.41941109  0.80804243  1
  Al  Al10  1  0.89667866  0.53151291  0.58219633  1
  Al  Al11  1  0.43856126  0.43725605  0.31917341  1
  Al  Al12  1  0.54511398  0.53800350  0.04987795  1
  Al  Al13  1  0.11892571  0.42683510  0.86350588  1
  Al  Al14  1  0.21316402  0.54352760  0.64116645  1
  Al  Al15  1  0.88224132  0.53160158  0.02027775  1
  Al  Al16  1  0.44677411  0.42161991  0.80031058  1
  Al  Al17  1  0.12758880  0.75052412  0.40282135  1
  Al  Al18  1  0.21082668  0.87701159  0.12302601  1
  Al  Al19  1  0.77670302  0.76257489  0.85625541  1
  Al  Al20  1  0.89485007  0.87380261  0.57524566  1
  Al  Al21  1  0.43286769  0.78035304  0.39114075  1
  Al  Al22  1  0.12239668  0.75649422  0.86683469  1
  Al  Al23  1  0.22721929  0.87049509  0.63406271  1
  Al  Al24  1  0.77698687  0.76025216  0.41318632  1
  Al  Al25  1  0.88406046  0.88877637  0.02395199  1
  Al  Al26  1  0.44636903  0.75371736  0.87218654  1
  Al  Al27  1  0.55823497  0.86798848  0.63009944  1
  Gd  Gd28  1  0.19793963  0.21457688  0.15970987  1
  Gd  Gd29  1  0.53579404  0.21965988  0.04070697  1
  Gd  Gd30  1  0.13477188  0.08419582  0.87760901  1
  Gd  Gd31  1  0.78466487  0.08182252  0.31062203  1
  Gd  Gd32  1  0.17373713  0.57126636  0.13729012  1
  Gd  Gd33  1  0.78382692  0.43275960  0.30141646  1
  Gd  Gd34  1  0.55831100  0.53593250  0.57375468  1
  Gd  Gd35  1  0.57125869  0.84900335  0.13949196  1
  N  N36  1  0.22590882  0.20451562  0.37342066  1
  N  N37  1  0.08699366  0.09003190  0.08178295  1
  N  N38  1  0.86642434  0.21168968  0.86859680  1
  N  N39  1  0.78275616  0.09548026  0.62024800  1
  N  N40  1  0.53473796  0.22708876  0.39481858  1
  N  N41  1  0.42576898  0.08270141  0.07666738  1
  N  N42  1  0.23579398  0.22367260  0.79539032  1
  N  N43  1  0.12143692  0.08658476  0.58724933  1
  N  N44  1  0.90437581  0.20059112  0.39693361  1
  N  N45  1  0.78585792  0.08336930  0.10199084  1
  N  N46  1  0.56006421  0.20080335  0.83589767  1
  N  N47  1  0.45368577  0.08957446  0.59541615  1
  N  N48  1  0.21610470  0.54136683  0.34591126  1
  N  N49  1  0.10247991  0.41993861  0.03500274  1
  N  N50  1  0.88544180  0.53543079  0.84633920  1
  N  N51  1  0.81208960  0.40616243  0.63651478  1
  N  N52  1  0.53330271  0.55741340  0.37089322  1
  N  N53  1  0.44461452  0.44984246  0.14316734  1
  N  N54  1  0.21620694  0.54427327  0.81794233  1
  N  N55  1  0.11924122  0.42923420  0.58450348  1
  N  N56  1  0.89973462  0.54233887  0.39849177  1
  N  N57  1  0.77020796  0.43524953  0.08754290  1
  N  N58  1  0.55783518  0.52556307  0.86145169  1
  N  N59  1  0.43429142  0.41328761  0.63226226  1
  N  N60  1  0.21984089  0.87555718  0.32369098  1
  N  N61  1  0.10400047  0.79056530  0.03953403  1
  N  N62  1  0.88893160  0.87915090  0.84518489  1
  N  N63  1  0.77761277  0.75978816  0.59125045  1
  N  N64  1  0.56291846  0.87654551  0.35423340  1
  N  N65  1  0.42093247  0.76081221  0.04755049  1
  N  N66  1  0.24501674  0.83860708  0.80124032  1
  N  N67  1  0.12648301  0.75561158  0.57908454  1
  N  N68  1  0.90344325  0.85215923  0.39874021  1
  N  N69  1  0.80162536  0.75090064  0.03745261  1
  N  N70  1  0.55384965  0.86657844  0.80702772  1
  N  N71  1  0.42814162  0.79768447  0.56392829  1
