# generated using pymatgen
data_Gd2Al7N9
_symmetry_space_group_name_H-M   'P 1'
_cell_length_a   9.87557950
_cell_length_b   9.86107546
_cell_length_c   10.50179443
_cell_angle_alpha   89.74933260
_cell_angle_beta   89.29196524
_cell_angle_gamma   60.11589068
_symmetry_Int_Tables_number   1
_chemical_formula_structural   Gd2Al7N9
_chemical_formula_sum   'Gd8 Al28 N36'
_cell_volume   886.65143165
_cell_formula_units_Z   4
loop_
 _symmetry_equiv_pos_site_id
 _symmetry_equiv_pos_as_xyz
  1  'x, y, z'
loop_
 _atom_site_type_symbol
 _atom_site_label
 _atom_site_symmetry_multiplicity
 _atom_site_fract_x
 _atom_site_fract_y
 _atom_site_fract_z
 _atom_site_occupancy
  Al  Al0  1  0.12183910  0.09100466  0.38252755  1
  Al  Al1  1  0.77225936  0.09298555  0.78507230  1
  Al  Al2  1  0.89321611  0.20767380  0.56072065  1
  Al  Al3  1  0.44355889  0.09738177  0.32264226  1
  Al  Al4  1  0.22849544  0.21275655  0.55480024  1
  Al  Al5  1  0.87807405  0.20477612  0.02528816  1
  Al  Al6  1  0.44723946  0.09354392  0.78250702  1
  Al  Al7  1  0.54725397  0.20842083  0.55722253  1
  Al  Al8  1  0.10577026  0.43605813  0.32053346  1
  Al  Al9  1  0.77790764  0.42964982  0.81061842  1
  Al  Al10  1  0.89809017  0.53937319  0.56262769  1
  Al  Al11  1  0.43798551  0.43541239  0.30772716  1
  Al  Al12  1  0.54559655  0.54424051  0.04134254  1
  Al  Al13  1  0.11650632  0.42937114  0.79148874  1
  Al  Al14  1  0.21938558  0.53970232  0.54869228  1
  Al  Al15  1  0.88632997  0.54314657  0.04219154  1
  Al  Al16  1  0.43527025  0.42649745  0.78835596  1
  Al  Al17  1  0.11229803  0.76377863  0.31065911  1
  Al  Al18  1  0.21427162  0.86520841  0.04919702  1
  Al  Al19  1  0.77955672  0.76250684  0.79654697  1
  Al  Al20  1  0.89444528  0.86418756  0.55648459  1
  Al  Al21  1  0.43519688  0.76111177  0.30160100  1
  Al  Al22  1  0.11610493  0.74903816  0.79610045  1
  Al  Al23  1  0.22671035  0.86440780  0.55418543  1
  Al  Al24  1  0.79446454  0.75358886  0.31230146  1
  Al  Al25  1  0.89648811  0.87546521  0.04915908  1
  Al  Al26  1  0.44361296  0.75943349  0.80049427  1
  Al  Al27  1  0.55638718  0.87433935  0.55311287  1
  Gd  Gd28  1  0.21384812  0.20440582  0.07008889  1
  Gd  Gd29  1  0.55470814  0.20896724  0.03698371  1
  Gd  Gd30  1  0.11501349  0.08301544  0.80845395  1
  Gd  Gd31  1  0.78105678  0.08949457  0.31065148  1
  Gd  Gd32  1  0.20542606  0.54839263  0.06417540  1
  Gd  Gd33  1  0.79062500  0.43290785  0.28400301  1
  Gd  Gd34  1  0.56258191  0.53922572  0.56377766  1
  Gd  Gd35  1  0.56382684  0.86203156  0.06002732  1
  N  N36  1  0.22318561  0.21085761  0.36827780  1
  N  N37  1  0.09075023  0.08067123  0.04653198  1
  N  N38  1  0.85438079  0.21574307  0.84660504  1
  N  N39  1  0.78099031  0.09134741  0.59925236  1
  N  N40  1  0.52800761  0.22561394  0.37572269  1
  N  N41  1  0.45333476  0.09154678  0.14657226  1
  N  N42  1  0.23979796  0.21882572  0.84784624  1
  N  N43  1  0.11968746  0.09033490  0.57828646  1
  N  N44  1  0.90795592  0.20479956  0.37993472  1
  N  N45  1  0.79534028  0.08696710  0.09594973  1
  N  N46  1  0.55475983  0.20241929  0.81973791  1
  N  N47  1  0.44510921  0.09161904  0.59968944  1
  N  N48  1  0.22060458  0.54338872  0.35940349  1
  N  N49  1  0.06415105  0.44062721  0.14427262  1
  N  N50  1  0.89546178  0.54253790  0.85728877  1
  N  N51  1  0.81477670  0.41330737  0.62674043  1
  N  N52  1  0.53839250  0.55008373  0.35332320  1
  N  N53  1  0.45349834  0.44056565  0.12518681  1
  N  N54  1  0.22061260  0.53562713  0.84468921  1
  N  N55  1  0.11491615  0.42962457  0.60761634  1
  N  N56  1  0.89905671  0.55197630  0.38491163  1
  N  N57  1  0.76919513  0.43468869  0.06430246  1
  N  N58  1  0.55065412  0.53873404  0.84606549  1
  N  N59  1  0.42617491  0.42120841  0.60965899  1
  N  N60  1  0.22496022  0.86874060  0.36964704  1
  N  N61  1  0.09338475  0.79119922  0.12972056  1
  N  N62  1  0.89175192  0.87024991  0.85598214  1
  N  N63  1  0.77792892  0.76189895  0.61445134  1
  N  N64  1  0.56173855  0.86501194  0.36323574  1
  N  N65  1  0.42268101  0.75226637  0.11714985  1
  N  N66  1  0.24002238  0.82722423  0.86688915  1
  N  N67  1  0.11373087  0.75972514  0.61126284  1
  N  N68  1  0.90745147  0.84485023  0.37824069  1
  N  N69  1  0.81247733  0.74777946  0.12177816  1
  N  N70  1  0.55480140  0.87494886  0.84143395  1
  N  N71  1  0.42808649  0.79221889  0.62024180  1
