# generated using pymatgen
data_Gd2Al7N9
_symmetry_space_group_name_H-M   'P 1'
_cell_length_a   9.86769918
_cell_length_b   9.85666227
_cell_length_c   10.47120428
_cell_angle_alpha   89.96240503
_cell_angle_beta   89.65942542
_cell_angle_gamma   60.06991703
_symmetry_Int_Tables_number   1
_chemical_formula_structural   Gd2Al7N9
_chemical_formula_sum   'Gd8 Al28 N36'
_cell_volume   882.61106761
_cell_formula_units_Z   4
loop_
 _symmetry_equiv_pos_site_id
 _symmetry_equiv_pos_as_xyz
  1  'x, y, z'
loop_
 _atom_site_type_symbol
 _atom_site_label
 _atom_site_symmetry_multiplicity
 _atom_site_fract_x
 _atom_site_fract_y
 _atom_site_fract_z
 _atom_site_occupancy
  Al  Al0  1  0.11676983  0.08956515  0.32801366  1
  Al  Al1  1  0.77586968  0.09246208  0.78630808  1
  Al  Al2  1  0.89885441  0.20475284  0.55497879  1
  Al  Al3  1  0.44187220  0.09761635  0.32250396  1
  Al  Al4  1  0.22322178  0.20819284  0.54743469  1
  Al  Al5  1  0.88394471  0.20137849  0.03648981  1
  Al  Al6  1  0.44748168  0.09392404  0.78027539  1
  Al  Al7  1  0.54649549  0.20844764  0.55832254  1
  Al  Al8  1  0.10558321  0.43558745  0.31904620  1
  Al  Al9  1  0.78093904  0.42722126  0.81317456  1
  Al  Al10  1  0.89809555  0.53801169  0.56233998  1
  Al  Al11  1  0.43768658  0.43479072  0.30962240  1
  Al  Al12  1  0.54753403  0.54329217  0.04160316  1
  Al  Al13  1  0.11688407  0.43012011  0.78916083  1
  Al  Al14  1  0.21883275  0.54009215  0.54883481  1
  Al  Al15  1  0.88756826  0.54349131  0.04293102  1
  Al  Al16  1  0.43545051  0.42665977  0.78763900  1
  Al  Al17  1  0.11111157  0.76165744  0.31055374  1
  Al  Al18  1  0.21311510  0.86780732  0.05918574  1
  Al  Al19  1  0.77947779  0.76225420  0.79637674  1
  Al  Al20  1  0.89463780  0.86427260  0.55728235  1
  Al  Al21  1  0.43560390  0.75988313  0.30285559  1
  Al  Al22  1  0.11575554  0.75246474  0.79674984  1
  Al  Al23  1  0.22208006  0.87311125  0.54812500  1
  Al  Al24  1  0.79346381  0.75298906  0.31276333  1
  Al  Al25  1  0.89610344  0.87244794  0.04900021  1
  Al  Al26  1  0.44079209  0.76288626  0.80206871  1
  Al  Al27  1  0.55488659  0.87467791  0.55312237  1
  Gd  Gd28  1  0.21617742  0.20727410  0.06670985  1
  Gd  Gd29  1  0.55652265  0.20833613  0.03541678  1
  Gd  Gd30  1  0.11683421  0.08584224  0.79987439  1
  Gd  Gd31  1  0.77781927  0.08843334  0.31107627  1
  Gd  Gd32  1  0.21057009  0.54689317  0.06255834  1
  Gd  Gd33  1  0.78494248  0.43514729  0.28585198  1
  Gd  Gd34  1  0.56162205  0.54047276  0.56786233  1
  Gd  Gd35  1  0.56239639  0.86265222  0.06077386  1
  N  N36  1  0.22015209  0.20836326  0.36160578  1
  N  N37  1  0.09114806  0.08297162  0.10422854  1
  N  N38  1  0.86272195  0.21145924  0.85631165  1
  N  N39  1  0.78247345  0.09176801  0.59955878  1
  N  N40  1  0.52619736  0.22545526  0.37665894  1
  N  N41  1  0.45322078  0.09370239  0.14575905  1
  N  N42  1  0.24024819  0.21936039  0.84692483  1
  N  N43  1  0.11762468  0.09127715  0.58574503  1
  N  N44  1  0.90825605  0.20300658  0.37550144  1
  N  N45  1  0.79633188  0.08339049  0.09565372  1
  N  N46  1  0.55668187  0.20240123  0.81770457  1
  N  N47  1  0.44258144  0.09229940  0.59738319  1
  N  N48  1  0.22033296  0.54254986  0.35943609  1
  N  N49  1  0.06875975  0.44226057  0.14160173  1
  N  N50  1  0.89643130  0.54220847  0.85751323  1
  N  N51  1  0.81643590  0.41009446  0.62769190  1
  N  N52  1  0.53584250  0.55077732  0.35745311  1
  N  N53  1  0.45869606  0.43809674  0.12675610  1
  N  N54  1  0.22105504  0.53751616  0.84276585  1
  N  N55  1  0.11547858  0.42774182  0.60514385  1
  N  N56  1  0.89883419  0.55083017  0.38381259  1
  N  N57  1  0.77131709  0.43457108  0.06583465  1
  N  N58  1  0.55043021  0.53963070  0.84620522  1
  N  N59  1  0.42599965  0.42151690  0.60940648  1
  N  N60  1  0.22305782  0.86973943  0.36450461  1
  N  N61  1  0.09274291  0.78786473  0.12924412  1
  N  N62  1  0.89194137  0.86960154  0.85582706  1
  N  N63  1  0.77739963  0.76132379  0.61406167  1
  N  N64  1  0.56095352  0.86451109  0.36260192  1
  N  N65  1  0.42482522  0.74976753  0.11858466  1
  N  N66  1  0.23520248  0.83694198  0.87472780  1
  N  N67  1  0.11441319  0.76177423  0.61095419  1
  N  N68  1  0.90688364  0.84383500  0.37864134  1
  N  N69  1  0.81069856  0.74769624  0.12216925  1
  N  N70  1  0.55471771  0.87604636  0.84165401  1
  N  N71  1  0.42415810  0.79532996  0.62087737  1
