# generated using pymatgen
data_Gd2Al7N9
_symmetry_space_group_name_H-M   'P 1'
_cell_length_a   9.86550897
_cell_length_b   9.81757323
_cell_length_c   10.75275014
_cell_angle_alpha   89.47417748
_cell_angle_beta   89.35802787
_cell_angle_gamma   59.97147620
_symmetry_Int_Tables_number   1
_chemical_formula_structural   Gd2Al7N9
_chemical_formula_sum   'Gd8 Al28 N36'
_cell_volume   901.60845936
_cell_formula_units_Z   4
loop_
 _symmetry_equiv_pos_site_id
 _symmetry_equiv_pos_as_xyz
  1  'x, y, z'
loop_
 _atom_site_type_symbol
 _atom_site_label
 _atom_site_symmetry_multiplicity
 _atom_site_fract_x
 _atom_site_fract_y
 _atom_site_fract_z
 _atom_site_occupancy
  Al  Al0  1  0.12587343  0.08447526  0.38360947  1
  Al  Al1  1  0.77150336  0.09701247  0.78275246  1
  Al  Al2  1  0.89409098  0.20449661  0.55494559  1
  Al  Al3  1  0.44361835  0.10125644  0.32314687  1
  Al  Al4  1  0.22962118  0.21068714  0.55234698  1
  Al  Al5  1  0.87447830  0.20583004  0.02470932  1
  Al  Al6  1  0.44640712  0.09695839  0.78625106  1
  Al  Al7  1  0.54700500  0.20849076  0.55543091  1
  Al  Al8  1  0.10606450  0.43660241  0.31781412  1
  Al  Al9  1  0.77750776  0.42757590  0.80359365  1
  Al  Al10  1  0.90470799  0.52853354  0.56898985  1
  Al  Al11  1  0.44004998  0.43814702  0.30727946  1
  Al  Al12  1  0.54861720  0.53270043  0.03287763  1
  Al  Al13  1  0.12086969  0.42887890  0.79202328  1
  Al  Al14  1  0.21882504  0.53772826  0.54556976  1
  Al  Al15  1  0.89002720  0.53335656  0.03092186  1
  Al  Al16  1  0.43492093  0.42525191  0.78673868  1
  Al  Al17  1  0.10826344  0.76080965  0.30940280  1
  Al  Al18  1  0.20977502  0.87958326  0.11822917  1
  Al  Al19  1  0.77878613  0.76365856  0.85347869  1
  Al  Al20  1  0.89684127  0.87200691  0.55996084  1
  Al  Al21  1  0.43582337  0.77543917  0.37778010  1
  Al  Al22  1  0.11367878  0.75012721  0.78352243  1
  Al  Al23  1  0.22850437  0.86614899  0.61314273  1
  Al  Al24  1  0.78293721  0.75804931  0.39955308  1
  Al  Al25  1  0.89997313  0.88023315  0.03173968  1
  Al  Al26  1  0.43728552  0.76208056  0.86128425  1
  Al  Al27  1  0.55482888  0.87576538  0.60495364  1
  Gd  Gd28  1  0.21301596  0.20310187  0.07271630  1
  Gd  Gd29  1  0.55103062  0.20264466  0.03430291  1
  Gd  Gd30  1  0.10748541  0.09958599  0.81576686  1
  Gd  Gd31  1  0.78137000  0.08690206  0.30224637  1
  Gd  Gd32  1  0.20585789  0.55092100  0.06046516  1
  Gd  Gd33  1  0.79022083  0.43511642  0.28665352  1
  Gd  Gd34  1  0.56201300  0.53603797  0.57281949  1
  Gd  Gd35  1  0.57428592  0.83375924  0.12907239  1
  N  N36  1  0.22483772  0.21037169  0.37067298  1
  N  N37  1  0.09154449  0.07463618  0.04016249  1
  N  N38  1  0.84893919  0.21941982  0.85100586  1
  N  N39  1  0.77860705  0.09646395  0.60130170  1
  N  N40  1  0.53085547  0.22541283  0.37707265  1
  N  N41  1  0.45150171  0.08717401  0.14872346  1
  N  N42  1  0.24576513  0.22221961  0.85933150  1
  N  N43  1  0.11977976  0.08747832  0.57491121  1
  N  N44  1  0.90904390  0.20067025  0.37777214  1
  N  N45  1  0.79244610  0.08622942  0.09096947  1
  N  N46  1  0.55593614  0.20189716  0.82207510  1
  N  N47  1  0.44160870  0.09752155  0.60610380  1
  N  N48  1  0.22220140  0.54215849  0.35931394  1
  N  N49  1  0.05905141  0.44721634  0.14414033  1
  N  N50  1  0.90257744  0.52601277  0.84954665  1
  N  N51  1  0.81703367  0.40667765  0.62598236  1
  N  N52  1  0.53903732  0.55310759  0.35887649  1
  N  N53  1  0.45629821  0.43645260  0.12732221  1
  N  N54  1  0.22013865  0.54177901  0.84486069  1
  N  N55  1  0.11945327  0.42443474  0.61196242  1
  N  N56  1  0.90694264  0.54073568  0.39223405  1
  N  N57  1  0.76757444  0.43580737  0.06899650  1
  N  N58  1  0.55226974  0.53248421  0.84050788  1
  N  N59  1  0.42352628  0.41970749  0.61095781  1
  N  N60  1  0.22845679  0.88155813  0.30727156  1
  N  N61  1  0.08222341  0.78955798  0.13200201  1
  N  N62  1  0.89845760  0.87760157  0.84295954  1
  N  N63  1  0.77656040  0.76220775  0.58265036  1
  N  N64  1  0.57029762  0.86666209  0.34699108  1
  N  N65  1  0.41225402  0.75543513  0.03990253  1
  N  N66  1  0.24211699  0.84142347  0.78789687  1
  N  N67  1  0.11236645  0.75390811  0.60275251  1
  N  N68  1  0.90896176  0.84967973  0.38358256  1
  N  N69  1  0.80388834  0.75427249  0.03451161  1
  N  N70  1  0.55527034  0.86803714  0.81208251  1
  N  N71  1  0.42731741  0.79658279  0.55218366  1
