# generated using pymatgen
data_Gd2Al7N9
_symmetry_space_group_name_H-M   'P 1'
_cell_length_a   9.76503804
_cell_length_b   9.82182627
_cell_length_c   10.97414337
_cell_angle_alpha   89.44905647
_cell_angle_beta   89.13632510
_cell_angle_gamma   60.04895806
_symmetry_Int_Tables_number   1
_chemical_formula_structural   Gd2Al7N9
_chemical_formula_sum   'Gd8 Al28 N36'
_cell_volume   911.86570673
_cell_formula_units_Z   4
loop_
 _symmetry_equiv_pos_site_id
 _symmetry_equiv_pos_as_xyz
  1  'x, y, z'
loop_
 _atom_site_type_symbol
 _atom_site_label
 _atom_site_symmetry_multiplicity
 _atom_site_fract_x
 _atom_site_fract_y
 _atom_site_fract_z
 _atom_site_occupancy
  Al  Al0  1  0.12905846  0.08747568  0.42749556  1
  Al  Al1  1  0.77043858  0.09646112  0.81491916  1
  Al  Al2  1  0.89780272  0.20280123  0.59155134  1
  Al  Al3  1  0.44393685  0.09692299  0.42345245  1
  Al  Al4  1  0.23428597  0.20715034  0.65024725  1
  Al  Al5  1  0.87331848  0.20563172  0.06311776  1
  Al  Al6  1  0.44622323  0.08736274  0.88340628  1
  Al  Al7  1  0.55573352  0.20991279  0.58691319  1
  Al  Al8  1  0.11794824  0.43131231  0.43286020  1
  Al  Al9  1  0.77112778  0.41873691  0.83144425  1
  Al  Al10  1  0.89898029  0.53399975  0.65100695  1
  Al  Al11  1  0.43754777  0.44283561  0.34008306  1
  Al  Al12  1  0.53973267  0.54184923  0.07106657  1
  Al  Al13  1  0.12460522  0.42139789  0.88338307  1
  Al  Al14  1  0.21553080  0.54213741  0.65706096  1
  Al  Al15  1  0.88067882  0.52957736  0.03711712  1
  Al  Al16  1  0.44440704  0.41768297  0.82059739  1
  Al  Al17  1  0.12860766  0.75250501  0.42471703  1
  Al  Al18  1  0.21103633  0.87401306  0.14147088  1
  Al  Al19  1  0.77617199  0.76506851  0.87251118  1
  Al  Al20  1  0.89492042  0.87339263  0.59781833  1
  Al  Al21  1  0.43514037  0.78349552  0.40858261  1
  Al  Al22  1  0.12439164  0.75183717  0.88608737  1
  Al  Al23  1  0.22992797  0.86911843  0.65223923  1
  Al  Al24  1  0.78137989  0.75518547  0.43229917  1
  Al  Al25  1  0.88647332  0.88576988  0.04341195  1
  Al  Al26  1  0.44399813  0.75481268  0.89267717  1
  Al  Al27  1  0.55218802  0.88034788  0.65368409  1
  Gd  Gd28  1  0.20827452  0.20420936  0.16554503  1
  Gd  Gd29  1  0.54653971  0.22618517  0.06938895  1
  Gd  Gd30  1  0.11949613  0.08569853  0.87981756  1
  Gd  Gd31  1  0.79162805  0.08129753  0.33590243  1
  Gd  Gd32  1  0.16080624  0.57224233  0.16593296  1
  Gd  Gd33  1  0.78666644  0.43294138  0.31942974  1
  Gd  Gd34  1  0.55860603  0.53932858  0.59380929  1
  Gd  Gd35  1  0.57316317  0.85229533  0.15216135  1
  N  N36  1  0.22602984  0.20811805  0.38175146  1
  N  N37  1  0.09121816  0.08580543  0.09117531  1
  N  N38  1  0.85430286  0.21328109  0.88903878  1
  N  N39  1  0.78015520  0.09657100  0.63868623  1
  N  N40  1  0.53694722  0.22965759  0.40624452  1
  N  N41  1  0.43410823  0.08120239  0.06105367  1
  N  N42  1  0.24156762  0.21681968  0.82186344  1
  N  N43  1  0.12328106  0.08881526  0.61275137  1
  N  N44  1  0.90987926  0.20166071  0.41838063  1
  N  N45  1  0.79358537  0.07670993  0.12586925  1
  N  N46  1  0.55535612  0.20070770  0.86374127  1
  N  N47  1  0.45227927  0.09111652  0.59881218  1
  N  N48  1  0.21900516  0.54308873  0.37401824  1
  N  N49  1  0.09691879  0.41957890  0.05432307  1
  N  N50  1  0.88755847  0.53508716  0.85210789  1
  N  N51  1  0.80872301  0.40512456  0.65955688  1
  N  N52  1  0.53451404  0.56139959  0.38920591  1
  N  N53  1  0.43220895  0.45995857  0.16302404  1
  N  N54  1  0.21565194  0.54208997  0.83633766  1
  N  N55  1  0.11545517  0.42891612  0.60763891  1
  N  N56  1  0.90548130  0.54815332  0.39007524  1
  N  N57  1  0.76751535  0.43304533  0.10193595  1
  N  N58  1  0.55145609  0.52725552  0.88249388  1
  N  N59  1  0.43582003  0.41210190  0.65012896  1
  N  N60  1  0.22035180  0.87876329  0.34287861  1
  N  N61  1  0.10509132  0.78489199  0.06122975  1
  N  N62  1  0.88983780  0.87940407  0.86334410  1
  N  N63  1  0.77744114  0.75756807  0.61600551  1
  N  N64  1  0.56539773  0.87878646  0.36653017  1
  N  N65  1  0.42219212  0.76244830  0.06985768  1
  N  N66  1  0.24624991  0.83477800  0.82134027  1
  N  N67  1  0.12675921  0.75713136  0.60149741  1
  N  N68  1  0.90522621  0.85132650  0.42184549  1
  N  N69  1  0.80412710  0.74597731  0.05288229  1
  N  N70  1  0.55270888  0.86707758  0.83219402  1
  N  N71  1  0.43012854  0.80086378  0.58386321  1
