# generated using pymatgen
data_Gd2Al7N9
_symmetry_space_group_name_H-M   'P 1'
_cell_length_a   9.81960124
_cell_length_b   9.74173250
_cell_length_c   11.19604581
_cell_angle_alpha   88.96755880
_cell_angle_beta   88.83554203
_cell_angle_gamma   59.98956276
_symmetry_Int_Tables_number   1
_chemical_formula_structural   Gd2Al7N9
_chemical_formula_sum   'Gd8 Al28 N36'
_cell_volume   927.19716193
_cell_formula_units_Z   4
loop_
 _symmetry_equiv_pos_site_id
 _symmetry_equiv_pos_as_xyz
  1  'x, y, z'
loop_
 _atom_site_type_symbol
 _atom_site_label
 _atom_site_symmetry_multiplicity
 _atom_site_fract_x
 _atom_site_fract_y
 _atom_site_fract_z
 _atom_site_occupancy
  Al  Al0  1  0.13003881  0.08844060  0.42873780  1
  Al  Al1  1  0.76609325  0.09688470  0.79384832  1
  Al  Al2  1  0.89458490  0.20774169  0.57539480  1
  Al  Al3  1  0.44944516  0.10429560  0.34353621  1
  Al  Al4  1  0.23592017  0.20936457  0.60995451  1
  Al  Al5  1  0.86715577  0.20540132  0.02981146  1
  Al  Al6  1  0.45434583  0.09548005  0.78634468  1
  Al  Al7  1  0.55562515  0.20458682  0.55946373  1
  Al  Al8  1  0.11594805  0.43887020  0.37977563  1
  Al  Al9  1  0.77290334  0.42601460  0.81138870  1
  Al  Al10  1  0.89862260  0.53585789  0.57905097  1
  Al  Al11  1  0.44690679  0.44300329  0.31232999  1
  Al  Al12  1  0.54803692  0.52970288  0.03944942  1
  Al  Al13  1  0.10615772  0.43350754  0.79468150  1
  Al  Al14  1  0.22186359  0.54678034  0.63364212  1
  Al  Al15  1  0.88637028  0.52480430  0.03865260  1
  Al  Al16  1  0.44620137  0.41672844  0.79885035  1
  Al  Al17  1  0.13103679  0.76165509  0.40333314  1
  Al  Al18  1  0.21071966  0.87006432  0.05429230  1
  Al  Al19  1  0.77356198  0.75883890  0.86284415  1
  Al  Al20  1  0.89607238  0.87734611  0.57591786  1
  Al  Al21  1  0.43663357  0.78629775  0.39982151  1
  Al  Al22  1  0.11432994  0.75241269  0.85774716  1
  Al  Al23  1  0.23486940  0.86271069  0.63429211  1
  Al  Al24  1  0.77928290  0.76837282  0.41722502  1
  Al  Al25  1  0.88236426  0.88252009  0.02253958  1
  Al  Al26  1  0.44663716  0.75441019  0.86304377  1
  Al  Al27  1  0.56477283  0.86573705  0.63159233  1
  Gd  Gd28  1  0.17656282  0.17784629  0.18208778  1
  Gd  Gd29  1  0.53967030  0.20200212  0.05192218  1
  Gd  Gd30  1  0.10553930  0.10253691  0.83444342  1
  Gd  Gd31  1  0.79785413  0.08818795  0.30919118  1
  Gd  Gd32  1  0.18702956  0.55232902  0.13600762  1
  Gd  Gd33  1  0.79798369  0.44229956  0.29393393  1
  Gd  Gd34  1  0.57117108  0.52357728  0.56511948  1
  Gd  Gd35  1  0.56579827  0.83792150  0.14835888  1
  N  N36  1  0.23015476  0.21128886  0.39583869  1
  N  N37  1  0.09064907  0.08408234  0.04099966  1
  N  N38  1  0.84352327  0.21818493  0.86176912  1
  N  N39  1  0.77895038  0.10057657  0.61837783  1
  N  N40  1  0.54292666  0.22850563  0.38594072  1
  N  N41  1  0.42916424  0.09949562  0.16954953  1
  N  N42  1  0.24064495  0.21954083  0.79600098  1
  N  N43  1  0.12003257  0.08871276  0.60091403  1
  N  N44  1  0.91138371  0.21219812  0.40047568  1
  N  N45  1  0.79283861  0.07651578  0.10115601  1
  N  N46  1  0.55304855  0.19830779  0.84597038  1
  N  N47  1  0.46170415  0.08774934  0.61261149  1
  N  N48  1  0.22203946  0.55173791  0.34134029  1
  N  N49  1  0.03930214  0.43687442  0.16020734  1
  N  N50  1  0.89844009  0.52225746  0.86265306  1
  N  N51  1  0.81498603  0.41182528  0.64262438  1
  N  N52  1  0.54026846  0.56381277  0.36204714  1
  N  N53  1  0.45544169  0.43648606  0.13636456  1
  N  N54  1  0.21771504  0.54133847  0.81290237  1
  N  N55  1  0.11153442  0.43829681  0.61334257  1
  N  N56  1  0.90110084  0.54864797  0.40938290  1
  N  N57  1  0.76404070  0.42780329  0.08059095  1
  N  N58  1  0.55236499  0.52741962  0.85577873  1
  N  N59  1  0.43898066  0.40890525  0.62859615  1
  N  N60  1  0.22282473  0.89112559  0.35286860  1
  N  N61  1  0.09981505  0.77192820  0.02896470  1
  N  N62  1  0.88363740  0.87733859  0.84338996  1
  N  N63  1  0.78090375  0.76403210  0.59315899  1
  N  N64  1  0.57208766  0.87157691  0.35752500  1
  N  N65  1  0.42565163  0.75688126  0.03672480  1
  N  N66  1  0.24091435  0.83858417  0.80384519  1
  N  N67  1  0.12695572  0.75927914  0.57936483  1
  N  N68  1  0.90715832  0.85940164  0.40064239  1
  N  N69  1  0.78725721  0.75521282  0.03875057  1
  N  N70  1  0.55817571  0.86146706  0.80837490  1
  N  N71  1  0.43902576  0.78676864  0.57279584  1
