# generated using pymatgen
data_Gd2Al7N9
_symmetry_space_group_name_H-M   'P 1'
_cell_length_a   9.89539337
_cell_length_b   9.83474098
_cell_length_c   10.75600374
_cell_angle_alpha   89.61008362
_cell_angle_beta   89.34705488
_cell_angle_gamma   59.79210843
_symmetry_Int_Tables_number   1
_chemical_formula_structural   Gd2Al7N9
_chemical_formula_sum   'Gd8 Al28 N36'
_cell_volume   904.55594050
_cell_formula_units_Z   4
loop_
 _symmetry_equiv_pos_site_id
 _symmetry_equiv_pos_as_xyz
  1  'x, y, z'
loop_
 _atom_site_type_symbol
 _atom_site_label
 _atom_site_symmetry_multiplicity
 _atom_site_fract_x
 _atom_site_fract_y
 _atom_site_fract_z
 _atom_site_occupancy
  Al  Al0  1  0.12543765  0.08253764  0.38472249  1
  Al  Al1  1  0.76981867  0.09787464  0.78316293  1
  Al  Al2  1  0.89547637  0.20309195  0.55739168  1
  Al  Al3  1  0.44250608  0.10138447  0.32599213  1
  Al  Al4  1  0.23165205  0.20630039  0.55631623  1
  Al  Al5  1  0.87520149  0.20681819  0.02965132  1
  Al  Al6  1  0.44441714  0.10149137  0.78929948  1
  Al  Al7  1  0.54827972  0.20528762  0.55786945  1
  Al  Al8  1  0.10085926  0.43629317  0.32476348  1
  Al  Al9  1  0.77746791  0.42520414  0.80856175  1
  Al  Al10  1  0.90562217  0.52584212  0.57584192  1
  Al  Al11  1  0.44275467  0.43636774  0.31155778  1
  Al  Al12  1  0.54705805  0.53822227  0.03579737  1
  Al  Al13  1  0.12220090  0.43005041  0.79749093  1
  Al  Al14  1  0.22590705  0.52769306  0.55186560  1
  Al  Al15  1  0.88426098  0.53816276  0.03211009  1
  Al  Al16  1  0.43445046  0.42525898  0.79324753  1
  Al  Al17  1  0.12030718  0.75954841  0.38101818  1
  Al  Al18  1  0.20859381  0.88041181  0.11017627  1
  Al  Al19  1  0.77916838  0.76106290  0.84570708  1
  Al  Al20  1  0.89638767  0.87042826  0.56881337  1
  Al  Al21  1  0.43744813  0.77386062  0.38202390  1
  Al  Al22  1  0.12081100  0.75817657  0.85746664  1
  Al  Al23  1  0.23041572  0.86057165  0.61773984  1
  Al  Al24  1  0.77751709  0.75777083  0.40661811  1
  Al  Al25  1  0.88593513  0.88812322  0.01962194  1
  Al  Al26  1  0.43859817  0.76211792  0.86157857  1
  Al  Al27  1  0.55505414  0.87195069  0.62283946  1
  Gd  Gd28  1  0.21005985  0.21329187  0.07340762  1
  Gd  Gd29  1  0.55146503  0.20930038  0.04015597  1
  Gd  Gd30  1  0.10602332  0.10222274  0.81608484  1
  Gd  Gd31  1  0.78239122  0.08480169  0.30708036  1
  Gd  Gd32  1  0.20300775  0.54970218  0.08278980  1
  Gd  Gd33  1  0.79081871  0.43517450  0.28800277  1
  Gd  Gd34  1  0.56377997  0.53282425  0.57679002  1
  Gd  Gd35  1  0.57281926  0.84108407  0.13012330  1
  N  N36  1  0.22430033  0.20786600  0.37459825  1
  N  N37  1  0.09119269  0.08583335  0.04958285  1
  N  N38  1  0.84928680  0.21643454  0.85592762  1
  N  N39  1  0.77840808  0.09723650  0.60266286  1
  N  N40  1  0.53097958  0.22371587  0.38030022  1
  N  N41  1  0.44843198  0.09542136  0.15109985  1
  N  N42  1  0.24423369  0.22131133  0.85986396  1
  N  N43  1  0.12141314  0.08441485  0.57866276  1
  N  N44  1  0.90928520  0.20033297  0.38072103  1
  N  N45  1  0.79501821  0.08394846  0.09585445  1
  N  N46  1  0.55635989  0.20145019  0.82826446  1
  N  N47  1  0.44345115  0.09559304  0.60984922  1
  N  N48  1  0.22403723  0.53481354  0.35964992  1
  N  N49  1  0.04386582  0.45358435  0.15291608  1
  N  N50  1  0.90302093  0.52397131  0.85093898  1
  N  N51  1  0.81864161  0.40347125  0.63158986  1
  N  N52  1  0.53955009  0.55138290  0.36465431  1
  N  N53  1  0.45828825  0.44265968  0.13297463  1
  N  N54  1  0.22460772  0.53466289  0.85867998  1
  N  N55  1  0.12136314  0.42282460  0.61691515  1
  N  N56  1  0.90334349  0.53963580  0.40053940  1
  N  N57  1  0.76513899  0.43794581  0.06953403  1
  N  N58  1  0.55188387  0.53272458  0.84318962  1
  N  N59  1  0.42671552  0.41530034  0.61735525  1
  N  N60  1  0.22268725  0.87459490  0.30835478  1
  N  N61  1  0.09812982  0.79385271  0.03962775  1
  N  N62  1  0.89154293  0.87827480  0.83178079  1
  N  N63  1  0.77763272  0.76017696  0.59102654  1
  N  N64  1  0.56851649  0.86456799  0.34541492  1
  N  N65  1  0.41719133  0.76166020  0.03994053  1
  N  N66  1  0.24000003  0.84015937  0.79126349  1
  N  N67  1  0.12577401  0.75522258  0.56272981  1
  N  N68  1  0.90218936  0.84820543  0.38503910  1
  N  N69  1  0.79713617  0.75925458  0.02817819  1
  N  N70  1  0.55371898  0.86673802  0.80673380  1
  N  N71  1  0.43067117  0.79478638  0.55787189  1
