# generated using pymatgen
data_Gd2Al7N9
_symmetry_space_group_name_H-M   'P 1'
_cell_length_a   9.89538453
_cell_length_b   9.83481411
_cell_length_c   10.75595654
_cell_angle_alpha   89.60872888
_cell_angle_beta   89.34308454
_cell_angle_gamma   59.79120334
_symmetry_Int_Tables_number   1
_chemical_formula_structural   Gd2Al7N9
_chemical_formula_sum   'Gd8 Al28 N36'
_cell_volume   904.54886759
_cell_formula_units_Z   4
loop_
 _symmetry_equiv_pos_site_id
 _symmetry_equiv_pos_as_xyz
  1  'x, y, z'
loop_
 _atom_site_type_symbol
 _atom_site_label
 _atom_site_symmetry_multiplicity
 _atom_site_fract_x
 _atom_site_fract_y
 _atom_site_fract_z
 _atom_site_occupancy
  Al  Al0  1  0.12544974  0.08252870  0.38297304  1
  Al  Al1  1  0.76981453  0.09787645  0.78139363  1
  Al  Al2  1  0.89548666  0.20308966  0.55563518  1
  Al  Al3  1  0.44254187  0.10135453  0.32422893  1
  Al  Al4  1  0.23165565  0.20630490  0.55452981  1
  Al  Al5  1  0.87517031  0.20677714  0.02786027  1
  Al  Al6  1  0.44439697  0.10151783  0.78756359  1
  Al  Al7  1  0.54828576  0.20528044  0.55609561  1
  Al  Al8  1  0.10086092  0.43632559  0.32301124  1
  Al  Al9  1  0.77744735  0.42520240  0.80678058  1
  Al  Al10  1  0.90562647  0.52584517  0.57409861  1
  Al  Al11  1  0.44273778  0.43637399  0.30975675  1
  Al  Al12  1  0.54703425  0.53818677  0.03402178  1
  Al  Al13  1  0.12219735  0.43005186  0.79573502  1
  Al  Al14  1  0.22591249  0.52769187  0.55012312  1
  Al  Al15  1  0.88423157  0.53812751  0.03032342  1
  Al  Al16  1  0.43445706  0.42526945  0.79145770  1
  Al  Al17  1  0.12032153  0.75953597  0.37926551  1
  Al  Al18  1  0.20857902  0.88033905  0.10840130  1
  Al  Al19  1  0.77914037  0.76106537  0.84392843  1
  Al  Al20  1  0.89639099  0.87043505  0.56705973  1
  Al  Al21  1  0.43744982  0.77386289  0.38026573  1
  Al  Al22  1  0.12077040  0.75821769  0.85567487  1
  Al  Al23  1  0.23041377  0.86057907  0.61599285  1
  Al  Al24  1  0.77752449  0.75778010  0.40488042  1
  Al  Al25  1  0.88591348  0.88807733  0.01786641  1
  Al  Al26  1  0.43857908  0.76211895  0.85981917  1
  Al  Al27  1  0.55503884  0.87195672  0.62109273  1
  Gd  Gd28  1  0.21001549  0.21320171  0.07178277  1
  Gd  Gd29  1  0.55143368  0.20923980  0.03838704  1
  Gd  Gd30  1  0.10604415  0.10227154  0.81434228  1
  Gd  Gd31  1  0.78242304  0.08479624  0.30530818  1
  Gd  Gd32  1  0.20299144  0.54958870  0.08087725  1
  Gd  Gd33  1  0.79088066  0.43516538  0.28622132  1
  Gd  Gd34  1  0.56380555  0.53279502  0.57496625  1
  Gd  Gd35  1  0.57281868  0.84100385  0.12839239  1
  N  N36  1  0.22431101  0.20786432  0.37281260  1
  N  N37  1  0.09116159  0.08575431  0.04777984  1
  N  N38  1  0.84929718  0.21642365  0.85413457  1
  N  N39  1  0.77840881  0.09723958  0.60089503  1
  N  N40  1  0.53099912  0.22370362  0.37851741  1
  N  N41  1  0.44844733  0.09533067  0.14934370  1
  N  N42  1  0.24424766  0.22136504  0.85823939  1
  N  N43  1  0.12142558  0.08441816  0.57689490  1
  N  N44  1  0.90929775  0.20034152  0.37895951  1
  N  N45  1  0.79498872  0.08391545  0.09407635  1
  N  N46  1  0.55635191  0.20146844  0.82649290  1
  N  N47  1  0.44343050  0.09560742  0.60810407  1
  N  N48  1  0.22404607  0.53480644  0.35792205  1
  N  N49  1  0.04379931  0.45357235  0.15117300  1
  N  N50  1  0.90300506  0.52396408  0.84915663  1
  N  N51  1  0.81863937  0.40347317  0.62981859  1
  N  N52  1  0.53956081  0.55138833  0.36282421  1
  N  N53  1  0.45822317  0.44263126  0.13116713  1
  N  N54  1  0.22457822  0.53471829  0.85682124  1
  N  N55  1  0.12137387  0.42279993  0.61516333  1
  N  N56  1  0.90335037  0.53964928  0.39880010  1
  N  N57  1  0.76511977  0.43789982  0.06775482  1
  N  N58  1  0.55186926  0.53272957  0.84140958  1
  N  N59  1  0.42673642  0.41529314  0.61556983  1
  N  N60  1  0.22269288  0.87459268  0.30659893  1
  N  N61  1  0.09811394  0.79377112  0.03788265  1
  N  N62  1  0.89151333  0.87828333  0.83002485  1
  N  N63  1  0.77763347  0.76018569  0.58929555  1
  N  N64  1  0.56852908  0.86456703  0.34368813  1
  N  N65  1  0.41717702  0.76162338  0.03817658  1
  N  N66  1  0.23996834  0.84021389  0.78951798  1
  N  N67  1  0.12577612  0.75522693  0.56098735  1
  N  N68  1  0.90219840  0.84821159  0.38329243  1
  N  N69  1  0.79710425  0.75922039  0.02640197  1
  N  N70  1  0.55368295  0.86676108  0.80498126  1
  N  N71  1  0.43068215  0.79476203  0.55612049  1
