# generated using pymatgen
data_Gd2Al7N9
_symmetry_space_group_name_H-M   'P 1'
_cell_length_a   9.72441716
_cell_length_b   9.78437048
_cell_length_c   11.00158042
_cell_angle_alpha   89.63114911
_cell_angle_beta   88.82286241
_cell_angle_gamma   60.12184153
_symmetry_Int_Tables_number   1
_chemical_formula_structural   Gd2Al7N9
_chemical_formula_sum   'Gd8 Al28 N36'
_cell_volume   907.44069475
_cell_formula_units_Z   4
loop_
 _symmetry_equiv_pos_site_id
 _symmetry_equiv_pos_as_xyz
  1  'x, y, z'
loop_
 _atom_site_type_symbol
 _atom_site_label
 _atom_site_symmetry_multiplicity
 _atom_site_fract_x
 _atom_site_fract_y
 _atom_site_fract_z
 _atom_site_occupancy
  Al  Al0  1  0.13077047  0.08787186  0.43010099  1
  Al  Al1  1  0.77515278  0.09294838  0.81765406  1
  Al  Al2  1  0.90105532  0.19989780  0.59580372  1
  Al  Al3  1  0.44882412  0.09771676  0.42654202  1
  Al  Al4  1  0.23262801  0.20577675  0.65107437  1
  Al  Al5  1  0.87011074  0.20665352  0.06692536  1
  Al  Al6  1  0.44680289  0.08760231  0.88015825  1
  Al  Al7  1  0.55772839  0.20455329  0.60120856  1
  Al  Al8  1  0.12067487  0.43141778  0.43408268  1
  Al  Al9  1  0.76691034  0.41665135  0.83658751  1
  Al  Al10  1  0.89862433  0.53243721  0.66832233  1
  Al  Al11  1  0.43872635  0.44239772  0.33665978  1
  Al  Al12  1  0.53008067  0.54723184  0.07697755  1
  Al  Al13  1  0.12590137  0.42126097  0.88755332  1
  Al  Al14  1  0.21358845  0.54239672  0.65707336  1
  Al  Al15  1  0.87651349  0.53027602  0.03911469  1
  Al  Al16  1  0.44155168  0.42215027  0.82056371  1
  Al  Al17  1  0.13330919  0.75343991  0.42941633  1
  Al  Al18  1  0.20841952  0.87499333  0.14897882  1
  Al  Al19  1  0.77392955  0.76710289  0.87858372  1
  Al  Al20  1  0.89602735  0.86995060  0.59732877  1
  Al  Al21  1  0.43949676  0.78232605  0.40864623  1
  Al  Al22  1  0.12409313  0.75121997  0.89215523  1
  Al  Al23  1  0.23229099  0.86578582  0.65631731  1
  Al  Al24  1  0.79031343  0.74939173  0.42660676  1
  Al  Al25  1  0.88246949  0.88936930  0.04705352  1
  Al  Al26  1  0.44407533  0.75397107  0.89548435  1
  Al  Al27  1  0.55591935  0.87246449  0.65255675  1
  Gd  Gd28  1  0.20905564  0.20864459  0.16974428  1
  Gd  Gd29  1  0.54080830  0.23480537  0.06433855  1
  Gd  Gd30  1  0.12451412  0.08405417  0.89093186  1
  Gd  Gd31  1  0.79275974  0.08369195  0.33811806  1
  Gd  Gd32  1  0.13446220  0.58338500  0.18103927  1
  Gd  Gd33  1  0.79611625  0.43041391  0.31324463  1
  Gd  Gd34  1  0.56621080  0.52709037  0.58267483  1
  Gd  Gd35  1  0.56887732  0.85943147  0.15455206  1
  N  N36  1  0.23040916  0.20687100  0.38524309  1
  N  N37  1  0.08680881  0.08997149  0.10245841  1
  N  N38  1  0.85816605  0.20984967  0.89325221  1
  N  N39  1  0.78420264  0.09178283  0.64259375  1
  N  N40  1  0.53976174  0.23045999  0.40813817  1
  N  N41  1  0.43104695  0.08602093  0.05760476  1
  N  N42  1  0.24017668  0.21781095  0.82188403  1
  N  N43  1  0.12669139  0.08479931  0.61368245  1
  N  N44  1  0.91014782  0.20622297  0.42321064  1
  N  N45  1  0.78485409  0.08179146  0.12802829  1
  N  N46  1  0.55565873  0.20104830  0.85697312  1
  N  N47  1  0.45392005  0.08634811  0.60188412  1
  N  N48  1  0.22536119  0.54287355  0.38320265  1
  N  N49  1  0.09294479  0.42172557  0.05655916  1
  N  N50  1  0.88559318  0.53662054  0.85420255  1
  N  N51  1  0.80765478  0.40268663  0.66600769  1
  N  N52  1  0.54212176  0.56136275  0.37877794  1
  N  N53  1  0.41676215  0.46611466  0.16313980  1
  N  N54  1  0.21313031  0.54351658  0.83679903  1
  N  N55  1  0.11027870  0.42948914  0.60820343  1
  N  N56  1  0.92334412  0.55192151  0.35745007  1
  N  N57  1  0.76100505  0.43441263  0.10126298  1
  N  N58  1  0.54806950  0.52649429  0.88914013  1
  N  N59  1  0.43469348  0.41329390  0.65159554  1
  N  N60  1  0.22296886  0.87890149  0.34581734  1
  N  N61  1  0.10110468  0.78621510  0.06797532  1
  N  N62  1  0.88963545  0.87854012  0.86867116  1
  N  N63  1  0.78158929  0.74889098  0.61148010  1
  N  N64  1  0.56982111  0.87806916  0.36852159  1
  N  N65  1  0.41829308  0.76802450  0.07272898  1
  N  N66  1  0.24556078  0.83532085  0.82553235  1
  N  N67  1  0.12575055  0.75765578  0.60503680  1
  N  N68  1  0.90936955  0.85162759  0.42198908  1
  N  N69  1  0.80100888  0.74700148  0.05624823  1
  N  N70  1  0.55399371  0.86486582  0.83191451  1
  N  N71  1  0.43466424  0.78991040  0.58516894  1
