# generated using pymatgen
data_Gd2Al7N9
_symmetry_space_group_name_H-M   'P 1'
_cell_length_a   9.87090748
_cell_length_b   9.78121620
_cell_length_c   10.97967017
_cell_angle_alpha   89.34696629
_cell_angle_beta   89.23107686
_cell_angle_gamma   59.63396969
_symmetry_Int_Tables_number   1
_chemical_formula_structural   Gd2Al7N9
_chemical_formula_sum   'Gd8 Al28 N36'
_cell_volume   914.55718137
_cell_formula_units_Z   4
loop_
 _symmetry_equiv_pos_site_id
 _symmetry_equiv_pos_as_xyz
  1  'x, y, z'
loop_
 _atom_site_type_symbol
 _atom_site_label
 _atom_site_symmetry_multiplicity
 _atom_site_fract_x
 _atom_site_fract_y
 _atom_site_fract_z
 _atom_site_occupancy
  Al  Al0  1  0.12462406  0.08551623  0.40419545  1
  Al  Al1  1  0.77078644  0.09642831  0.79168781  1
  Al  Al2  1  0.89553951  0.20502958  0.57018624  1
  Al  Al3  1  0.44474024  0.10273528  0.33843856  1
  Al  Al4  1  0.23205640  0.21127898  0.56692385  1
  Al  Al5  1  0.86938302  0.20435682  0.03222052  1
  Al  Al6  1  0.44459477  0.10413406  0.80167526  1
  Al  Al7  1  0.54878241  0.20690157  0.56502356  1
  Al  Al8  1  0.10161666  0.44142075  0.33874026  1
  Al  Al9  1  0.77618069  0.42582206  0.81363654  1
  Al  Al10  1  0.90627013  0.52806355  0.58631194  1
  Al  Al11  1  0.44285103  0.44060574  0.31247032  1
  Al  Al12  1  0.54927538  0.53173354  0.04063391  1
  Al  Al13  1  0.11840685  0.42633002  0.81530587  1
  Al  Al14  1  0.21916258  0.54245413  0.63893311  1
  Al  Al15  1  0.88062730  0.53383463  0.04223720  1
  Al  Al16  1  0.44954636  0.42046467  0.80119274  1
  Al  Al17  1  0.12745174  0.75326719  0.39700862  1
  Al  Al18  1  0.20922043  0.87227055  0.08670695  1
  Al  Al19  1  0.77522051  0.76105448  0.85921086  1
  Al  Al20  1  0.89580549  0.87414424  0.57714184  1
  Al  Al21  1  0.43425644  0.78138680  0.39682498  1
  Al  Al22  1  0.11667645  0.76052718  0.86037481  1
  Al  Al23  1  0.23192488  0.86355588  0.62929037  1
  Al  Al24  1  0.77826393  0.76193198  0.42080982  1
  Al  Al25  1  0.88436121  0.88356193  0.02487903  1
  Al  Al26  1  0.44115203  0.76108459  0.86730780  1
  Al  Al27  1  0.55701412  0.87203900  0.63511946  1
  Gd  Gd28  1  0.20290385  0.20299816  0.10136090  1
  Gd  Gd29  1  0.54745119  0.19855914  0.04828212  1
  Gd  Gd30  1  0.10912600  0.11010620  0.82714580  1
  Gd  Gd31  1  0.78744743  0.08541348  0.31243223  1
  Gd  Gd32  1  0.19730093  0.54743757  0.11561303  1
  Gd  Gd33  1  0.79763923  0.43649840  0.29513003  1
  Gd  Gd34  1  0.56947491  0.52629365  0.57044832  1
  Gd  Gd35  1  0.57206090  0.83246842  0.15026149  1
  N  N36  1  0.22496102  0.21272733  0.38875705  1
  N  N37  1  0.08722514  0.07992901  0.04487352  1
  N  N38  1  0.85087217  0.21545903  0.86101015  1
  N  N39  1  0.77829057  0.09923961  0.61492133  1
  N  N40  1  0.53376898  0.22715494  0.38931397  1
  N  N41  1  0.44699503  0.08883422  0.16740050  1
  N  N42  1  0.25061510  0.22565654  0.89013420  1
  N  N43  1  0.12186639  0.08856442  0.59103734  1
  N  N44  1  0.90622465  0.20623731  0.39549571  1
  N  N45  1  0.79482066  0.07815699  0.10226750  1
  N  N46  1  0.55896649  0.20062785  0.84049837  1
  N  N47  1  0.44214699  0.09936211  0.62421543  1
  N  N48  1  0.21860082  0.54831794  0.32854898  1
  N  N49  1  0.03302789  0.44935294  0.16853756  1
  N  N50  1  0.90125441  0.52218718  0.86528275  1
  N  N51  1  0.81711436  0.40738199  0.64237348  1
  N  N52  1  0.53954777  0.55803625  0.36360376  1
  N  N53  1  0.46134382  0.43324519  0.13350332  1
  N  N54  1  0.22151609  0.54429279  0.82302376  1
  N  N55  1  0.11863697  0.41934473  0.63666817  1
  N  N56  1  0.90517702  0.54175670  0.41431278  1
  N  N57  1  0.76541594  0.43047002  0.07981918  1
  N  N58  1  0.55438000  0.53208153  0.85466856  1
  N  N59  1  0.43562216  0.41325036  0.62924004  1
  N  N60  1  0.22198310  0.87922013  0.33834907  1
  N  N61  1  0.10026267  0.77925104  0.03551628  1
  N  N62  1  0.88687814  0.87759172  0.84248066  1
  N  N63  1  0.77880968  0.76257630  0.60058432  1
  N  N64  1  0.56908584  0.86878599  0.36189253  1
  N  N65  1  0.42116156  0.75894601  0.04295510  1
  N  N66  1  0.23796394  0.84666273  0.80133038  1
  N  N67  1  0.12683198  0.75356512  0.57808143  1
  N  N68  1  0.90416079  0.85276113  0.39973352  1
  N  N69  1  0.78968616  0.75863125  0.03864382  1
  N  N70  1  0.55353914  0.86753769  0.81436220  1
  N  N71  1  0.43580357  0.78978631  0.57186819  1
