# generated using pymatgen
data_Gd2Al7N9
_symmetry_space_group_name_H-M   'P 1'
_cell_length_a   9.86307159
_cell_length_b   9.84940592
_cell_length_c   10.47241009
_cell_angle_alpha   90.19506378
_cell_angle_beta   90.06525387
_cell_angle_gamma   60.04176433
_symmetry_Int_Tables_number   1
_chemical_formula_structural   Gd2Al7N9
_chemical_formula_sum   'Gd8 Al28 N36'
_cell_volume   881.41310304
_cell_formula_units_Z   4
loop_
 _symmetry_equiv_pos_site_id
 _symmetry_equiv_pos_as_xyz
  1  'x, y, z'
loop_
 _atom_site_type_symbol
 _atom_site_label
 _atom_site_symmetry_multiplicity
 _atom_site_fract_x
 _atom_site_fract_y
 _atom_site_fract_z
 _atom_site_occupancy
  Al  Al0  1  0.11230487  0.08853928  0.30863663  1
  Al  Al1  1  0.77788052  0.09260316  0.78526502  1
  Al  Al2  1  0.89952504  0.20391559  0.55059488  1
  Al  Al3  1  0.43928979  0.09814590  0.32068634  1
  Al  Al4  1  0.22101019  0.20702086  0.54200657  1
  Al  Al5  1  0.88525549  0.20082669  0.03929065  1
  Al  Al6  1  0.44806761  0.09441767  0.77780737  1
  Al  Al7  1  0.54559598  0.20867695  0.55738961  1
  Al  Al8  1  0.10569634  0.43397993  0.31585638  1
  Al  Al9  1  0.78289658  0.42651375  0.81165643  1
  Al  Al10  1  0.89809491  0.53737108  0.55982341  1
  Al  Al11  1  0.43669385  0.43457340  0.30951152  1
  Al  Al12  1  0.54957856  0.54249402  0.04039423  1
  Al  Al13  1  0.11773490  0.43054382  0.78684108  1
  Al  Al14  1  0.21812383  0.54033739  0.54708086  1
  Al  Al15  1  0.88911945  0.54300918  0.04232548  1
  Al  Al16  1  0.43596804  0.42696740  0.78593657  1
  Al  Al17  1  0.11043558  0.76093768  0.30910572  1
  Al  Al18  1  0.21366315  0.86743298  0.06084796  1
  Al  Al19  1  0.78000025  0.76208738  0.79480137  1
  Al  Al20  1  0.89464993  0.86428959  0.55602467  1
  Al  Al21  1  0.43411661  0.76046337  0.30260732  1
  Al  Al22  1  0.11623683  0.75418057  0.79547563  1
  Al  Al23  1  0.22013920  0.87593951  0.54404546  1
  Al  Al24  1  0.79317225  0.75227395  0.31130266  1
  Al  Al25  1  0.89672452  0.87112905  0.04720837  1
  Al  Al26  1  0.44031682  0.76491562  0.80133547  1
  Al  Al27  1  0.55407236  0.87508825  0.55131038  1
  Gd  Gd28  1  0.21632136  0.20608128  0.06420526  1
  Gd  Gd29  1  0.55760983  0.20754140  0.03281359  1
  Gd  Gd30  1  0.11779422  0.08763866  0.79628584  1
  Gd  Gd31  1  0.77477419  0.08782995  0.30992626  1
  Gd  Gd32  1  0.21441066  0.54571416  0.06006812  1
  Gd  Gd33  1  0.77954519  0.43632118  0.28688434  1
  Gd  Gd34  1  0.56007160  0.54174890  0.56896077  1
  Gd  Gd35  1  0.56228735  0.86269610  0.05996432  1
  N  N36  1  0.21741436  0.20664339  0.35661748  1
  N  N37  1  0.09167536  0.08224957  0.11730637  1
  N  N38  1  0.86586167  0.21097837  0.85861134  1
  N  N39  1  0.78283248  0.09195686  0.59819516  1
  N  N40  1  0.52395174  0.22562204  0.37604914  1
  N  N41  1  0.45265327  0.09531280  0.14364898  1
  N  N42  1  0.24202659  0.22018517  0.84588958  1
  N  N43  1  0.11629304  0.09213493  0.58571578  1
  N  N44  1  0.90761722  0.20143997  0.37147217  1
  N  N45  1  0.79755790  0.08198641  0.09441798  1
  N  N46  1  0.55831462  0.20265278  0.81518506  1
  N  N47  1  0.44115780  0.09278018  0.59503356  1
  N  N48  1  0.21947616  0.54196409  0.35775892  1
  N  N49  1  0.07353082  0.44163009  0.13751318  1
  N  N50  1  0.89732336  0.54184739  0.85647528  1
  N  N51  1  0.81690077  0.40905734  0.62571924  1
  N  N52  1  0.53211860  0.55246736  0.35934469  1
  N  N53  1  0.46308046  0.43605629  0.12649277  1
  N  N54  1  0.22192454  0.53872557  0.84052672  1
  N  N55  1  0.11547759  0.42709893  0.60269796  1
  N  N56  1  0.89894252  0.54947099  0.38081815  1
  N  N57  1  0.77343034  0.43417820  0.06703530  1
  N  N58  1  0.55140212  0.54032959  0.84507777  1
  N  N59  1  0.42542719  0.42185546  0.60813932  1
  N  N60  1  0.22105918  0.87091984  0.36106141  1
  N  N61  1  0.09336737  0.78647171  0.12738570  1
  N  N62  1  0.89277693  0.86951668  0.85419849  1
  N  N63  1  0.77723665  0.76089277  0.61225144  1
  N  N64  1  0.56025403  0.86447360  0.36064025  1
  N  N65  1  0.42614771  0.74863877  0.11817059  1
  N  N66  1  0.23477441  0.84051755  0.87609992  1
  N  N67  1  0.11460520  0.76274684  0.60947008  1
  N  N68  1  0.90660802  0.84312294  0.37742873  1
  N  N69  1  0.81082883  0.74753012  0.12089687  1
  N  N70  1  0.55565018  0.87685953  0.84074078  1
  N  N71  1  0.42218780  0.79763092  0.62002571  1
