# generated using pymatgen
data_Gd2Al7N9
_symmetry_space_group_name_H-M   'P 1'
_cell_length_a   9.86304843
_cell_length_b   9.84939126
_cell_length_c   10.47242947
_cell_angle_alpha   90.19618352
_cell_angle_beta   90.06730815
_cell_angle_gamma   60.04189781
_symmetry_Int_Tables_number   1
_chemical_formula_structural   Gd2Al7N9
_chemical_formula_sum   'Gd8 Al28 N36'
_cell_volume   881.41249526
_cell_formula_units_Z   4
loop_
 _symmetry_equiv_pos_site_id
 _symmetry_equiv_pos_as_xyz
  1  'x, y, z'
loop_
 _atom_site_type_symbol
 _atom_site_label
 _atom_site_symmetry_multiplicity
 _atom_site_fract_x
 _atom_site_fract_y
 _atom_site_fract_z
 _atom_site_occupancy
  Al  Al0  1  0.11228377  0.08852035  0.30512982  1
  Al  Al1  1  0.77787778  0.09258150  0.78176374  1
  Al  Al2  1  0.89950870  0.20389291  0.54708738  1
  Al  Al3  1  0.43927339  0.09812614  0.31718363  1
  Al  Al4  1  0.22099694  0.20700288  0.53850021  1
  Al  Al5  1  0.88524752  0.20080669  0.03578061  1
  Al  Al6  1  0.44806182  0.09439778  0.77430315  1
  Al  Al7  1  0.54558829  0.20865484  0.55389231  1
  Al  Al8  1  0.10568312  0.43395906  0.31234648  1
  Al  Al9  1  0.78289526  0.42649383  0.80814396  1
  Al  Al10  1  0.89808359  0.53734914  0.55630914  1
  Al  Al11  1  0.43668222  0.43455001  0.30601627  1
  Al  Al12  1  0.54957769  0.54246855  0.03688472  1
  Al  Al13  1  0.11772892  0.43052567  0.78333522  1
  Al  Al14  1  0.21811193  0.54031817  0.54357076  1
  Al  Al15  1  0.88911564  0.54298883  0.03882547  1
  Al  Al16  1  0.43596149  0.42694846  0.78242749  1
  Al  Al17  1  0.11041971  0.76091800  0.30560139  1
  Al  Al18  1  0.21365179  0.86741376  0.05734406  1
  Al  Al19  1  0.77999555  0.76206401  0.79129300  1
  Al  Al20  1  0.89463776  0.86427092  0.55251998  1
  Al  Al21  1  0.43409896  0.76044563  0.29910422  1
  Al  Al22  1  0.11623261  0.75416057  0.79196678  1
  Al  Al23  1  0.22012545  0.87592273  0.54053893  1
  Al  Al24  1  0.79315771  0.75225112  0.30779663  1
  Al  Al25  1  0.89671698  0.87110485  0.04369432  1
  Al  Al26  1  0.44030848  0.76490019  0.79783420  1
  Al  Al27  1  0.55405907  0.87507005  0.54780802  1
  Gd  Gd28  1  0.21631128  0.20605986  0.06070161  1
  Gd  Gd29  1  0.55759407  0.20751958  0.02930183  1
  Gd  Gd30  1  0.11779127  0.08762003  0.79277572  1
  Gd  Gd31  1  0.77475119  0.08780352  0.30640802  1
  Gd  Gd32  1  0.21441887  0.54569193  0.05656269  1
  Gd  Gd33  1  0.77951186  0.43629924  0.28338312  1
  Gd  Gd34  1  0.56005462  0.54173661  0.56546359  1
  Gd  Gd35  1  0.56227472  0.86267473  0.05646170  1
  N  N36  1  0.21739700  0.20662407  0.35311011  1
  N  N37  1  0.09166429  0.08222899  0.11380233  1
  N  N38  1  0.86586169  0.21096044  0.85510144  1
  N  N39  1  0.78282371  0.09193394  0.59469439  1
  N  N40  1  0.52393883  0.22559971  0.37255176  1
  N  N41  1  0.45264594  0.09529218  0.14014729  1
  N  N42  1  0.24202509  0.22016697  0.84238700  1
  N  N43  1  0.11627858  0.09211887  0.58220635  1
  N  N44  1  0.90759466  0.20141276  0.36796311  1
  N  N45  1  0.79754664  0.08196527  0.09089745  1
  N  N46  1  0.55831099  0.20263472  0.81167383  1
  N  N47  1  0.44114530  0.09276126  0.59153053  1
  N  N48  1  0.21946247  0.54194372  0.35425241  1
  N  N49  1  0.07353860  0.44161361  0.13400071  1
  N  N50  1  0.89731921  0.54182584  0.85297127  1
  N  N51  1  0.81689028  0.40903741  0.62220710  1
  N  N52  1  0.53209310  0.55245620  0.35585173  1
  N  N53  1  0.46309435  0.43602376  0.12299603  1
  N  N54  1  0.22192223  0.53870658  0.83702052  1
  N  N55  1  0.11546575  0.42708098  0.59919076  1
  N  N56  1  0.89892827  0.54944406  0.37730251  1
  N  N57  1  0.77342864  0.43415681  0.06353438  1
  N  N58  1  0.55139855  0.54031090  0.84156971  1
  N  N59  1  0.42541560  0.42183699  0.60463223  1
  N  N60  1  0.22104294  0.87090201  0.35755591  1
  N  N61  1  0.09335751  0.78645017  0.12387968  1
  N  N62  1  0.89277509  0.86949262  0.85068768  1
  N  N63  1  0.77722642  0.76086942  0.60874262  1
  N  N64  1  0.56023845  0.86445376  0.35713665  1
  N  N65  1  0.42613900  0.74861221  0.11466647  1
  N  N66  1  0.23476762  0.84050176  0.87259592  1
  N  N67  1  0.11459613  0.76272731  0.60596251  1
  N  N68  1  0.90659398  0.84310142  0.37392400  1
  N  N69  1  0.81081696  0.74751283  0.11739104  1
  N  N70  1  0.55564791  0.87684098  0.83723794  1
  N  N71  1  0.42217204  0.79761966  0.61652608  1
