# generated using pymatgen
data_Gd2Al7N9
_symmetry_space_group_name_H-M   'P 1'
_cell_length_a   9.86519097
_cell_length_b   9.85454187
_cell_length_c   10.46929337
_cell_angle_alpha   89.99514552
_cell_angle_beta   89.71314601
_cell_angle_gamma   60.06057910
_symmetry_Int_Tables_number   1
_chemical_formula_structural   Gd2Al7N9
_chemical_formula_sum   'Gd8 Al28 N36'
_cell_volume   881.95737218
_cell_formula_units_Z   4
loop_
 _symmetry_equiv_pos_site_id
 _symmetry_equiv_pos_as_xyz
  1  'x, y, z'
loop_
 _atom_site_type_symbol
 _atom_site_label
 _atom_site_symmetry_multiplicity
 _atom_site_fract_x
 _atom_site_fract_y
 _atom_site_fract_z
 _atom_site_occupancy
  Al  Al0  1  0.11523662  0.08908172  0.31765318  1
  Al  Al1  1  0.77639119  0.09246267  0.78645784  1
  Al  Al2  1  0.89969085  0.20435729  0.55400091  1
  Al  Al3  1  0.44114645  0.09782826  0.32242940  1
  Al  Al4  1  0.22239966  0.20744257  0.54597236  1
  Al  Al5  1  0.88437160  0.20128702  0.03832823  1
  Al  Al6  1  0.44752824  0.09404108  0.77997844  1
  Al  Al7  1  0.54628022  0.20848050  0.55834081  1
  Al  Al8  1  0.10583180  0.43492061  0.31890393  1
  Al  Al9  1  0.78136423  0.42694907  0.81328733  1
  Al  Al10  1  0.89814872  0.53785577  0.56225386  1
  Al  Al11  1  0.43753786  0.43477099  0.30978735  1
  Al  Al12  1  0.54782428  0.54319593  0.04165990  1
  Al  Al13  1  0.11701448  0.43018037  0.78884159  1
  Al  Al14  1  0.21871603  0.54011572  0.54879446  1
  Al  Al15  1  0.88781436  0.54340039  0.04304753  1
  Al  Al16  1  0.43548101  0.42670430  0.78757640  1
  Al  Al17  1  0.11112119  0.76150243  0.31071662  1
  Al  Al18  1  0.21328442  0.86775326  0.06061920  1
  Al  Al19  1  0.77947607  0.76224320  0.79633761  1
  Al  Al20  1  0.89472101  0.86429053  0.55738279  1
  Al  Al21  1  0.43542511  0.75998590  0.30319727  1
  Al  Al22  1  0.11572337  0.75296522  0.79683253  1
  Al  Al23  1  0.22140797  0.87441828  0.54701905  1
  Al  Al24  1  0.79345405  0.75292422  0.31286779  1
  Al  Al25  1  0.89612755  0.87212852  0.04895516  1
  Al  Al26  1  0.44054094  0.76334334  0.80222961  1
  Al  Al27  1  0.55471738  0.87475452  0.55304195  1
  Gd  Gd28  1  0.21619716  0.20708756  0.06626264  1
  Gd  Gd29  1  0.55689306  0.20827761  0.03524350  1
  Gd  Gd30  1  0.11715214  0.08629722  0.79909665  1
  Gd  Gd31  1  0.77743993  0.08843040  0.31146579  1
  Gd  Gd32  1  0.21101645  0.54678744  0.06235383  1
  Gd  Gd33  1  0.78423387  0.43541835  0.28650330  1
  Gd  Gd34  1  0.56138311  0.54065138  0.56825741  1
  Gd  Gd35  1  0.56240447  0.86277000  0.06090449  1
  N  N36  1  0.21934113  0.20757698  0.36035226  1
  N  N37  1  0.09133470  0.08297117  0.11301101  1
  N  N38  1  0.86382727  0.21106772  0.85791630  1
  N  N39  1  0.78261446  0.09190015  0.59958385  1
  N  N40  1  0.52577993  0.22548467  0.37667805  1
  N  N41  1  0.45270373  0.09438610  0.14541517  1
  N  N42  1  0.24051329  0.21957250  0.84709195  1
  N  N43  1  0.11730489  0.09139720  0.58724047  1
  N  N44  1  0.90887871  0.20248757  0.37474952  1
  N  N45  1  0.79678163  0.08295897  0.09583779  1
  N  N46  1  0.55700508  0.20242101  0.81758342  1
  N  N47  1  0.44218013  0.09241051  0.59708919  1
  N  N48  1  0.22023820  0.54238215  0.35936055  1
  N  N49  1  0.06967362  0.44187390  0.14110389  1
  N  N50  1  0.89652373  0.54214688  0.85758425  1
  N  N51  1  0.81658340  0.40973339  0.62770444  1
  N  N52  1  0.53537612  0.55093850  0.35792317  1
  N  N53  1  0.45918043  0.43793683  0.12682032  1
  N  N54  1  0.22109382  0.53783438  0.84258429  1
  N  N55  1  0.11557678  0.42739553  0.60482857  1
  N  N56  1  0.89897233  0.55070507  0.38365233  1
  N  N57  1  0.77173967  0.43442887  0.06641369  1
  N  N58  1  0.55049982  0.53974778  0.84631999  1
  N  N59  1  0.42593930  0.42153721  0.60943557  1
  N  N60  1  0.22258114  0.87028215  0.36365207  1
  N  N61  1  0.09268157  0.78766703  0.12918133  1
  N  N62  1  0.89195539  0.86961062  0.85585216  1
  N  N63  1  0.77735734  0.76127332  0.61403020  1
  N  N64  1  0.56094836  0.86450461  0.36240000  1
  N  N65  1  0.42521859  0.74959968  0.11881042  1
  N  N66  1  0.23474211  0.83817074  0.87602122  1
  N  N67  1  0.11453384  0.76204971  0.61094461  1
  N  N68  1  0.90688143  0.84372574  0.37873762  1
  N  N69  1  0.81077659  0.74755387  0.12219631  1
  N  N70  1  0.55474856  0.87620036  0.84176203  1
  N  N71  1  0.42365735  0.79575382  0.62092189  1
