# generated using pymatgen
data_Gd2Al7N9
_symmetry_space_group_name_H-M   'P 1'
_cell_length_a   9.89539128
_cell_length_b   9.83473851
_cell_length_c   10.75601117
_cell_angle_alpha   89.61008030
_cell_angle_beta   89.34702676
_cell_angle_gamma   59.79209907
_symmetry_Int_Tables_number   1
_chemical_formula_structural   Gd2Al7N9
_chemical_formula_sum   'Gd8 Al28 N36'
_cell_volume   904.55605661
_cell_formula_units_Z   4
loop_
 _symmetry_equiv_pos_site_id
 _symmetry_equiv_pos_as_xyz
  1  'x, y, z'
loop_
 _atom_site_type_symbol
 _atom_site_label
 _atom_site_symmetry_multiplicity
 _atom_site_fract_x
 _atom_site_fract_y
 _atom_site_fract_z
 _atom_site_occupancy
  Al  Al0  1  0.12545442  0.08257880  0.39181428  1
  Al  Al1  1  0.76983541  0.09791566  0.79025455  1
  Al  Al2  1  0.89549313  0.20313286  0.56448326  1
  Al  Al3  1  0.44252281  0.10142563  0.33308358  1
  Al  Al4  1  0.23166902  0.20634141  0.56340788  1
  Al  Al5  1  0.87521834  0.20685912  0.03674261  1
  Al  Al6  1  0.44443391  0.10153243  0.79639087  1
  Al  Al7  1  0.54829666  0.20532845  0.56496103  1
  Al  Al8  1  0.10087619  0.43633409  0.33185512  1
  Al  Al9  1  0.77748427  0.42524541  0.81565346  1
  Al  Al10  1  0.90563898  0.52588304  0.58293350  1
  Al  Al11  1  0.44277133  0.43640873  0.31864907  1
  Al  Al12  1  0.54707455  0.53826344  0.04288904  1
  Al  Al13  1  0.12221752  0.43009169  0.80458234  1
  Al  Al14  1  0.22592389  0.52773403  0.55895729  1
  Al  Al15  1  0.88427769  0.53820373  0.03920164  1
  Al  Al16  1  0.43446734  0.42530030  0.80033888  1
  Al  Al17  1  0.12032395  0.75958940  0.38810994  1
  Al  Al18  1  0.20861042  0.88045290  0.11726805  1
  Al  Al19  1  0.77918521  0.76110397  0.85279895  1
  Al  Al20  1  0.89640435  0.87046934  0.57590481  1
  Al  Al21  1  0.43746501  0.77390174  0.38911528  1
  Al  Al22  1  0.12082764  0.75821797  0.86455839  1
  Al  Al23  1  0.23043282  0.86061218  0.62483148  1
  Al  Al24  1  0.77753376  0.75781187  0.41370969  1
  Al  Al25  1  0.88595190  0.88816426  0.02671365  1
  Al  Al26  1  0.43861474  0.76215902  0.86867022  1
  Al  Al27  1  0.55507110  0.87199135  0.62993136  1
  Gd  Gd28  1  0.21007653  0.21333292  0.08049826  1
  Gd  Gd29  1  0.55148173  0.20934152  0.04724705  1
  Gd  Gd30  1  0.10603964  0.10226443  0.82317523  1
  Gd  Gd31  1  0.78240812  0.08484271  0.31417150  1
  Gd  Gd32  1  0.20302446  0.54974273  0.08988051  1
  Gd  Gd33  1  0.79083615  0.43521530  0.29509359  1
  Gd  Gd34  1  0.56379752  0.53286439  0.58388022  1
  Gd  Gd35  1  0.57283563  0.84112558  0.13721451  1
  N  N36  1  0.22431722  0.20790707  0.38169023  1
  N  N37  1  0.09120934  0.08587435  0.05667456  1
  N  N38  1  0.84930341  0.21647561  0.86301923  1
  N  N39  1  0.77842492  0.09727745  0.60975467  1
  N  N40  1  0.53099660  0.22375678  0.38739187  1
  N  N41  1  0.44844830  0.09546303  0.15819132  1
  N  N42  1  0.24425031  0.22135246  0.86695506  1
  N  N43  1  0.12143008  0.08445566  0.58575436  1
  N  N44  1  0.90930179  0.20037416  0.38781279  1
  N  N45  1  0.79503478  0.08398963  0.10294581  1
  N  N46  1  0.55637651  0.20149137  0.83535576  1
  N  N47  1  0.44346809  0.09563380  0.61694087  1
  N  N48  1  0.22405408  0.53485446  0.36674191  1
  N  N49  1  0.04388242  0.45362512  0.16000779  1
  N  N50  1  0.90303769  0.52401238  0.85803070  1
  N  N51  1  0.81865864  0.40351203  0.63868182  1
  N  N52  1  0.53956714  0.55142391  0.37174502  1
  N  N53  1  0.45830466  0.44270070  0.14006605  1
  N  N54  1  0.22462441  0.53470414  0.86577134  1
  N  N55  1  0.12137992  0.42286564  0.62400684  1
  N  N56  1  0.90336020  0.53967666  0.40763107  1
  N  N57  1  0.76515562  0.43798684  0.07662523  1
  N  N58  1  0.55190039  0.53276572  0.85028148  1
  N  N59  1  0.42673246  0.41534140  0.62444679  1
  N  N60  1  0.22270398  0.87463602  0.31544660  1
  N  N61  1  0.09814659  0.79389359  0.04671961  1
  N  N62  1  0.89155961  0.87831596  0.83887274  1
  N  N63  1  0.77764952  0.76021791  0.59811810  1
  N  N64  1  0.56853325  0.86460911  0.35250609  1
  N  N65  1  0.41720786  0.76170138  0.04703214  1
  N  N66  1  0.24001660  0.84020078  0.79835510  1
  N  N67  1  0.12579069  0.75526359  0.56982153  1
  N  N68  1  0.90220600  0.84824667  0.39213083  1
  N  N69  1  0.79715303  0.75929554  0.03526993  1
  N  N70  1  0.55373578  0.86677906  0.81382560  1
  N  N71  1  0.43068843  0.79482673  0.56496347  1
