# generated using pymatgen
data_Gd2Al7N9
_symmetry_space_group_name_H-M   'P 1'
_cell_length_a   9.87210913
_cell_length_b   9.78211355
_cell_length_c   10.96976473
_cell_angle_alpha   89.43734843
_cell_angle_beta   89.25036048
_cell_angle_gamma   59.62349005
_symmetry_Int_Tables_number   1
_chemical_formula_structural   Gd2Al7N9
_chemical_formula_sum   'Gd8 Al28 N36'
_cell_volume   913.84005879
_cell_formula_units_Z   4
loop_
 _symmetry_equiv_pos_site_id
 _symmetry_equiv_pos_as_xyz
  1  'x, y, z'
loop_
 _atom_site_type_symbol
 _atom_site_label
 _atom_site_symmetry_multiplicity
 _atom_site_fract_x
 _atom_site_fract_y
 _atom_site_fract_z
 _atom_site_occupancy
  Al  Al0  1  0.12506875  0.08491227  0.40220252  1
  Al  Al1  1  0.77057315  0.09654305  0.79207189  1
  Al  Al2  1  0.89588493  0.20413706  0.56965499  1
  Al  Al3  1  0.44383229  0.10278294  0.33786496  1
  Al  Al4  1  0.23206405  0.21072206  0.56682729  1
  Al  Al5  1  0.87072822  0.20500039  0.03348201  1
  Al  Al6  1  0.44477733  0.10391891  0.80098442  1
  Al  Al7  1  0.54842554  0.20664632  0.56504006  1
  Al  Al8  1  0.10195867  0.43993407  0.33816560  1
  Al  Al9  1  0.77574843  0.42595354  0.81448913  1
  Al  Al10  1  0.90623529  0.52736366  0.58616097  1
  Al  Al11  1  0.44297263  0.43977663  0.31282067  1
  Al  Al12  1  0.54848405  0.53290172  0.04124046  1
  Al  Al13  1  0.11726478  0.42728564  0.81427061  1
  Al  Al14  1  0.21912517  0.54246746  0.63882264  1
  Al  Al15  1  0.88038824  0.53491298  0.04249172  1
  Al  Al16  1  0.44899478  0.42076325  0.80181721  1
  Al  Al17  1  0.12708228  0.75226588  0.39672329  1
  Al  Al18  1  0.20880155  0.87446249  0.09461090  1
  Al  Al19  1  0.77515323  0.76162325  0.85949007  1
  Al  Al20  1  0.89568937  0.87345375  0.57728916  1
  Al  Al21  1  0.43463715  0.78009181  0.39577747  1
  Al  Al22  1  0.11738312  0.76108688  0.86199313  1
  Al  Al23  1  0.23212465  0.86273951  0.62904756  1
  Al  Al24  1  0.77809784  0.76100077  0.42060920  1
  Al  Al25  1  0.88506479  0.88424219  0.02566945  1
  Al  Al26  1  0.44003173  0.76197538  0.86859656  1
  Al  Al27  1  0.55666938  0.87161028  0.63495539  1
  Gd  Gd28  1  0.20527874  0.20628419  0.09407203  1
  Gd  Gd29  1  0.54961794  0.19857754  0.04901433  1
  Gd  Gd30  1  0.10795160  0.10960398  0.82557928  1
  Gd  Gd31  1  0.78709664  0.08469415  0.31345591  1
  Gd  Gd32  1  0.19690049  0.54940176  0.11639540  1
  Gd  Gd33  1  0.79812979  0.43530923  0.29469728  1
  Gd  Gd34  1  0.56969279  0.52587209  0.57092661  1
  Gd  Gd35  1  0.57207756  0.83306913  0.14980227  1
  N  N36  1  0.22498199  0.21215950  0.38908164  1
  N  N37  1  0.08847393  0.08132987  0.04707283  1
  N  N38  1  0.85047354  0.21551050  0.86219032  1
  N  N39  1  0.77823712  0.09879150  0.61495090  1
  N  N40  1  0.53319196  0.22681370  0.38933332  1
  N  N41  1  0.44670561  0.08949699  0.16661398  1
  N  N42  1  0.24950480  0.22554126  0.88587841  1
  N  N43  1  0.12217106  0.08741370  0.59028484  1
  N  N44  1  0.90667581  0.20508103  0.39517433  1
  N  N45  1  0.79618051  0.07879387  0.10360105  1
  N  N46  1  0.55861252  0.20072335  0.84103190  1
  N  N47  1  0.44240190  0.09877551  0.62384757  1
  N  N48  1  0.21880440  0.54720930  0.32910171  1
  N  N49  1  0.03372954  0.44935147  0.16775980  1
  N  N50  1  0.90073500  0.52278213  0.86536095  1
  N  N51  1  0.81766193  0.40623427  0.64283925  1
  N  N52  1  0.54015554  0.55665257  0.36390344  1
  N  N53  1  0.46103928  0.43380752  0.13380193  1
  N  N54  1  0.22084429  0.54483584  0.82364397  1
  N  N55  1  0.11848915  0.41957074  0.63613799  1
  N  N56  1  0.90522910  0.54080221  0.41402896  1
  N  N57  1  0.76473349  0.43204103  0.07968297  1
  N  N58  1  0.55371662  0.53265738  0.85512201  1
  N  N59  1  0.43558305  0.41305761  0.62962900  1
  N  N60  1  0.22205196  0.87806579  0.33400518  1
  N  N61  1  0.10073311  0.78169707  0.03725893  1
  N  N62  1  0.88726561  0.87789538  0.84306272  1
  N  N63  1  0.77858183  0.76192740  0.60064866  1
  N  N64  1  0.56882526  0.86837220  0.36140734  1
  N  N65  1  0.41997973  0.75991699  0.04431397  1
  N  N66  1  0.23805902  0.84644836  0.80089795  1
  N  N67  1  0.12696658  0.75326753  0.57748178  1
  N  N68  1  0.90412378  0.85159476  0.39976411  1
  N  N69  1  0.79017782  0.75951825  0.03895374  1
  N  N70  1  0.55323957  0.86759117  0.81464423  1
  N  N71  1  0.43540918  0.78957717  0.57084233  1
