# generated using pymatgen
data_Gd2Al7N9
_symmetry_space_group_name_H-M   'P 1'
_cell_length_a   9.90511038
_cell_length_b   9.84866599
_cell_length_c   10.59185672
_cell_angle_alpha   89.24212549
_cell_angle_beta   88.96133148
_cell_angle_gamma   59.93046250
_symmetry_Int_Tables_number   1
_chemical_formula_structural   Gd2Al7N9
_chemical_formula_sum   'Gd8 Al28 N36'
_cell_volume   894.04292541
_cell_formula_units_Z   4
loop_
 _symmetry_equiv_pos_site_id
 _symmetry_equiv_pos_as_xyz
  1  'x, y, z'
loop_
 _atom_site_type_symbol
 _atom_site_label
 _atom_site_symmetry_multiplicity
 _atom_site_fract_x
 _atom_site_fract_y
 _atom_site_fract_z
 _atom_site_occupancy
  Al  Al0  1  0.12759122  0.08559947  0.38479799  1
  Al  Al1  1  0.77166591  0.09322792  0.78516497  1
  Al  Al2  1  0.89506854  0.20544520  0.55824561  1
  Al  Al3  1  0.44439972  0.10319600  0.32238743  1
  Al  Al4  1  0.23060886  0.21046172  0.55576550  1
  Al  Al5  1  0.87621917  0.20280965  0.02657248  1
  Al  Al6  1  0.44898045  0.08955910  0.78762139  1
  Al  Al7  1  0.54743896  0.20815396  0.55868030  1
  Al  Al8  1  0.10824171  0.43488914  0.32024889  1
  Al  Al9  1  0.77845105  0.42818535  0.80796193  1
  Al  Al10  1  0.90008082  0.53836952  0.56411916  1
  Al  Al11  1  0.44119247  0.43767205  0.31018917  1
  Al  Al12  1  0.55038206  0.52976802  0.03584285  1
  Al  Al13  1  0.11821883  0.43098741  0.79325381  1
  Al  Al14  1  0.21863554  0.53787920  0.54649566  1
  Al  Al15  1  0.88782303  0.54147527  0.04116641  1
  Al  Al16  1  0.43382813  0.42326036  0.78757800  1
  Al  Al17  1  0.11077352  0.76164758  0.31231010  1
  Al  Al18  1  0.20759713  0.87986032  0.11932662  1
  Al  Al19  1  0.77518284  0.76262152  0.80037463  1
  Al  Al20  1  0.89262691  0.86528789  0.55560936  1
  Al  Al21  1  0.43758436  0.77313788  0.37192449  1
  Al  Al22  1  0.11032270  0.74926577  0.78628885  1
  Al  Al23  1  0.22866070  0.86482298  0.61096109  1
  Al  Al24  1  0.80014027  0.75417645  0.31189406  1
  Al  Al25  1  0.89533432  0.87368715  0.04523492  1
  Al  Al26  1  0.43338732  0.75753154  0.86192545  1
  Al  Al27  1  0.56303319  0.87871834  0.54889375  1
  Gd  Gd28  1  0.21119547  0.20506365  0.07155426  1
  Gd  Gd29  1  0.55303071  0.20420344  0.03635335  1
  Gd  Gd30  1  0.10822974  0.09679329  0.81545700  1
  Gd  Gd31  1  0.78171020  0.09240045  0.30807557  1
  Gd  Gd32  1  0.21014855  0.55037729  0.06475354  1
  Gd  Gd33  1  0.78972784  0.43680704  0.28760609  1
  Gd  Gd34  1  0.56184276  0.53829136  0.57692991  1
  Gd  Gd35  1  0.55800394  0.85308216  0.08229587  1
  N  N36  1  0.22606143  0.21067827  0.37230379  1
  N  N37  1  0.09210660  0.07436220  0.04152762  1
  N  N38  1  0.84938959  0.21718872  0.85006143  1
  N  N39  1  0.78069914  0.09252012  0.60045072  1
  N  N40  1  0.53029591  0.22655888  0.37819452  1
  N  N41  1  0.44741065  0.09266814  0.14831294  1
  N  N42  1  0.24319197  0.22214485  0.85420932  1
  N  N43  1  0.12063997  0.08698582  0.57713373  1
  N  N44  1  0.91204158  0.20324011  0.37894945  1
  N  N45  1  0.79327450  0.08450960  0.09459954  1
  N  N46  1  0.55515646  0.20001262  0.82084206  1
  N  N47  1  0.44642388  0.09043204  0.60509518  1
  N  N48  1  0.22297219  0.54240097  0.35950051  1
  N  N49  1  0.06569291  0.44212997  0.14488505  1
  N  N50  1  0.89638707  0.53879269  0.85703620  1
  N  N51  1  0.81852373  0.41008586  0.62633438  1
  N  N52  1  0.53992901  0.55223426  0.35897055  1
  N  N53  1  0.45935228  0.43381415  0.12948631  1
  N  N54  1  0.21983323  0.54045466  0.84628441  1
  N  N55  1  0.11614930  0.42720180  0.61052419  1
  N  N56  1  0.90253407  0.55263150  0.38675881  1
  N  N57  1  0.76974010  0.43374272  0.06784152  1
  N  N58  1  0.55271968  0.53042651  0.83943751  1
  N  N59  1  0.42309258  0.42023493  0.61044730  1
  N  N60  1  0.22841884  0.88246723  0.30900820  1
  N  N61  1  0.08434950  0.78893987  0.13363842  1
  N  N62  1  0.89213706  0.86934628  0.85358011  1
  N  N63  1  0.77631642  0.76236368  0.61731971  1
  N  N64  1  0.57414695  0.87181319  0.35873194  1
  N  N65  1  0.40564498  0.74676329  0.04195414  1
  N  N66  1  0.24013764  0.83867981  0.78809358  1
  N  N67  1  0.10866370  0.75503424  0.60186968  1
  N  N68  1  0.90677706  0.84867851  0.37878125  1
  N  N69  1  0.81211131  0.74607388  0.11645170  1
  N  N70  1  0.55372175  0.87195665  0.85303035  1
  N  N71  1  0.42790370  0.79666504  0.55017523  1
