# generated using pymatgen
data_Gd2Al7N9
_symmetry_space_group_name_H-M   'P 1'
_cell_length_a   9.87784760
_cell_length_b   9.86484810
_cell_length_c   10.60782276
_cell_angle_alpha   90.44897234
_cell_angle_beta   89.63507298
_cell_angle_gamma   60.14806081
_symmetry_Int_Tables_number   1
_chemical_formula_structural   Gd2Al7N9
_chemical_formula_sum   'Gd8 Al28 N36'
_cell_volume   896.42063602
_cell_formula_units_Z   4
loop_
 _symmetry_equiv_pos_site_id
 _symmetry_equiv_pos_as_xyz
  1  'x, y, z'
loop_
 _atom_site_type_symbol
 _atom_site_label
 _atom_site_symmetry_multiplicity
 _atom_site_fract_x
 _atom_site_fract_y
 _atom_site_fract_z
 _atom_site_occupancy
  Al  Al0  1  0.13111164  0.07820206  0.42623693  1
  Al  Al1  1  0.77432809  0.09918076  0.82521931  1
  Al  Al2  1  0.90024316  0.20440832  0.59764862  1
  Al  Al3  1  0.44385443  0.09121010  0.42077348  1
  Al  Al4  1  0.22936316  0.21192492  0.64415081  1
  Al  Al5  1  0.87729547  0.20551694  0.07338482  1
  Al  Al6  1  0.44430502  0.09912048  0.88636617  1
  Al  Al7  1  0.54407183  0.20547218  0.65684882  1
  Al  Al8  1  0.11058827  0.42779631  0.41757673  1
  Al  Al9  1  0.78270715  0.42793777  0.83800059  1
  Al  Al10  1  0.89787921  0.54019823  0.65843637  1
  Al  Al11  1  0.42637601  0.42473721  0.42228892  1
  Al  Al12  1  0.55878332  0.54272598  0.05273179  1
  Al  Al13  1  0.11110332  0.43684836  0.88874662  1
  Al  Al14  1  0.21244249  0.54017542  0.65282471  1
  Al  Al15  1  0.89130616  0.54719392  0.12948792  1
  Al  Al16  1  0.43570899  0.43046076  0.88390051  1
  Al  Al17  1  0.12138113  0.74881819  0.40827795  1
  Al  Al18  1  0.20927717  0.88057853  0.14512000  1
  Al  Al19  1  0.78473455  0.76466561  0.89460116  1
  Al  Al20  1  0.89758705  0.86080207  0.65257702  1
  Al  Al21  1  0.43706578  0.76938788  0.41165822  1
  Al  Al22  1  0.11073813  0.76337423  0.89394075  1
  Al  Al23  1  0.22429798  0.86906590  0.65010582  1
  Al  Al24  1  0.79494732  0.74220172  0.40295915  1
  Al  Al25  1  0.90065308  0.87078404  0.15077790  1
  Al  Al26  1  0.44001545  0.76778329  0.88800247  1
  Al  Al27  1  0.55801151  0.87705888  0.64853084  1
  Gd  Gd28  1  0.20531239  0.21341481  0.16617017  1
  Gd  Gd29  1  0.55249093  0.21183952  0.13940567  1
  Gd  Gd30  1  0.11720869  0.09517955  0.87359616  1
  Gd  Gd31  1  0.78233003  0.07339040  0.39113908  1
  Gd  Gd32  1  0.21236641  0.55615617  0.15240968  1
  Gd  Gd33  1  0.76787840  0.41923187  0.33002283  1
  Gd  Gd34  1  0.54947144  0.54426678  0.62878182  1
  Gd  Gd35  1  0.55885279  0.86090900  0.14803628  1
  N  N36  1  0.22566264  0.19855976  0.38728934  1
  N  N37  1  0.09593937  0.08911643  0.09048743  1
  N  N38  1  0.85297366  0.22063322  0.89341229  1
  N  N39  1  0.77918797  0.09501753  0.63492833  1
  N  N40  1  0.52109206  0.21885436  0.35489636  1
  N  N41  1  0.43103352  0.09161310  0.06213840  1
  N  N42  1  0.23830889  0.22919122  0.82302311  1
  N  N43  1  0.12225116  0.08793741  0.61912020  1
  N  N44  1  0.91675275  0.19203082  0.42118633  1
  N  N45  1  0.80493284  0.09000470  0.16037286  1
  N  N46  1  0.55279397  0.20786685  0.83898711  1
  N  N47  1  0.45317145  0.08995387  0.60018899  1
  N  N48  1  0.22121455  0.53248973  0.36929695  1
  N  N49  1  0.09174586  0.43744881  0.06497490  1
  N  N50  1  0.89177126  0.54850584  0.83979777  1
  N  N51  1  0.80894924  0.40930021  0.65483969  1
  N  N52  1  0.52360033  0.54949644  0.40384055  1
  N  N53  1  0.44493532  0.44406441  0.05950578  1
  N  N54  1  0.21607161  0.54776305  0.83645431  1
  N  N55  1  0.10474149  0.43369704  0.59728378  1
  N  N56  1  0.91153177  0.53632556  0.32832431  1
  N  N57  1  0.76958614  0.44027519  0.10997226  1
  N  N58  1  0.56048383  0.54334632  0.86301638  1
  N  N59  1  0.42260433  0.41031305  0.60404103  1
  N  N60  1  0.22499609  0.87030171  0.34135239  1
  N  N61  1  0.09609518  0.79270813  0.07266461  1
  N  N62  1  0.89276616  0.87186961  0.83327584  1
  N  N63  1  0.78523630  0.75559140  0.59101026  1
  N  N64  1  0.56586829  0.86703918  0.36551503  1
  N  N65  1  0.41912743  0.76038057  0.06980775  1
  N  N66  1  0.23886283  0.83908923  0.82468359  1
  N  N67  1  0.11238368  0.76232587  0.59107167  1
  N  N68  1  0.92146668  0.82268940  0.33233846  1
  N  N69  1  0.80450643  0.75864687  0.07529460  1
  N  N70  1  0.55953422  0.87195087  0.83590180  1
  N  N71  1  0.42711567  0.80154237  0.58926785  1
