# generated using pymatgen
data_Gd2Al7N9
_symmetry_space_group_name_H-M   'P 1'
_cell_length_a   9.90956319
_cell_length_b   9.92958468
_cell_length_c   10.52255397
_cell_angle_alpha   90.51597982
_cell_angle_beta   90.04514602
_cell_angle_gamma   59.79804063
_symmetry_Int_Tables_number   1
_chemical_formula_structural   Gd2Al7N9
_chemical_formula_sum   'Gd8 Al28 N36'
_cell_volume   894.80475231
_cell_formula_units_Z   4
loop_
 _symmetry_equiv_pos_site_id
 _symmetry_equiv_pos_as_xyz
  1  'x, y, z'
loop_
 _atom_site_type_symbol
 _atom_site_label
 _atom_site_symmetry_multiplicity
 _atom_site_fract_x
 _atom_site_fract_y
 _atom_site_fract_z
 _atom_site_occupancy
  Al  Al0  1  0.12082503  0.08558422  0.41725494  1
  Al  Al1  1  0.77447802  0.09446425  0.82915898  1
  Al  Al2  1  0.89179349  0.20652731  0.64776885  1
  Al  Al3  1  0.44531376  0.09036633  0.42214998  1
  Al  Al4  1  0.22335976  0.21079660  0.63690620  1
  Al  Al5  1  0.89960636  0.19651603  0.16450558  1
  Al  Al6  1  0.44265604  0.09644985  0.88265573  1
  Al  Al7  1  0.54273149  0.20413946  0.65598019  1
  Al  Al8  1  0.11316736  0.43228920  0.41668897  1
  Al  Al9  1  0.78102049  0.43456367  0.82773779  1
  Al  Al10  1  0.89412189  0.54607303  0.64965567  1
  Al  Al11  1  0.42563003  0.42447103  0.42038788  1
  Al  Al12  1  0.56897725  0.53434062  0.06256215  1
  Al  Al13  1  0.11045042  0.43169213  0.88633182  1
  Al  Al14  1  0.21083834  0.53911040  0.65380413  1
  Al  Al15  1  0.89418526  0.53987197  0.14019735  1
  Al  Al16  1  0.43841213  0.42851532  0.88588337  1
  Al  Al17  1  0.12281024  0.74943123  0.40752474  1
  Al  Al18  1  0.21714382  0.87136916  0.15154071  1
  Al  Al19  1  0.78729954  0.76013866  0.89455737  1
  Al  Al20  1  0.89696551  0.86068685  0.65017492  1
  Al  Al21  1  0.43082563  0.77384757  0.41237846  1
  Al  Al22  1  0.11262861  0.76234583  0.89397530  1
  Al  Al23  1  0.21621327  0.87810916  0.64940957  1
  Al  Al24  1  0.79488732  0.75223203  0.40205661  1
  Al  Al25  1  0.90407556  0.86497871  0.14929853  1
  Al  Al26  1  0.44109273  0.76585650  0.89202090  1
  Al  Al27  1  0.55648694  0.87708775  0.64911029  1
  Gd  Gd28  1  0.21517762  0.21098055  0.17208703  1
  Gd  Gd29  1  0.55731942  0.20717816  0.13362628  1
  Gd  Gd30  1  0.11361472  0.09676044  0.89433374  1
  Gd  Gd31  1  0.78272575  0.08283760  0.39407084  1
  Gd  Gd32  1  0.21406801  0.54924441  0.14685562  1
  Gd  Gd33  1  0.76664470  0.44499880  0.36987565  1
  Gd  Gd34  1  0.53060582  0.55504751  0.63291872  1
  Gd  Gd35  1  0.56375447  0.85833571  0.14596767  1
  N  N36  1  0.22511984  0.20165961  0.39425642  1
  N  N37  1  0.10539482  0.08262064  0.10570141  1
  N  N38  1  0.86551503  0.21909511  0.83043590  1
  N  N39  1  0.77561033  0.09195130  0.62699811  1
  N  N40  1  0.52113900  0.21691732  0.35281970  1
  N  N41  1  0.43209882  0.08896139  0.05929573  1
  N  N42  1  0.23389899  0.22355273  0.81907633  1
  N  N43  1  0.10583806  0.09380645  0.60340588  1
  N  N44  1  0.92260145  0.19337364  0.34816774  1
  N  N45  1  0.80603654  0.07851711  0.14374742  1
  N  N46  1  0.55377541  0.20563803  0.84098052  1
  N  N47  1  0.45158257  0.08923181  0.60258488  1
  N  N48  1  0.22122200  0.53434031  0.36521517  1
  N  N49  1  0.09015262  0.42924231  0.06362569  1
  N  N50  1  0.89114568  0.54639326  0.83208067  1
  N  N51  1  0.79568022  0.42526076  0.62415222  1
  N  N52  1  0.51095750  0.55640920  0.40809606  1
  N  N53  1  0.44897638  0.44303677  0.06106154  1
  N  N54  1  0.21674376  0.54489720  0.83908234  1
  N  N55  1  0.10264720  0.43647845  0.59646054  1
  N  N56  1  0.91709629  0.54737027  0.32865024  1
  N  N57  1  0.77342235  0.43251079  0.13293546  1
  N  N58  1  0.56502316  0.54041156  0.86546156  1
  N  N59  1  0.41981474  0.40804352  0.60377871  1
  N  N60  1  0.22270360  0.87058227  0.34315466  1
  N  N61  1  0.10210010  0.78790982  0.07420840  1
  N  N62  1  0.89341128  0.86954580  0.83305796  1
  N  N63  1  0.78289445  0.76007852  0.58945632  1
  N  N64  1  0.56392157  0.86693668  0.36492521  1
  N  N65  1  0.42564284  0.75401332  0.07398008  1
  N  N66  1  0.23696395  0.84376099  0.82623493  1
  N  N67  1  0.11325929  0.76095437  0.59235387  1
  N  N68  1  0.91833240  0.83320064  0.33560362  1
  N  N69  1  0.81157150  0.74881112  0.07596474  1
  N  N70  1  0.56166545  0.86772314  0.83731308  1
  N  N71  1  0.41980311  0.80966351  0.59036648  1
