# generated using pymatgen
data_Gd2Al7N9
_symmetry_space_group_name_H-M   'P 1'
_cell_length_a   9.90945156
_cell_length_b   9.89753609
_cell_length_c   10.54184152
_cell_angle_alpha   90.45510202
_cell_angle_beta   89.90152325
_cell_angle_gamma   59.95433170
_symmetry_Int_Tables_number   1
_chemical_formula_structural   Gd2Al7N9
_chemical_formula_sum   'Gd8 Al28 N36'
_cell_volume   894.95394316
_cell_formula_units_Z   4
loop_
 _symmetry_equiv_pos_site_id
 _symmetry_equiv_pos_as_xyz
  1  'x, y, z'
loop_
 _atom_site_type_symbol
 _atom_site_label
 _atom_site_symmetry_multiplicity
 _atom_site_fract_x
 _atom_site_fract_y
 _atom_site_fract_z
 _atom_site_occupancy
  Al  Al0  1  0.12865429  0.08002332  0.42606841  1
  Al  Al1  1  0.77640896  0.09866654  0.82619544  1
  Al  Al2  1  0.89742890  0.20601188  0.59767173  1
  Al  Al3  1  0.44300839  0.09176124  0.42015006  1
  Al  Al4  1  0.22780061  0.21277484  0.64179826  1
  Al  Al5  1  0.87917103  0.20661139  0.07697734  1
  Al  Al6  1  0.44512971  0.09725065  0.88395564  1
  Al  Al7  1  0.54403417  0.20493870  0.65690820  1
  Al  Al8  1  0.11023288  0.43050177  0.41644367  1
  Al  Al9  1  0.78366450  0.42796671  0.83285125  1
  Al  Al10  1  0.89567039  0.54277988  0.65478646  1
  Al  Al11  1  0.42437189  0.42507210  0.42066372  1
  Al  Al12  1  0.56367796  0.53904199  0.05638261  1
  Al  Al13  1  0.11090709  0.43517202  0.88880695  1
  Al  Al14  1  0.21116197  0.53983676  0.65354649  1
  Al  Al15  1  0.89414194  0.54469136  0.13687780  1
  Al  Al16  1  0.43788899  0.42908686  0.88427715  1
  Al  Al17  1  0.12057188  0.75002594  0.40779867  1
  Al  Al18  1  0.21079103  0.87879496  0.14722427  1
  Al  Al19  1  0.78744967  0.76161936  0.89468963  1
  Al  Al20  1  0.89723367  0.86164199  0.65177636  1
  Al  Al21  1  0.43367391  0.77169848  0.41087261  1
  Al  Al22  1  0.11201223  0.76260389  0.89414293  1
  Al  Al23  1  0.22220769  0.87123059  0.65025031  1
  Al  Al24  1  0.79377115  0.74671162  0.40262141  1
  Al  Al25  1  0.90304335  0.86848535  0.15026715  1
  Al  Al26  1  0.44167753  0.76558056  0.88993275  1
  Al  Al27  1  0.55750774  0.87699867  0.64819930  1
  Gd  Gd28  1  0.20923162  0.21025658  0.16720986  1
  Gd  Gd29  1  0.55547554  0.20734555  0.13381943  1
  Gd  Gd30  1  0.11999139  0.09402587  0.87582039  1
  Gd  Gd31  1  0.78004820  0.07718268  0.38822550  1
  Gd  Gd32  1  0.21622897  0.55207054  0.14935074  1
  Gd  Gd33  1  0.76568152  0.42731449  0.34144791  1
  Gd  Gd34  1  0.54085218  0.54889463  0.63046359  1
  Gd  Gd35  1  0.56190283  0.85850025  0.14601216  1
  N  N36  1  0.22363137  0.20019283  0.38993866  1
  N  N37  1  0.09776991  0.08759442  0.09318868  1
  N  N38  1  0.85591800  0.22164164  0.89137414  1
  N  N39  1  0.77832977  0.09583620  0.63427281  1
  N  N40  1  0.51769780  0.21965846  0.35117848  1
  N  N41  1  0.43144294  0.08868341  0.06003411  1
  N  N42  1  0.23853663  0.22869981  0.82174301  1
  N  N43  1  0.11907607  0.09001981  0.61977810  1
  N  N44  1  0.91499788  0.19332783  0.41976227  1
  N  N45  1  0.80697348  0.08679354  0.15661370  1
  N  N46  1  0.55470131  0.20609400  0.84046024  1
  N  N47  1  0.45307981  0.08994741  0.60059949  1
  N  N48  1  0.21944097  0.53443269  0.36711961  1
  N  N49  1  0.09177728  0.43431766  0.06627442  1
  N  N50  1  0.89252309  0.54676337  0.83681437  1
  N  N51  1  0.80249957  0.41543804  0.64643578  1
  N  N52  1  0.51687567  0.55282200  0.40474083  1
  N  N53  1  0.44961930  0.44155871  0.06012594  1
  N  N54  1  0.21677646  0.54624451  0.83851287  1
  N  N55  1  0.10290624  0.43564347  0.59646798  1
  N  N56  1  0.91156248  0.54109631  0.32897242  1
  N  N57  1  0.77186938  0.43715911  0.11938243  1
  N  N58  1  0.56334593  0.54158792  0.86418432  1
  N  N59  1  0.42053405  0.40933175  0.60383977  1
  N  N60  1  0.22224614  0.87247400  0.34208658  1
  N  N61  1  0.09892433  0.79052048  0.07385391  1
  N  N62  1  0.89371175  0.87097732  0.83362803  1
  N  N63  1  0.78393250  0.75822962  0.59019811  1
  N  N64  1  0.56392140  0.86784031  0.36441652  1
  N  N65  1  0.42169744  0.75686366  0.07250287  1
  N  N66  1  0.24038939  0.83760881  0.82550375  1
  N  N67  1  0.11253339  0.76219637  0.59171275  1
  N  N68  1  0.91937940  0.82653650  0.33398716  1
  N  N69  1  0.80881406  0.75427036  0.07622491  1
  N  N70  1  0.56110172  0.86928069  0.83637491  1
  N  N71  1  0.42414061  0.80514378  0.58887438  1
