# generated using pymatgen
data_Gd2Al7N9
_symmetry_space_group_name_H-M   'P 1'
_cell_length_a   9.72440440
_cell_length_b   9.78244388
_cell_length_c   11.00173633
_cell_angle_alpha   89.78057663
_cell_angle_beta   88.85948634
_cell_angle_gamma   60.17343549
_symmetry_Int_Tables_number   1
_chemical_formula_structural   Gd2Al7N9
_chemical_formula_sum   'Gd8 Al28 N36'
_cell_volume   907.74089557
_cell_formula_units_Z   4
loop_
 _symmetry_equiv_pos_site_id
 _symmetry_equiv_pos_as_xyz
  1  'x, y, z'
loop_
 _atom_site_type_symbol
 _atom_site_label
 _atom_site_symmetry_multiplicity
 _atom_site_fract_x
 _atom_site_fract_y
 _atom_site_fract_z
 _atom_site_occupancy
  Al  Al0  1  0.12987120  0.08820272  0.43011797  1
  Al  Al1  1  0.78319423  0.08883427  0.82042229  1
  Al  Al2  1  0.90071105  0.19947475  0.59598606  1
  Al  Al3  1  0.45140093  0.10211300  0.42572540  1
  Al  Al4  1  0.23144028  0.20572376  0.64968174  1
  Al  Al5  1  0.87149002  0.20701916  0.06763334  1
  Al  Al6  1  0.44617794  0.08609834  0.88078206  1
  Al  Al7  1  0.55688149  0.19622353  0.64557995  1
  Al  Al8  1  0.12090294  0.43123595  0.43368503  1
  Al  Al9  1  0.76695296  0.41709344  0.83639048  1
  Al  Al10  1  0.89786490  0.53245230  0.66782549  1
  Al  Al11  1  0.43766365  0.44187869  0.33095479  1
  Al  Al12  1  0.52967839  0.54940377  0.07706092  1
  Al  Al13  1  0.12543934  0.42121107  0.88774032  1
  Al  Al14  1  0.21248196  0.54266196  0.65687794  1
  Al  Al15  1  0.87625218  0.53027885  0.03968638  1
  Al  Al16  1  0.43808555  0.42939101  0.82192396  1
  Al  Al17  1  0.13283225  0.75356701  0.42902986  1
  Al  Al18  1  0.20870142  0.87565604  0.14996881  1
  Al  Al19  1  0.77402664  0.76651526  0.87874646  1
  Al  Al20  1  0.89621598  0.86918109  0.59664824  1
  Al  Al21  1  0.43973676  0.78209916  0.40834166  1
  Al  Al22  1  0.12428627  0.75172456  0.89326855  1
  Al  Al23  1  0.23265700  0.86502094  0.65635712  1
  Al  Al24  1  0.78985593  0.74936676  0.42633943  1
  Al  Al25  1  0.88295529  0.88894851  0.04769858  1
  Al  Al26  1  0.44415183  0.75486151  0.89574738  1
  Al  Al27  1  0.55612310  0.87053353  0.65136418  1
  Gd  Gd28  1  0.21133007  0.20932461  0.17110149  1
  Gd  Gd29  1  0.54153521  0.23691838  0.06390824  1
  Gd  Gd30  1  0.12576106  0.08433676  0.89178583  1
  Gd  Gd31  1  0.79210905  0.08358240  0.33627847  1
  Gd  Gd32  1  0.13331309  0.58455370  0.18064338  1
  Gd  Gd33  1  0.79619714  0.42978230  0.31306078  1
  Gd  Gd34  1  0.56630913  0.52297899  0.57920471  1
  Gd  Gd35  1  0.56893588  0.86208549  0.15561989  1
  N  N36  1  0.22980224  0.20646780  0.38744178  1
  N  N37  1  0.08802571  0.09098268  0.10343443  1
  N  N38  1  0.85912179  0.21053858  0.89413693  1
  N  N39  1  0.78683087  0.08935273  0.64598611  1
  N  N40  1  0.53614378  0.22869300  0.37893610  1
  N  N41  1  0.43195867  0.08783006  0.05550322  1
  N  N42  1  0.24083067  0.21793803  0.82103543  1
  N  N43  1  0.12647836  0.08404743  0.61420253  1
  N  N44  1  0.90885928  0.20690696  0.42426069  1
  N  N45  1  0.78549104  0.08259424  0.12543127  1
  N  N46  1  0.55677377  0.19877600  0.84536819  1
  N  N47  1  0.45493620  0.08650112  0.60212691  1
  N  N48  1  0.22508272  0.54333272  0.38208145  1
  N  N49  1  0.09257463  0.42109640  0.05662872  1
  N  N50  1  0.88554051  0.53646370  0.85431423  1
  N  N51  1  0.80629683  0.40283599  0.66606963  1
  N  N52  1  0.54135682  0.56131900  0.37613857  1
  N  N53  1  0.41297499  0.47027091  0.15790590  1
  N  N54  1  0.21198717  0.54439222  0.83754575  1
  N  N55  1  0.10963638  0.42970357  0.60828342  1
  N  N56  1  0.92321691  0.55153104  0.35755406  1
  N  N57  1  0.76051810  0.43469601  0.10108110  1
  N  N58  1  0.54839448  0.52708309  0.88981983  1
  N  N59  1  0.43337512  0.41332996  0.65266749  1
  N  N60  1  0.22267215  0.87902856  0.34582548  1
  N  N61  1  0.10111826  0.78732443  0.06840466  1
  N  N62  1  0.89090687  0.87683655  0.86996338  1
  N  N63  1  0.78163417  0.74862448  0.61192793  1
  N  N64  1  0.56975408  0.87761727  0.36969130  1
  N  N65  1  0.41871499  0.77012430  0.07282642  1
  N  N66  1  0.24566869  0.83543004  0.82593386  1
  N  N67  1  0.12582286  0.75711929  0.60512725  1
  N  N68  1  0.90896430  0.85136947  0.42236575  1
  N  N69  1  0.80080015  0.74707543  0.05670249  1
  N  N70  1  0.55423036  0.86456084  0.83136571  1
  N  N71  1  0.43534000  0.78715711  0.58527695  1
