# generated using pymatgen
data_Gd2Al7N9
_symmetry_space_group_name_H-M   'P 1'
_cell_length_a   9.81071567
_cell_length_b   9.73965808
_cell_length_c   11.20853435
_cell_angle_alpha   88.94773128
_cell_angle_beta   88.63691603
_cell_angle_gamma   60.02694764
_symmetry_Int_Tables_number   1
_chemical_formula_structural   Gd2Al7N9
_chemical_formula_sum   'Gd8 Al28 N36'
_cell_volume   927.48448461
_cell_formula_units_Z   4
loop_
 _symmetry_equiv_pos_site_id
 _symmetry_equiv_pos_as_xyz
  1  'x, y, z'
loop_
 _atom_site_type_symbol
 _atom_site_label
 _atom_site_symmetry_multiplicity
 _atom_site_fract_x
 _atom_site_fract_y
 _atom_site_fract_z
 _atom_site_occupancy
  Al  Al0  1  0.13136310  0.08711320  0.42872144  1
  Al  Al1  1  0.76567613  0.09731741  0.79391356  1
  Al  Al2  1  0.89522254  0.20720070  0.57505384  1
  Al  Al3  1  0.45065043  0.10324091  0.34325706  1
  Al  Al4  1  0.23788918  0.20569481  0.60956091  1
  Al  Al5  1  0.86638486  0.20615744  0.02998292  1
  Al  Al6  1  0.45382904  0.09613717  0.78566471  1
  Al  Al7  1  0.55664327  0.20390607  0.55904514  1
  Al  Al8  1  0.12416574  0.43675749  0.40630739  1
  Al  Al9  1  0.77162069  0.42602021  0.81084356  1
  Al  Al10  1  0.89571411  0.53731133  0.57952689  1
  Al  Al11  1  0.44798735  0.44257701  0.31286998  1
  Al  Al12  1  0.54536818  0.53041437  0.04007443  1
  Al  Al13  1  0.10525774  0.43431214  0.79434466  1
  Al  Al14  1  0.22323963  0.54766147  0.63295090  1
  Al  Al15  1  0.88434611  0.52548099  0.03402106  1
  Al  Al16  1  0.44571381  0.41682865  0.79824057  1
  Al  Al17  1  0.13208961  0.76178690  0.40512508  1
  Al  Al18  1  0.20937411  0.86994472  0.05495328  1
  Al  Al19  1  0.77184080  0.76079423  0.86170259  1
  Al  Al20  1  0.89591919  0.87784807  0.57622064  1
  Al  Al21  1  0.43808973  0.78542999  0.39964325  1
  Al  Al22  1  0.11378817  0.75218939  0.85789659  1
  Al  Al23  1  0.23489519  0.86265679  0.63473817  1
  Al  Al24  1  0.78069472  0.76773656  0.41685847  1
  Al  Al25  1  0.88128886  0.88275471  0.02200241  1
  Al  Al26  1  0.44589099  0.75434047  0.86328584  1
  Al  Al27  1  0.56465693  0.86538347  0.63157436  1
  Gd  Gd28  1  0.17506256  0.18166634  0.18269138  1
  Gd  Gd29  1  0.53762340  0.20351584  0.05253209  1
  Gd  Gd30  1  0.10586076  0.10217961  0.83575465  1
  Gd  Gd31  1  0.79908824  0.08802187  0.30869765  1
  Gd  Gd32  1  0.18059247  0.55609374  0.14426136  1
  Gd  Gd33  1  0.80193174  0.44253778  0.29281208  1
  Gd  Gd34  1  0.57219159  0.52269231  0.56373940  1
  Gd  Gd35  1  0.56481407  0.83754884  0.14817986  1
  N  N36  1  0.23281769  0.20891591  0.39821714  1
  N  N37  1  0.09046927  0.08421367  0.04203080  1
  N  N38  1  0.84387771  0.21808390  0.86157613  1
  N  N39  1  0.77891579  0.10082261  0.61843933  1
  N  N40  1  0.54428947  0.22761881  0.38587900  1
  N  N41  1  0.42922957  0.09888863  0.17006692  1
  N  N42  1  0.23886545  0.22129934  0.79188845  1
  N  N43  1  0.12007430  0.08793303  0.60098587  1
  N  N44  1  0.91274604  0.21222119  0.40000029  1
  N  N45  1  0.79176369  0.07696620  0.10086152  1
  N  N46  1  0.55182177  0.19898936  0.84611241  1
  N  N47  1  0.46320149  0.08671925  0.61253779  1
  N  N48  1  0.22442123  0.54952673  0.34844234  1
  N  N49  1  0.04051550  0.43478602  0.14706307  1
  N  N50  1  0.89627793  0.52432560  0.85856345  1
  N  N51  1  0.81512290  0.41130559  0.64240365  1
  N  N52  1  0.54318809  0.56282682  0.36098368  1
  N  N53  1  0.45117324  0.43834198  0.13727256  1
  N  N54  1  0.21592148  0.54210811  0.80961038  1
  N  N55  1  0.11465105  0.43735909  0.60304159  1
  N  N56  1  0.90368810  0.54808275  0.40939183  1
  N  N57  1  0.76144797  0.42906310  0.07918415  1
  N  N58  1  0.55108947  0.52743316  0.85555053  1
  N  N59  1  0.43990068  0.40835803  0.62818772  1
  N  N60  1  0.22428460  0.88958797  0.35342751  1
  N  N61  1  0.09927544  0.77052205  0.02890757  1
  N  N62  1  0.88314650  0.87807576  0.84292759  1
  N  N63  1  0.78109103  0.76401895  0.59345927  1
  N  N64  1  0.57374297  0.87063795  0.35739235  1
  N  N65  1  0.42439565  0.75724734  0.03647959  1
  N  N66  1  0.24047918  0.83859503  0.80393674  1
  N  N67  1  0.12627387  0.76023581  0.58024269  1
  N  N68  1  0.90807003  0.85956505  0.40084943  1
  N  N69  1  0.78476700  0.75634472  0.03689314  1
  N  N70  1  0.55649803  0.86251490  0.80798671  1
  N  N71  1  0.43949324  0.78590373  0.57262514  1
