# generated using pymatgen
data_Gd2Al7N9
_symmetry_space_group_name_H-M   'P 1'
_cell_length_a   9.74191706
_cell_length_b   9.79419553
_cell_length_c   11.11951383
_cell_angle_alpha   90.39475332
_cell_angle_beta   89.98520118
_cell_angle_gamma   59.91825646
_symmetry_Int_Tables_number   1
_chemical_formula_structural   Gd2Al7N9
_chemical_formula_sum   'Gd8 Al28 N36'
_cell_volume   918.03028138
_cell_formula_units_Z   4
loop_
 _symmetry_equiv_pos_site_id
 _symmetry_equiv_pos_as_xyz
  1  'x, y, z'
loop_
 _atom_site_type_symbol
 _atom_site_label
 _atom_site_symmetry_multiplicity
 _atom_site_fract_x
 _atom_site_fract_y
 _atom_site_fract_z
 _atom_site_occupancy
  Al  Al0  1  0.12467639  0.08106834  0.41037316  1
  Al  Al1  1  0.77763430  0.09658483  0.79566329  1
  Al  Al2  1  0.89487058  0.20112576  0.57025352  1
  Al  Al3  1  0.44440329  0.09225233  0.39775777  1
  Al  Al4  1  0.21996455  0.21167495  0.62087492  1
  Al  Al5  1  0.87087885  0.21069680  0.04077721  1
  Al  Al6  1  0.45422912  0.09887851  0.78352150  1
  Al  Al7  1  0.55761523  0.20855862  0.56752397  1
  Al  Al8  1  0.12485022  0.42800898  0.41429704  1
  Al  Al9  1  0.78094123  0.42172107  0.80715896  1
  Al  Al10  1  0.89647591  0.53075489  0.58258898  1
  Al  Al11  1  0.43949345  0.43444177  0.31791736  1
  Al  Al12  1  0.54807706  0.53786518  0.04684294  1
  Al  Al13  1  0.11955992  0.42814418  0.86184307  1
  Al  Al14  1  0.21350550  0.54321667  0.64192180  1
  Al  Al15  1  0.88409608  0.53410713  0.01941884  1
  Al  Al16  1  0.44738192  0.42087759  0.80119604  1
  Al  Al17  1  0.12760211  0.74873506  0.40202250  1
  Al  Al18  1  0.21226434  0.87849125  0.11724493  1
  Al  Al19  1  0.77503827  0.76532593  0.85588313  1
  Al  Al20  1  0.89500750  0.87305095  0.57504642  1
  Al  Al21  1  0.43161536  0.77796207  0.39315716  1
  Al  Al22  1  0.12193852  0.75813254  0.86635821  1
  Al  Al23  1  0.22664656  0.86921710  0.63435483  1
  Al  Al24  1  0.77830421  0.75710049  0.41438525  1
  Al  Al25  1  0.88452827  0.89052688  0.02318893  1
  Al  Al26  1  0.44628068  0.75651668  0.87097386  1
  Al  Al27  1  0.55910416  0.86565623  0.62783132  1
  Gd  Gd28  1  0.18515361  0.22264682  0.16680956  1
  Gd  Gd29  1  0.53320404  0.21529585  0.04420447  1
  Gd  Gd30  1  0.13140303  0.08929848  0.87054382  1
  Gd  Gd31  1  0.78516762  0.07868126  0.30847534  1
  Gd  Gd32  1  0.17947693  0.56983883  0.13449037  1
  Gd  Gd33  1  0.78091217  0.43145685  0.30159527  1
  Gd  Gd34  1  0.55729617  0.53406303  0.57482621  1
  Gd  Gd35  1  0.57387968  0.84426711  0.14609442  1
  N  N36  1  0.22292346  0.20363880  0.38025020  1
  N  N37  1  0.09093176  0.09000374  0.07479294  1
  N  N38  1  0.86387036  0.21465776  0.86663167  1
  N  N39  1  0.78147344  0.09525740  0.62002220  1
  N  N40  1  0.53553800  0.22495762  0.39360719  1
  N  N41  1  0.43160244  0.09164591  0.12943085  1
  N  N42  1  0.23625546  0.22583151  0.79209490  1
  N  N43  1  0.11940779  0.08564302  0.58881802  1
  N  N44  1  0.90335108  0.19853611  0.39652957  1
  N  N45  1  0.78705461  0.08698969  0.10003550  1
  N  N46  1  0.55862802  0.20058643  0.83803714  1
  N  N47  1  0.45500338  0.08845678  0.59747636  1
  N  N48  1  0.21636053  0.53860817  0.34323837  1
  N  N49  1  0.10576841  0.41949116  0.03310340  1
  N  N50  1  0.88546260  0.53720447  0.84586500  1
  N  N51  1  0.81170718  0.40631197  0.63597152  1
  N  N52  1  0.53176425  0.55514543  0.37235078  1
  N  N53  1  0.45081807  0.44793248  0.14093421  1
  N  N54  1  0.21670384  0.54552870  0.81779784  1
  N  N55  1  0.11825644  0.43091356  0.58440455  1
  N  N56  1  0.89963846  0.53929689  0.39790896  1
  N  N57  1  0.77320846  0.43727687  0.08708758  1
  N  N58  1  0.55785427  0.52756250  0.86009744  1
  N  N59  1  0.43449886  0.41078435  0.63287913  1
  N  N60  1  0.21920153  0.87440522  0.32526997  1
  N  N61  1  0.10429167  0.79058461  0.03871973  1
  N  N62  1  0.88871852  0.88048365  0.84469392  1
  N  N63  1  0.77885881  0.75839231  0.59143721  1
  N  N64  1  0.56469910  0.86943101  0.35895932  1
  N  N65  1  0.42259624  0.76244745  0.04608682  1
  N  N66  1  0.24427070  0.83975498  0.80125208  1
  N  N67  1  0.12674236  0.75416493  0.57839577  1
  N  N68  1  0.90329823  0.85004682  0.39845387  1
  N  N69  1  0.79952396  0.75521940  0.03703860  1
  N  N70  1  0.55275715  0.86960126  0.80585705  1
  N  N71  1  0.42727824  0.79576173  0.56528000  1
