# generated using pymatgen
data_Gd2Al7N9
_symmetry_space_group_name_H-M   'P 1'
_cell_length_a   9.86248023
_cell_length_b   9.86222813
_cell_length_c   10.63940803
_cell_angle_alpha   90.16444410
_cell_angle_beta   89.20499108
_cell_angle_gamma   60.29691033
_symmetry_Int_Tables_number   1
_chemical_formula_structural   Gd2Al7N9
_chemical_formula_sum   'Gd8 Al28 N36'
_cell_volume   898.73515097
_cell_formula_units_Z   4
loop_
 _symmetry_equiv_pos_site_id
 _symmetry_equiv_pos_as_xyz
  1  'x, y, z'
loop_
 _atom_site_type_symbol
 _atom_site_label
 _atom_site_symmetry_multiplicity
 _atom_site_fract_x
 _atom_site_fract_y
 _atom_site_fract_z
 _atom_site_occupancy
  Al  Al0  1  0.12949806  0.08068739  0.42931479  1
  Al  Al1  1  0.77895744  0.09588211  0.82711828  1
  Al  Al2  1  0.90019945  0.20465297  0.59825617  1
  Al  Al3  1  0.44652942  0.09667671  0.41762995  1
  Al  Al4  1  0.23376276  0.20787975  0.64215891  1
  Al  Al5  1  0.88045036  0.20396677  0.07304697  1
  Al  Al6  1  0.44526964  0.09059676  0.88814380  1
  Al  Al7  1  0.54983264  0.19954440  0.66177311  1
  Al  Al8  1  0.11750336  0.42792217  0.43182632  1
  Al  Al9  1  0.77110525  0.42323836  0.84092969  1
  Al  Al10  1  0.89676940  0.53855520  0.65976939  1
  Al  Al11  1  0.43551328  0.43995010  0.33177838  1
  Al  Al12  1  0.54010322  0.54594829  0.06577456  1
  Al  Al13  1  0.12261588  0.42534223  0.88255410  1
  Al  Al14  1  0.21116789  0.54575862  0.65547148  1
  Al  Al15  1  0.88037580  0.53868361  0.04642150  1
  Al  Al16  1  0.43301788  0.43206591  0.83399312  1
  Al  Al17  1  0.12221795  0.75109616  0.41005762  1
  Al  Al18  1  0.21123279  0.87835570  0.14770352  1
  Al  Al19  1  0.77798724  0.77572384  0.88624330  1
  Al  Al20  1  0.89764665  0.86440242  0.65254430  1
  Al  Al21  1  0.43887882  0.77421007  0.40931136  1
  Al  Al22  1  0.10953550  0.76495525  0.89771901  1
  Al  Al23  1  0.22634565  0.86753117  0.65173498  1
  Al  Al24  1  0.79678872  0.74392495  0.41193855  1
  Al  Al25  1  0.89657154  0.87576283  0.14778167  1
  Al  Al26  1  0.43990235  0.76162141  0.88981228  1
  Al  Al27  1  0.55800241  0.87609890  0.64713827  1
  Gd  Gd28  1  0.20908945  0.21037779  0.17229202  1
  Gd  Gd29  1  0.55518300  0.21419631  0.10777837  1
  Gd  Gd30  1  0.12177820  0.09251712  0.87816740  1
  Gd  Gd31  1  0.77632505  0.08175883  0.37861050  1
  Gd  Gd32  1  0.16747807  0.56755329  0.16094204  1
  Gd  Gd33  1  0.78613163  0.42292894  0.31900563  1
  Gd  Gd34  1  0.55809141  0.53386964  0.60284217  1
  Gd  Gd35  1  0.56681299  0.85468856  0.15062795  1
  N  N36  1  0.22641109  0.20104618  0.39659000  1
  N  N37  1  0.09690847  0.08911067  0.09552546  1
  N  N38  1  0.85754185  0.21476157  0.89459591  1
  N  N39  1  0.77826531  0.09719016  0.63778202  1
  N  N40  1  0.51875658  0.21903052  0.33560681  1
  N  N41  1  0.43039767  0.08406765  0.06325919  1
  N  N42  1  0.24641741  0.22098401  0.81952263  1
  N  N43  1  0.12262350  0.08650645  0.61997189  1
  N  N44  1  0.91404911  0.19628315  0.42196007  1
  N  N45  1  0.80268345  0.09199936  0.15785243  1
  N  N46  1  0.55800499  0.20013957  0.85326166  1
  N  N47  1  0.45815727  0.09007156  0.59795922  1
  N  N48  1  0.22442596  0.53452993  0.37574511  1
  N  N49  1  0.09180369  0.41934205  0.05546108  1
  N  N50  1  0.88412996  0.54619592  0.85359251  1
  N  N51  1  0.80881463  0.40773382  0.66287384  1
  N  N52  1  0.53534289  0.55153468  0.39068901  1
  N  N53  1  0.42900639  0.46736735  0.14758501  1
  N  N54  1  0.20883676  0.55255336  0.84430510  1
  N  N55  1  0.10965887  0.43318939  0.61114573  1
  N  N56  1  0.91464300  0.53493902  0.37352343  1
  N  N57  1  0.76464495  0.44095151  0.09705891  1
  N  N58  1  0.55023248  0.53465222  0.87600843  1
  N  N59  1  0.42784625  0.41389509  0.65511601  1
  N  N60  1  0.22601841  0.87297844  0.34347007  1
  N  N61  1  0.09459644  0.79607753  0.07402764  1
  N  N62  1  0.89503490  0.87238169  0.83209924  1
  N  N63  1  0.78469183  0.75872994  0.60065339  1
  N  N64  1  0.56841303  0.86995354  0.36807762  1
  N  N65  1  0.41853309  0.76498097  0.07001389  1
  N  N66  1  0.23888376  0.83842365  0.82582087  1
  N  N67  1  0.11209555  0.76386801  0.59230030  1
  N  N68  1  0.92200682  0.82370013  0.32995686  1
  N  N69  1  0.80890813  0.75704592  0.06530126  1
  N  N70  1  0.55789160  0.86872015  0.83335061  1
  N  N71  1  0.43003057  0.79594889  0.58893609  1
