# generated using pymatgen
data_Gd2Al7N9
_symmetry_space_group_name_H-M   'P 1'
_cell_length_a   9.90368727
_cell_length_b   9.87306905
_cell_length_c   10.58477613
_cell_angle_alpha   90.25701340
_cell_angle_beta   89.27948361
_cell_angle_gamma   60.24890462
_symmetry_Int_Tables_number   1
_chemical_formula_structural   Gd2Al7N9
_chemical_formula_sum   'Gd8 Al28 N36'
_cell_volume   898.41650349
_cell_formula_units_Z   4
loop_
 _symmetry_equiv_pos_site_id
 _symmetry_equiv_pos_as_xyz
  1  'x, y, z'
loop_
 _atom_site_type_symbol
 _atom_site_label
 _atom_site_symmetry_multiplicity
 _atom_site_fract_x
 _atom_site_fract_y
 _atom_site_fract_z
 _atom_site_occupancy
  Al  Al0  1  0.13047561  0.07989098  0.42877840  1
  Al  Al1  1  0.77742066  0.09754129  0.82669922  1
  Al  Al2  1  0.90095729  0.20469679  0.59741599  1
  Al  Al3  1  0.44549465  0.09399659  0.41921460  1
  Al  Al4  1  0.23389819  0.20920548  0.64198402  1
  Al  Al5  1  0.87921319  0.20296653  0.07312409  1
  Al  Al6  1  0.44491689  0.09305720  0.88841300  1
  Al  Al7  1  0.54684984  0.20400951  0.66346406  1
  Al  Al8  1  0.11295980  0.42914061  0.43013714  1
  Al  Al9  1  0.77692297  0.42370094  0.83825321  1
  Al  Al10  1  0.89804037  0.53938621  0.65663868  1
  Al  Al11  1  0.43029404  0.42851995  0.40098447  1
  Al  Al12  1  0.54926093  0.54346829  0.05275282  1
  Al  Al13  1  0.12111914  0.42758028  0.88199463  1
  Al  Al14  1  0.21357697  0.54439926  0.65822806  1
  Al  Al15  1  0.88114441  0.54145770  0.04973579  1
  Al  Al16  1  0.43253933  0.43329197  0.87496855  1
  Al  Al17  1  0.11972639  0.75134778  0.40845397  1
  Al  Al18  1  0.21049258  0.87907663  0.14692946  1
  Al  Al19  1  0.77785751  0.77694966  0.88614390  1
  Al  Al20  1  0.89810472  0.86491215  0.65217734  1
  Al  Al21  1  0.43743669  0.77167139  0.41127672  1
  Al  Al22  1  0.10914045  0.76572267  0.89676403  1
  Al  Al23  1  0.22525159  0.86834449  0.65091690  1
  Al  Al24  1  0.79491899  0.74483838  0.41315190  1
  Al  Al25  1  0.89914598  0.87072886  0.15054601  1
  Al  Al26  1  0.43953691  0.76603161  0.88752397  1
  Al  Al27  1  0.55735744  0.87831867  0.64777032  1
  Gd  Gd28  1  0.20520024  0.21170447  0.17125240  1
  Gd  Gd29  1  0.55441282  0.20848831  0.12108309  1
  Gd  Gd30  1  0.11954039  0.09468324  0.87548634  1
  Gd  Gd31  1  0.77865101  0.08113552  0.38299204  1
  Gd  Gd32  1  0.19633564  0.55505045  0.14979559  1
  Gd  Gd33  1  0.77978288  0.42503309  0.32318966  1
  Gd  Gd34  1  0.55672224  0.54009015  0.62047634  1
  Gd  Gd35  1  0.56525815  0.85331932  0.15013355  1
  N  N36  1  0.22642472  0.20087838  0.39550102  1
  N  N37  1  0.09598757  0.08873977  0.09372864  1
  N  N38  1  0.85608819  0.21691804  0.89392735  1
  N  N39  1  0.77883609  0.09792175  0.63637738  1
  N  N40  1  0.51725453  0.22218820  0.34266098  1
  N  N41  1  0.42881352  0.08402328  0.06454636  1
  N  N42  1  0.24535501  0.22237470  0.82059053  1
  N  N43  1  0.12259151  0.08718716  0.61977129  1
  N  N44  1  0.91630830  0.19520717  0.41987910  1
  N  N45  1  0.80469912  0.08933824  0.15889290  1
  N  N46  1  0.55727018  0.20060854  0.84881534  1
  N  N47  1  0.45779264  0.09089890  0.59891054  1
  N  N48  1  0.22103495  0.53458664  0.36969665  1
  N  N49  1  0.09159018  0.42446561  0.05737692  1
  N  N50  1  0.88624718  0.54670596  0.85356677  1
  N  N51  1  0.81302862  0.40702508  0.65993186  1
  N  N52  1  0.52948079  0.54902031  0.39661306  1
  N  N53  1  0.43145000  0.44938151  0.05927501  1
  N  N54  1  0.21008352  0.55230253  0.84104649  1
  N  N55  1  0.11027145  0.43403841  0.61016711  1
  N  N56  1  0.90935847  0.53555634  0.37699277  1
  N  N57  1  0.76531085  0.44184799  0.09874075  1
  N  N58  1  0.55690781  0.54260121  0.86220960  1
  N  N59  1  0.42639750  0.41353767  0.62827020  1
  N  N60  1  0.22576189  0.87195971  0.34282991  1
  N  N61  1  0.09550121  0.79333803  0.07533556  1
  N  N62  1  0.89510721  0.87350316  0.83253707  1
  N  N63  1  0.78365070  0.76044801  0.60176074  1
  N  N64  1  0.56696119  0.86876201  0.36816723  1
  N  N65  1  0.41909912  0.76093047  0.07039307  1
  N  N66  1  0.23807144  0.83985851  0.82625723  1
  N  N67  1  0.11253514  0.76340058  0.59166658  1
  N  N68  1  0.91864607  0.82553560  0.33387052  1
  N  N69  1  0.80581172  0.75968075  0.06592889  1
  N  N70  1  0.55752131  0.87142061  0.83433946  1
  N  N71  1  0.42817124  0.79986130  0.58978560  1
