# generated using pymatgen
data_Gd2Al7N9
_symmetry_space_group_name_H-M   'P 1'
_cell_length_a   9.73882969
_cell_length_b   9.77563385
_cell_length_c   11.25582483
_cell_angle_alpha   90.05775472
_cell_angle_beta   89.64634289
_cell_angle_gamma   59.87748548
_symmetry_Int_Tables_number   1
_chemical_formula_structural   Gd2Al7N9
_chemical_formula_sum   'Gd8 Al28 N36'
_cell_volume   926.84905410
_cell_formula_units_Z   4
loop_
 _symmetry_equiv_pos_site_id
 _symmetry_equiv_pos_as_xyz
  1  'x, y, z'
loop_
 _atom_site_type_symbol
 _atom_site_label
 _atom_site_symmetry_multiplicity
 _atom_site_fract_x
 _atom_site_fract_y
 _atom_site_fract_z
 _atom_site_occupancy
  Al  Al0  1  0.12816639  0.08525092  0.41869180  1
  Al  Al1  1  0.76806103  0.09937975  0.79546804  1
  Al  Al2  1  0.89429598  0.20217593  0.57389730  1
  Al  Al3  1  0.44390959  0.09933401  0.33963547  1
  Al  Al4  1  0.22789721  0.21163746  0.62539245  1
  Al  Al5  1  0.86982059  0.21003475  0.03364619  1
  Al  Al6  1  0.45356014  0.09893947  0.78771033  1
  Al  Al7  1  0.55189220  0.20237409  0.56163039  1
  Al  Al8  1  0.12799689  0.42735367  0.41376695  1
  Al  Al9  1  0.77560844  0.42677609  0.80690616  1
  Al  Al10  1  0.89798862  0.53053948  0.57981043  1
  Al  Al11  1  0.44214417  0.43659079  0.31811011  1
  Al  Al12  1  0.55082207  0.53374849  0.04276449  1
  Al  Al13  1  0.11968526  0.42852916  0.86674655  1
  Al  Al14  1  0.21445940  0.53970125  0.64254980  1
  Al  Al15  1  0.88443264  0.53451136  0.02163073  1
  Al  Al16  1  0.44624300  0.41787709  0.80168159  1
  Al  Al17  1  0.13034020  0.75137197  0.40863836  1
  Al  Al18  1  0.21414627  0.87672951  0.07701608  1
  Al  Al19  1  0.77293138  0.76474604  0.85848589  1
  Al  Al20  1  0.89410426  0.87359176  0.57662472  1
  Al  Al21  1  0.43326126  0.78115272  0.40029415  1
  Al  Al22  1  0.11801211  0.75597515  0.86027972  1
  Al  Al23  1  0.23065473  0.86442444  0.63331051  1
  Al  Al24  1  0.77728519  0.76075981  0.41615328  1
  Al  Al25  1  0.88299622  0.89072526  0.02125037  1
  Al  Al26  1  0.44663339  0.75582036  0.86629537  1
  Al  Al27  1  0.56048823  0.86659804  0.63215221  1
  Gd  Gd28  1  0.17402964  0.21910096  0.16218571  1
  Gd  Gd29  1  0.53307842  0.21162470  0.05281088  1
  Gd  Gd30  1  0.11404126  0.09739887  0.84483878  1
  Gd  Gd31  1  0.79579801  0.07830530  0.31023915  1
  Gd  Gd32  1  0.17997983  0.57194395  0.14052297  1
  Gd  Gd33  1  0.78270610  0.43450221  0.30377059  1
  Gd  Gd34  1  0.56081704  0.52643484  0.57246928  1
  Gd  Gd35  1  0.57320733  0.83782438  0.14783654  1
  N  N36  1  0.22131097  0.20729275  0.37292485  1
  N  N37  1  0.09503700  0.08806486  0.05111656  1
  N  N38  1  0.84943653  0.22090047  0.86453336  1
  N  N39  1  0.77820408  0.09661750  0.62115243  1
  N  N40  1  0.53881339  0.22234004  0.38788102  1
  N  N41  1  0.43442270  0.09598152  0.16519594  1
  N  N42  1  0.23468812  0.22902206  0.79732190  1
  N  N43  1  0.12079342  0.08810256  0.59728040  1
  N  N44  1  0.90483400  0.20362838  0.40250598  1
  N  N45  1  0.79044679  0.08588832  0.10073446  1
  N  N46  1  0.55365686  0.20116156  0.84925068  1
  N  N47  1  0.45686761  0.08781230  0.61560208  1
  N  N48  1  0.21936489  0.54168911  0.34621889  1
  N  N49  1  0.10716071  0.42229329  0.03854346  1
  N  N50  1  0.88536718  0.53589207  0.85160576  1
  N  N51  1  0.81266005  0.40829719  0.63880041  1
  N  N52  1  0.53406376  0.55659966  0.37227222  1
  N  N53  1  0.45226464  0.44728965  0.13997465  1
  N  N54  1  0.21511427  0.54384708  0.81549955  1
  N  N55  1  0.12053818  0.42816880  0.58242866  1
  N  N56  1  0.90094028  0.54179667  0.39912976  1
  N  N57  1  0.77593715  0.43452758  0.08810968  1
  N  N58  1  0.55489660  0.52760474  0.85991018  1
  N  N59  1  0.43625778  0.40497762  0.63407906  1
  N  N60  1  0.21872170  0.87892035  0.35118955  1
  N  N61  1  0.10323030  0.78312000  0.03086107  1
  N  N62  1  0.88422368  0.88211454  0.84533473  1
  N  N63  1  0.77938885  0.75831438  0.59171394  1
  N  N64  1  0.56752033  0.86682553  0.35565869  1
  N  N65  1  0.42805125  0.75938341  0.03957684  1
  N  N66  1  0.24314808  0.83829468  0.80084975  1
  N  N67  1  0.12578734  0.75267979  0.58321787  1
  N  N68  1  0.90464856  0.85219779  0.40214710  1
  N  N69  1  0.79531558  0.75771501  0.03916285  1
  N  N70  1  0.55403732  0.86707595  0.80977927  1
  N  N71  1  0.43515006  0.78857439  0.57144905  1
