# generated using pymatgen
data_Gd2Al7N9
_symmetry_space_group_name_H-M   'P 1'
_cell_length_a   9.76665337
_cell_length_b   9.82290699
_cell_length_c   10.97573384
_cell_angle_alpha   89.45798260
_cell_angle_beta   89.15302858
_cell_angle_gamma   60.05409966
_symmetry_Int_Tables_number   1
_chemical_formula_structural   Gd2Al7N9
_chemical_formula_sum   'Gd8 Al28 N36'
_cell_volume   912.30025093
_cell_formula_units_Z   4
loop_
 _symmetry_equiv_pos_site_id
 _symmetry_equiv_pos_as_xyz
  1  'x, y, z'
loop_
 _atom_site_type_symbol
 _atom_site_label
 _atom_site_symmetry_multiplicity
 _atom_site_fract_x
 _atom_site_fract_y
 _atom_site_fract_z
 _atom_site_occupancy
  Al  Al0  1  0.12895370  0.08740646  0.42737560  1
  Al  Al1  1  0.77050549  0.09652905  0.81504098  1
  Al  Al2  1  0.89766199  0.20274014  0.59143901  1
  Al  Al3  1  0.44377202  0.09696869  0.42350079  1
  Al  Al4  1  0.23447499  0.20693505  0.65074824  1
  Al  Al5  1  0.87329620  0.20609687  0.06314269  1
  Al  Al6  1  0.44622293  0.08730712  0.88342324  1
  Al  Al7  1  0.55559782  0.20995007  0.58711673  1
  Al  Al8  1  0.11985931  0.43016303  0.43308427  1
  Al  Al9  1  0.77246198  0.41966561  0.83078793  1
  Al  Al10  1  0.89839266  0.53368200  0.63777726  1
  Al  Al11  1  0.43749807  0.44266605  0.33992232  1
  Al  Al12  1  0.54057234  0.54164895  0.07100632  1
  Al  Al13  1  0.12288116  0.42195915  0.88312662  1
  Al  Al14  1  0.21546749  0.54210249  0.65781031  1
  Al  Al15  1  0.88066640  0.52955131  0.03727084  1
  Al  Al16  1  0.44453040  0.41764672  0.82086012  1
  Al  Al17  1  0.12836211  0.75242933  0.42442950  1
  Al  Al18  1  0.21103766  0.87424487  0.14116569  1
  Al  Al19  1  0.77692678  0.76349748  0.87199393  1
  Al  Al20  1  0.89489207  0.87370207  0.59796790  1
  Al  Al21  1  0.43499145  0.78336428  0.40862594  1
  Al  Al22  1  0.12417392  0.75199339  0.88590158  1
  Al  Al23  1  0.22986512  0.86915578  0.65209546  1
  Al  Al24  1  0.77971829  0.75729212  0.43303083  1
  Al  Al25  1  0.88640663  0.88576021  0.04340241  1
  Al  Al26  1  0.44406465  0.75463226  0.89258162  1
  Al  Al27  1  0.55191558  0.88061209  0.65412885  1
  Gd  Gd28  1  0.20881361  0.20382879  0.16524776  1
  Gd  Gd29  1  0.54697354  0.22603346  0.06903653  1
  Gd  Gd30  1  0.11932304  0.08560227  0.87985776  1
  Gd  Gd31  1  0.79134712  0.08143021  0.33559703  1
  Gd  Gd32  1  0.16297269  0.57186291  0.16435321  1
  Gd  Gd33  1  0.78654190  0.43347046  0.32072965  1
  Gd  Gd34  1  0.55793641  0.53956754  0.59435891  1
  Gd  Gd35  1  0.57291613  0.85257123  0.15179042  1
  N  N36  1  0.22591990  0.20805955  0.38140725  1
  N  N37  1  0.09124446  0.08591569  0.09104185  1
  N  N38  1  0.85413216  0.21386885  0.88883947  1
  N  N39  1  0.78015622  0.09671464  0.63865140  1
  N  N40  1  0.53666278  0.22972650  0.40631317  1
  N  N41  1  0.43442787  0.08126238  0.06091083  1
  N  N42  1  0.24139909  0.21674601  0.82221911  1
  N  N43  1  0.12317038  0.08885458  0.61249152  1
  N  N44  1  0.90969235  0.20160563  0.41811539  1
  N  N45  1  0.79379005  0.07685004  0.12576600  1
  N  N46  1  0.55541391  0.20057452  0.86353896  1
  N  N47  1  0.45213992  0.09113004  0.59878751  1
  N  N48  1  0.21825176  0.54320704  0.37284682  1
  N  N49  1  0.09721828  0.41955064  0.05515848  1
  N  N50  1  0.88704989  0.53435191  0.85520663  1
  N  N51  1  0.80877362  0.40548661  0.65864782  1
  N  N52  1  0.53427593  0.56108490  0.38952368  1
  N  N53  1  0.43327500  0.45955645  0.16293945  1
  N  N54  1  0.21554182  0.54193415  0.83678142  1
  N  N55  1  0.11764124  0.42770947  0.60758172  1
  N  N56  1  0.90328243  0.54682796  0.40105998  1
  N  N57  1  0.76778815  0.43309809  0.10332910  1
  N  N58  1  0.55198577  0.52709062  0.88230446  1
  N  N59  1  0.43569391  0.41208705  0.65035769  1
  N  N60  1  0.22031534  0.87864293  0.34292433  1
  N  N61  1  0.10505939  0.78548739  0.06079898  1
  N  N62  1  0.88970563  0.87921160  0.86329753  1
  N  N63  1  0.77655608  0.75947328  0.61627541  1
  N  N64  1  0.56522185  0.87876288  0.36631923  1
  N  N65  1  0.42221465  0.76229205  0.06976914  1
  N  N66  1  0.24628315  0.83463008  0.82107993  1
  N  N67  1  0.12678510  0.75688587  0.60125057  1
  N  N68  1  0.90507468  0.85134839  0.42151364  1
  N  N69  1  0.80441196  0.74613834  0.05397363  1
  N  N70  1  0.55267860  0.86697442  0.83238362  1
  N  N71  1  0.43007577  0.80106420  0.58375818  1
