# generated using pymatgen
data_Gd2Al7N9
_symmetry_space_group_name_H-M   'P 1'
_cell_length_a   9.75873716
_cell_length_b   9.81401487
_cell_length_c   11.02397170
_cell_angle_alpha   89.54758709
_cell_angle_beta   89.33378616
_cell_angle_gamma   60.06167552
_symmetry_Int_Tables_number   1
_chemical_formula_structural   Gd2Al7N9
_chemical_formula_sum   'Gd8 Al28 N36'
_cell_volume   914.84601212
_cell_formula_units_Z   4
loop_
 _symmetry_equiv_pos_site_id
 _symmetry_equiv_pos_as_xyz
  1  'x, y, z'
loop_
 _atom_site_type_symbol
 _atom_site_label
 _atom_site_symmetry_multiplicity
 _atom_site_fract_x
 _atom_site_fract_y
 _atom_site_fract_z
 _atom_site_occupancy
  Al  Al0  1  0.12769522  0.08748611  0.42128661  1
  Al  Al1  1  0.77084675  0.09610717  0.80923535  1
  Al  Al2  1  0.89671785  0.20339969  0.58582187  1
  Al  Al3  1  0.44249675  0.09698669  0.41882401  1
  Al  Al4  1  0.23334661  0.20721394  0.64620325  1
  Al  Al5  1  0.87433206  0.20728602  0.05786593  1
  Al  Al6  1  0.44626368  0.08690789  0.87704975  1
  Al  Al7  1  0.55450537  0.21005543  0.58264085  1
  Al  Al8  1  0.12572098  0.42686604  0.42643689  1
  Al  Al9  1  0.77587527  0.42134319  0.82339664  1
  Al  Al10  1  0.89681788  0.53202778  0.59785496  1
  Al  Al11  1  0.43784675  0.44168933  0.33419292  1
  Al  Al12  1  0.54382609  0.54084289  0.06542182  1
  Al  Al13  1  0.11896797  0.42277901  0.87860736  1
  Al  Al14  1  0.21348376  0.54171234  0.65363194  1
  Al  Al15  1  0.88182783  0.52917704  0.03560382  1
  Al  Al16  1  0.44420602  0.41760428  0.81516826  1
  Al  Al17  1  0.12707112  0.75243875  0.41763342  1
  Al  Al18  1  0.21164540  0.87512126  0.13397549  1
  Al  Al19  1  0.77824674  0.75959799  0.86775792  1
  Al  Al20  1  0.89383608  0.87395400  0.59146210  1
  Al  Al21  1  0.43380503  0.78310534  0.40345092  1
  Al  Al22  1  0.12319551  0.75226872  0.87931322  1
  Al  Al23  1  0.22907082  0.86914951  0.64558171  1
  Al  Al24  1  0.77478991  0.76323260  0.42774406  1
  Al  Al25  1  0.88707408  0.88600164  0.03812733  1
  Al  Al26  1  0.44440371  0.75348136  0.88649799  1
  Al  Al27  1  0.55209585  0.88024441  0.64916215  1
  Gd  Gd28  1  0.21243735  0.20244606  0.15901120  1
  Gd  Gd29  1  0.54970990  0.22599887  0.06018235  1
  Gd  Gd30  1  0.11924499  0.08447175  0.87469311  1
  Gd  Gd31  1  0.78910925  0.08288787  0.32895248  1
  Gd  Gd32  1  0.17001146  0.57127361  0.15447955  1
  Gd  Gd33  1  0.78529841  0.43522758  0.31788261  1
  Gd  Gd34  1  0.55617736  0.54012573  0.59056412  1
  Gd  Gd35  1  0.57264284  0.85389723  0.14552851  1
  N  N36  1  0.22502780  0.20766990  0.37421628  1
  N  N37  1  0.09269473  0.08663812  0.08469633  1
  N  N38  1  0.85376868  0.21491240  0.88333888  1
  N  N39  1  0.78015408  0.09683479  0.63322153  1
  N  N40  1  0.53505792  0.22995023  0.40206838  1
  N  N41  1  0.43681078  0.08147071  0.05375806  1
  N  N42  1  0.23998820  0.21681547  0.81715086  1
  N  N43  1  0.12240454  0.08886098  0.60547215  1
  N  N44  1  0.90767642  0.20282199  0.41234085  1
  N  N45  1  0.79528873  0.07741923  0.12018743  1
  N  N46  1  0.55542207  0.19993721  0.85591601  1
  N  N47  1  0.45086827  0.09105854  0.59332097  1
  N  N48  1  0.21627906  0.54376651  0.36293204  1
  N  N49  1  0.09987762  0.41924097  0.05246169  1
  N  N50  1  0.88531454  0.53238299  0.86103894  1
  N  N51  1  0.80973057  0.40768937  0.65120378  1
  N  N52  1  0.53382632  0.56004956  0.38576565  1
  N  N53  1  0.43881649  0.45702589  0.15792019  1
  N  N54  1  0.21424951  0.54132470  0.83176202  1
  N  N55  1  0.12063076  0.42525383  0.59969682  1
  N  N56  1  0.89967181  0.54563925  0.41439482  1
  N  N57  1  0.76946181  0.43267726  0.10262038  1
  N  N58  1  0.55347209  0.52578991  0.87693334  1
  N  N59  1  0.43430820  0.41254605  0.64550781  1
  N  N60  1  0.21938274  0.87842277  0.33735670  1
  N  N61  1  0.10607339  0.78723021  0.05283610  1
  N  N62  1  0.88862986  0.87853320  0.85859498  1
  N  N63  1  0.77443083  0.76224233  0.60869681  1
  N  N64  1  0.56343543  0.87904296  0.35965591  1
  N  N65  1  0.42311441  0.76184048  0.06341463  1
  N  N66  1  0.24643266  0.83350401  0.81385728  1
  N  N67  1  0.12607458  0.75598303  0.59417478  1
  N  N68  1  0.90371565  0.85225526  0.41427496  1
  N  N69  1  0.80607005  0.74658799  0.05289075  1
  N  N70  1  0.55307770  0.86582587  0.82687057  1
  N  N71  1  0.42929985  0.80162119  0.57754728  1
