# generated using pymatgen
data_Gd2Al7N9
_symmetry_space_group_name_H-M   'P 1'
_cell_length_a   9.87239895
_cell_length_b   9.88450165
_cell_length_c   10.50722591
_cell_angle_alpha   90.52476868
_cell_angle_beta   90.81730687
_cell_angle_gamma   59.94070523
_symmetry_Int_Tables_number   1
_chemical_formula_structural   Gd2Al7N9
_chemical_formula_sum   'Gd8 Al28 N36'
_cell_volume   887.34195345
_cell_formula_units_Z   4
loop_
 _symmetry_equiv_pos_site_id
 _symmetry_equiv_pos_as_xyz
  1  'x, y, z'
loop_
 _atom_site_type_symbol
 _atom_site_label
 _atom_site_symmetry_multiplicity
 _atom_site_fract_x
 _atom_site_fract_y
 _atom_site_fract_z
 _atom_site_occupancy
  Al  Al0  1  0.11363163  0.08621899  0.41418811  1
  Al  Al1  1  0.78328054  0.09157815  0.89310204  1
  Al  Al2  1  0.88747031  0.20461781  0.65496728  1
  Al  Al3  1  0.44126337  0.09280420  0.42456038  1
  Al  Al4  1  0.22259093  0.21194375  0.63556557  1
  Al  Al5  1  0.90000047  0.19488522  0.14846050  1
  Al  Al6  1  0.44625009  0.09692666  0.88242580  1
  Al  Al7  1  0.55383397  0.20031141  0.66310491  1
  Al  Al8  1  0.10836118  0.43536068  0.41774147  1
  Al  Al9  1  0.78446551  0.43109496  0.85182397  1
  Al  Al10  1  0.89212360  0.54336385  0.64930871  1
  Al  Al11  1  0.42325302  0.42684712  0.42322804  1
  Al  Al12  1  0.56614485  0.53554354  0.06291566  1
  Al  Al13  1  0.11230256  0.43097450  0.88604137  1
  Al  Al14  1  0.21068242  0.54066298  0.65285448  1
  Al  Al15  1  0.89465325  0.54008639  0.13866477  1
  Al  Al16  1  0.43938792  0.42582028  0.88534800  1
  Al  Al17  1  0.11547837  0.75506851  0.40576145  1
  Al  Al18  1  0.21962053  0.87023253  0.15166039  1
  Al  Al19  1  0.78799112  0.75908914  0.89249534  1
  Al  Al20  1  0.89154241  0.87061896  0.65642541  1
  Al  Al21  1  0.43015560  0.77369666  0.41201188  1
  Al  Al22  1  0.11544529  0.75981634  0.89319920  1
  Al  Al23  1  0.21545294  0.87715425  0.64697873  1
  Al  Al24  1  0.79050292  0.75615226  0.40104410  1
  Al  Al25  1  0.90349612  0.86728805  0.13750474  1
  Al  Al26  1  0.44264069  0.76486969  0.89081907  1
  Al  Al27  1  0.55617255  0.87818789  0.64880776  1
  Gd  Gd28  1  0.21819416  0.21014469  0.17322321  1
  Gd  Gd29  1  0.56048257  0.20676512  0.13604311  1
  Gd  Gd30  1  0.12184040  0.09263690  0.89135307  1
  Gd  Gd31  1  0.77529099  0.08567362  0.40392341  1
  Gd  Gd32  1  0.21580714  0.54811352  0.14966176  1
  Gd  Gd33  1  0.76982267  0.43769132  0.37224552  1
  Gd  Gd34  1  0.53807621  0.55209775  0.63466813  1
  Gd  Gd35  1  0.56556054  0.85864324  0.14559021  1
  N  N36  1  0.21850838  0.20441452  0.39575292  1
  N  N37  1  0.11039807  0.08056762  0.10290975  1
  N  N38  1  0.86812146  0.21717350  0.83624807  1
  N  N39  1  0.77585559  0.09360625  0.61726532  1
  N  N40  1  0.51612118  0.21998841  0.35186877  1
  N  N41  1  0.43433976  0.09190210  0.05997720  1
  N  N42  1  0.23669186  0.22397572  0.81837203  1
  N  N43  1  0.10181084  0.09448713  0.60231459  1
  N  N44  1  0.91614058  0.18413604  0.33087339  1
  N  N45  1  0.80898059  0.07899684  0.07866796  1
  N  N46  1  0.56138596  0.20265823  0.84697751  1
  N  N47  1  0.45265493  0.09169165  0.60466201  1
  N  N48  1  0.21637170  0.53823963  0.36812650  1
  N  N49  1  0.09105977  0.42902927  0.06410715  1
  N  N50  1  0.89105059  0.54431647  0.83205449  1
  N  N51  1  0.79932287  0.41932816  0.61133389  1
  N  N52  1  0.51336210  0.55487054  0.40477278  1
  N  N53  1  0.44872789  0.44064976  0.06213316  1
  N  N54  1  0.21775643  0.54386389  0.83864812  1
  N  N55  1  0.10114070  0.43790859  0.59703974  1
  N  N56  1  0.91103879  0.55101829  0.32739035  1
  N  N57  1  0.77748518  0.42951990  0.11914239  1
  N  N58  1  0.56506663  0.53940306  0.86717203  1
  N  N59  1  0.42258142  0.40768572  0.60716136  1
  N  N60  1  0.22074180  0.87074327  0.34248147  1
  N  N61  1  0.10617997  0.78503390  0.07408408  1
  N  N62  1  0.89432421  0.87026507  0.83767533  1
  N  N63  1  0.78183252  0.76211074  0.58991850  1
  N  N64  1  0.55889246  0.87151709  0.36436025  1
  N  N65  1  0.42647343  0.75410266  0.07394125  1
  N  N66  1  0.23915962  0.84074650  0.82414580  1
  N  N67  1  0.10742135  0.76459572  0.59111341  1
  N  N68  1  0.90836668  0.84398843  0.32497778  1
  N  N69  1  0.81125179  0.74803743  0.07316061  1
  N  N70  1  0.56173892  0.86766555  0.83769577  1
  N  N71  1  0.41976016  0.80877601  0.58974174  1
