# generated using pymatgen
data_Gd2Al7N9
_symmetry_space_group_name_H-M   'P 1'
_cell_length_a   9.87372821
_cell_length_b   9.86156592
_cell_length_c   10.47943333
_cell_angle_alpha   89.90077396
_cell_angle_beta   89.56154833
_cell_angle_gamma   60.08851620
_symmetry_Int_Tables_number   1
_chemical_formula_structural   Gd2Al7N9
_chemical_formula_sum   'Gd8 Al28 N36'
_cell_volume   884.43961526
_cell_formula_units_Z   4
loop_
 _symmetry_equiv_pos_site_id
 _symmetry_equiv_pos_as_xyz
  1  'x, y, z'
loop_
 _atom_site_type_symbol
 _atom_site_label
 _atom_site_symmetry_multiplicity
 _atom_site_fract_x
 _atom_site_fract_y
 _atom_site_fract_z
 _atom_site_occupancy
  Al  Al0  1  0.11964872  0.09050001  0.36086668  1
  Al  Al1  1  0.77470810  0.09254711  0.78600623  1
  Al  Al2  1  0.89548557  0.20630422  0.55711817  1
  Al  Al3  1  0.44285577  0.09738824  0.32243725  1
  Al  Al4  1  0.22582984  0.21082171  0.55057327  1
  Al  Al5  1  0.88227244  0.20208374  0.03190180  1
  Al  Al6  1  0.44745290  0.09374764  0.78103652  1
  Al  Al7  1  0.54688576  0.20843180  0.55818380  1
  Al  Al8  1  0.10523915  0.43650752  0.31915327  1
  Al  Al9  1  0.78002252  0.42790906  0.81282675  1
  Al  Al10  1  0.89800769  0.53838715  0.56237172  1
  Al  Al11  1  0.43791979  0.43485461  0.30934051  1
  Al  Al12  1  0.54708420  0.54347530  0.04154944  1
  Al  Al13  1  0.11670201  0.43002328  0.78999082  1
  Al  Al14  1  0.21904653  0.54004671  0.54875759  1
  Al  Al15  1  0.88722052  0.54359278  0.04273693  1
  Al  Al16  1  0.43543015  0.42659340  0.78783853  1
  Al  Al17  1  0.11118506  0.76219016  0.31031699  1
  Al  Al18  1  0.21314234  0.86734339  0.05551532  1
  Al  Al19  1  0.77948794  0.76228179  0.79649076  1
  Al  Al20  1  0.89442391  0.86416695  0.55703008  1
  Al  Al21  1  0.43545189  0.76006240  0.30229666  1
  Al  Al22  1  0.11592716  0.75134108  0.79666602  1
  Al  Al23  1  0.22425157  0.86853796  0.55069972  1
  Al  Al24  1  0.79356247  0.75308174  0.31253376  1
  Al  Al25  1  0.89624399  0.87324625  0.04910107  1
  Al  Al26  1  0.44150074  0.76187726  0.80179865  1
  Al  Al27  1  0.55525728  0.87457055  0.55314916  1
  Gd  Gd28  1  0.21557103  0.20687845  0.06805788  1
  Gd  Gd29  1  0.55595557  0.20837474  0.03580614  1
  Gd  Gd30  1  0.11602175  0.08481785  0.80287615  1
  Gd  Gd31  1  0.77861230  0.08843490  0.31040854  1
  Gd  Gd32  1  0.20975228  0.54713476  0.06303678  1
  Gd  Gd33  1  0.78630294  0.43449535  0.28479318  1
  Gd  Gd34  1  0.56204469  0.54017362  0.56710204  1
  Gd  Gd35  1  0.56247092  0.86244314  0.06056901  1
  N  N36  1  0.22168112  0.21016696  0.36427231  1
  N  N37  1  0.09116825  0.08233059  0.07669953  1
  N  N38  1  0.85967671  0.21283215  0.85231938  1
  N  N39  1  0.78212913  0.09142742  0.59954550  1
  N  N40  1  0.52686797  0.22540457  0.37664539  1
  N  N41  1  0.45415912  0.09248123  0.14623876  1
  N  N42  1  0.23994260  0.21907734  0.84651028  1
  N  N43  1  0.11849781  0.09100918  0.57909254  1
  N  N44  1  0.90655193  0.20421531  0.37694851  1
  N  N45  1  0.79574416  0.08442698  0.09557066  1
  N  N46  1  0.55607059  0.20239294  0.81800033  1
  N  N47  1  0.44354847  0.09204517  0.59814997  1
  N  N48  1  0.22042615  0.54287024  0.35953820  1
  N  N49  1  0.06720034  0.44282872  0.14234822  1
  N  N50  1  0.89623096  0.54234408  0.85738281  1
  N  N51  1  0.81618539  0.41090094  0.62760172  1
  N  N52  1  0.53649517  0.55066035  0.35669607  1
  N  N53  1  0.45786998  0.43836262  0.12663990  1
  N  N54  1  0.22103013  0.53687565  0.84322845  1
  N  N55  1  0.11520480  0.42867936  0.60595146  1
  N  N56  1  0.89868738  0.55099483  0.38406442  1
  N  N57  1  0.77062883  0.43476798  0.06489952  1
  N  N58  1  0.55046927  0.53939829  0.84603062  1
  N  N59  1  0.42606736  0.42151401  0.60939216  1
  N  N60  1  0.22386517  0.86860440  0.36653942  1
  N  N61  1  0.09303653  0.78858448  0.12943971  1
  N  N62  1  0.89194922  0.86965889  0.85578307  1
  N  N63  1  0.77746675  0.76140679  0.61413531  1
  N  N64  1  0.56088594  0.86463438  0.36298464  1
  N  N65  1  0.42404147  0.75019706  0.11817101  1
  N  N66  1  0.23678259  0.83362266  0.87147739  1
  N  N67  1  0.11405974  0.76111382  0.61112182  1
  N  N68  1  0.90694845  0.84398542  0.37852935  1
  N  N69  1  0.81071730  0.74800685  0.12210145  1
  N  N70  1  0.55474427  0.87574935  0.84149528  1
  N  N71  1  0.42523271  0.79455265  0.62090820  1
