# generated using pymatgen
data_Gd2Al7N9
_symmetry_space_group_name_H-M   'P 1'
_cell_length_a   9.90508894
_cell_length_b   9.82148374
_cell_length_c   10.80295624
_cell_angle_alpha   89.68812623
_cell_angle_beta   89.42645999
_cell_angle_gamma   59.69917689
_symmetry_Int_Tables_number   1
_chemical_formula_structural   Gd2Al7N9
_chemical_formula_sum   'Gd8 Al28 N36'
_cell_volume   907.32411660
_cell_formula_units_Z   4
loop_
 _symmetry_equiv_pos_site_id
 _symmetry_equiv_pos_as_xyz
  1  'x, y, z'
loop_
 _atom_site_type_symbol
 _atom_site_label
 _atom_site_symmetry_multiplicity
 _atom_site_fract_x
 _atom_site_fract_y
 _atom_site_fract_z
 _atom_site_occupancy
  Al  Al0  1  0.12523954  0.08306527  0.39531859  1
  Al  Al1  1  0.77019657  0.09751609  0.79342022  1
  Al  Al2  1  0.89586286  0.20317155  0.56777549  1
  Al  Al3  1  0.44245199  0.10213786  0.33681293  1
  Al  Al4  1  0.23158364  0.20740485  0.56579565  1
  Al  Al5  1  0.87430969  0.20694233  0.03914738  1
  Al  Al6  1  0.44432675  0.10227006  0.80001323  1
  Al  Al7  1  0.54759951  0.20582154  0.56683718  1
  Al  Al8  1  0.10141273  0.43854036  0.33405719  1
  Al  Al9  1  0.77644957  0.42582066  0.81785082  1
  Al  Al10  1  0.90482739  0.52643687  0.58588256  1
  Al  Al11  1  0.44181915  0.43788082  0.31660906  1
  Al  Al12  1  0.54775925  0.53705102  0.04421502  1
  Al  Al13  1  0.11883540  0.42842318  0.81222723  1
  Al  Al14  1  0.22039600  0.53699155  0.60897397  1
  Al  Al15  1  0.88276663  0.53760777  0.04212226  1
  Al  Al16  1  0.44077651  0.42355489  0.80567335  1
  Al  Al17  1  0.12326127  0.75228732  0.39088558  1
  Al  Al18  1  0.20875674  0.87928823  0.11915070  1
  Al  Al19  1  0.77814195  0.76211077  0.85723696  1
  Al  Al20  1  0.89490699  0.87206170  0.57817413  1
  Al  Al21  1  0.43651999  0.77515372  0.39177433  1
  Al  Al22  1  0.12078714  0.75951354  0.86815556  1
  Al  Al23  1  0.23145612  0.86182717  0.62827324  1
  Al  Al24  1  0.77790077  0.75830868  0.41773138  1
  Al  Al25  1  0.88719919  0.88693763  0.02964983  1
  Al  Al26  1  0.43854918  0.76303983  0.87188559  1
  Al  Al27  1  0.55512203  0.87190186  0.63328547  1
  Gd  Gd28  1  0.20984702  0.21081513  0.08639516  1
  Gd  Gd29  1  0.55335692  0.20352726  0.05042754  1
  Gd  Gd30  1  0.10596787  0.10374301  0.82721611  1
  Gd  Gd31  1  0.78301463  0.08480280  0.31728984  1
  Gd  Gd32  1  0.20126460  0.55010121  0.10484779  1
  Gd  Gd33  1  0.79374433  0.43478555  0.29641009  1
  Gd  Gd34  1  0.56566016  0.53049257  0.58118470  1
  Gd  Gd35  1  0.57361908  0.83833079  0.14312440  1
  N  N36  1  0.22404587  0.20936681  0.38560804  1
  N  N37  1  0.09070284  0.08449751  0.05771242  1
  N  N38  1  0.84918779  0.21660291  0.86566075  1
  N  N39  1  0.77796324  0.09812826  0.61336904  1
  N  N40  1  0.53026160  0.22585879  0.39027538  1
  N  N41  1  0.44871668  0.09309706  0.16323117  1
  N  N42  1  0.24558724  0.22153862  0.87454802  1
  N  N43  1  0.12170032  0.08499087  0.58869018  1
  N  N44  1  0.90871476  0.20126583  0.39176786  1
  N  N45  1  0.79715117  0.08234050  0.10683241  1
  N  N46  1  0.55737491  0.20065630  0.83966420  1
  N  N47  1  0.44261198  0.09692866  0.62091236  1
  N  N48  1  0.22053931  0.54177491  0.33795190  1
  N  N49  1  0.03985352  0.45094677  0.16284680  1
  N  N50  1  0.90118476  0.52426914  0.86236472  1
  N  N51  1  0.81816019  0.40420095  0.64190923  1
  N  N52  1  0.53990578  0.55217307  0.37059315  1
  N  N53  1  0.46213495  0.43771475  0.13736270  1
  N  N54  1  0.22261331  0.53891972  0.85086581  1
  N  N55  1  0.11884412  0.42132727  0.63164024  1
  N  N56  1  0.90484704  0.53957123  0.41150666  1
  N  N57  1  0.76456531  0.43747884  0.07938888  1
  N  N58  1  0.55256058  0.53369224  0.85392151  1
  N  N59  1  0.43129446  0.41373581  0.63038983  1
  N  N60  1  0.22239393  0.87543870  0.31964733  1
  N  N61  1  0.10021190  0.79072872  0.04745250  1
  N  N62  1  0.89096822  0.87856487  0.84278678  1
  N  N63  1  0.77761720  0.76069418  0.60125617  1
  N  N64  1  0.56870855  0.86529567  0.35764214  1
  N  N65  1  0.41746577  0.76190014  0.04964266  1
  N  N66  1  0.23973044  0.84195130  0.80113169  1
  N  N67  1  0.12640810  0.75409600  0.57409504  1
  N  N68  1  0.90296609  0.84872379  0.39743179  1
  N  N69  1  0.79589221  0.76001810  0.03876599  1
  N  N70  1  0.55349414  0.86728814  0.81630428  1
  N  N71  1  0.43168106  0.79324010  0.56789831  1
