# generated using pymatgen
data_Gd2Al7N9
_symmetry_space_group_name_H-M   'P 1'
_cell_length_a   9.74330379
_cell_length_b   9.79494602
_cell_length_c   11.11458776
_cell_angle_alpha   90.42485314
_cell_angle_beta   89.99388756
_cell_angle_gamma   59.90855103
_symmetry_Int_Tables_number   1
_chemical_formula_structural   Gd2Al7N9
_chemical_formula_sum   'Gd8 Al28 N36'
_cell_volume   917.73048590
_cell_formula_units_Z   4
loop_
 _symmetry_equiv_pos_site_id
 _symmetry_equiv_pos_as_xyz
  1  'x, y, z'
loop_
 _atom_site_type_symbol
 _atom_site_label
 _atom_site_symmetry_multiplicity
 _atom_site_fract_x
 _atom_site_fract_y
 _atom_site_fract_z
 _atom_site_occupancy
  Al  Al0  1  0.12518738  0.08100651  0.41117656  1
  Al  Al1  1  0.77624628  0.09716968  0.79565588  1
  Al  Al2  1  0.89464978  0.20099095  0.57060946  1
  Al  Al3  1  0.44438923  0.09432646  0.37181711  1
  Al  Al4  1  0.22285084  0.21024029  0.62039578  1
  Al  Al5  1  0.87069015  0.21099901  0.03997992  1
  Al  Al6  1  0.45431975  0.09951128  0.78280262  1
  Al  Al7  1  0.55517625  0.20637394  0.56555620  1
  Al  Al8  1  0.12501004  0.42802667  0.41462991  1
  Al  Al9  1  0.78061483  0.42213542  0.80698645  1
  Al  Al10  1  0.89666461  0.53056433  0.58284809  1
  Al  Al11  1  0.43980062  0.43455728  0.31757034  1
  Al  Al12  1  0.54842827  0.53768076  0.04599564  1
  Al  Al13  1  0.11948077  0.42820999  0.86161022  1
  Al  Al14  1  0.21388713  0.54272573  0.64199954  1
  Al  Al15  1  0.88424833  0.53450287  0.01927440  1
  Al  Al16  1  0.44751077  0.42001910  0.80157608  1
  Al  Al17  1  0.12771887  0.74855071  0.40218686  1
  Al  Al18  1  0.21229028  0.87850249  0.11692710  1
  Al  Al19  1  0.77477385  0.76546410  0.85544077  1
  Al  Al20  1  0.89476596  0.87314592  0.57529317  1
  Al  Al21  1  0.43172388  0.77782422  0.39362732  1
  Al  Al22  1  0.12195168  0.75806758  0.86610023  1
  Al  Al23  1  0.22697608  0.86878382  0.63414900  1
  Al  Al24  1  0.77851566  0.75687181  0.41465466  1
  Al  Al25  1  0.88463881  0.89089162  0.02283104  1
  Al  Al26  1  0.44638674  0.75669126  0.87060936  1
  Al  Al27  1  0.55824010  0.86730088  0.62748568  1
  Gd  Gd28  1  0.18043574  0.22497242  0.16733577  1
  Gd  Gd29  1  0.53207151  0.21387151  0.04715370  1
  Gd  Gd30  1  0.12997475  0.08955484  0.86829901  1
  Gd  Gd31  1  0.78719734  0.07811445  0.30833561  1
  Gd  Gd32  1  0.17984260  0.57000450  0.13441393  1
  Gd  Gd33  1  0.78041134  0.43181708  0.30216929  1
  Gd  Gd34  1  0.55703885  0.53348669  0.57525482  1
  Gd  Gd35  1  0.57453512  0.84283055  0.14612193  1
  N  N36  1  0.22168222  0.20445623  0.37996463  1
  N  N37  1  0.09165766  0.08961356  0.07331412  1
  N  N38  1  0.86282125  0.21529624  0.86625825  1
  N  N39  1  0.78061823  0.09547101  0.61973674  1
  N  N40  1  0.53619308  0.22453922  0.39156803  1
  N  N41  1  0.43414051  0.09524298  0.15099770  1
  N  N42  1  0.23570344  0.22606271  0.79339051  1
  N  N43  1  0.11946332  0.08560291  0.58934681  1
  N  N44  1  0.90383398  0.19866309  0.39661988  1
  N  N45  1  0.78681442  0.08780448  0.09958353  1
  N  N46  1  0.55809375  0.20077108  0.84102695  1
  N  N47  1  0.45550145  0.08854910  0.60375874  1
  N  N48  1  0.21670653  0.53839771  0.34298874  1
  N  N49  1  0.10617971  0.41960384  0.03327189  1
  N  N50  1  0.88545763  0.53734502  0.84603983  1
  N  N51  1  0.81154750  0.40644191  0.63593034  1
  N  N52  1  0.53147009  0.55501643  0.37248111  1
  N  N53  1  0.45169192  0.44738323  0.13995297  1
  N  N54  1  0.21668826  0.54552992  0.81793500  1
  N  N55  1  0.11850758  0.43048950  0.58465742  1
  N  N56  1  0.89999093  0.53909807  0.39781071  1
  N  N57  1  0.77372111  0.43756562  0.08726817  1
  N  N58  1  0.55771414  0.52772221  0.86012443  1
  N  N59  1  0.43483639  0.40944788  0.63284543  1
  N  N60  1  0.21919485  0.87455519  0.32532913  1
  N  N61  1  0.10418126  0.79073018  0.03874179  1
  N  N62  1  0.88857728  0.88066789  0.84463992  1
  N  N63  1  0.77884940  0.75825451  0.59165962  1
  N  N64  1  0.56614553  0.86659471  0.35791177  1
  N  N65  1  0.42259876  0.76287413  0.04617544  1
  N  N66  1  0.24447838  0.83922830  0.80109355  1
  N  N67  1  0.12684167  0.75386275  0.57841795  1
  N  N68  1  0.90350028  0.84975329  0.39841645  1
  N  N69  1  0.79936642  0.75587645  0.03737912  1
  N  N70  1  0.55281061  0.86918980  0.80728804  1
  N  N71  1  0.42757078  0.79530779  0.56542785  1
