# generated using pymatgen
data_Gd2Al7N9
_symmetry_space_group_name_H-M   'P 1'
_cell_length_a   9.88219513
_cell_length_b   9.83277660
_cell_length_c   10.71606321
_cell_angle_alpha   89.43198546
_cell_angle_beta   89.30251638
_cell_angle_gamma   59.94774447
_symmetry_Int_Tables_number   1
_chemical_formula_structural   Gd2Al7N9
_chemical_formula_sum   'Gd8 Al28 N36'
_cell_volume   901.21864319
_cell_formula_units_Z   4
loop_
 _symmetry_equiv_pos_site_id
 _symmetry_equiv_pos_as_xyz
  1  'x, y, z'
loop_
 _atom_site_type_symbol
 _atom_site_label
 _atom_site_symmetry_multiplicity
 _atom_site_fract_x
 _atom_site_fract_y
 _atom_site_fract_z
 _atom_site_occupancy
  Al  Al0  1  0.12596938  0.08496736  0.38371623  1
  Al  Al1  1  0.77139182  0.09699696  0.78281670  1
  Al  Al2  1  0.89388812  0.20503007  0.55500042  1
  Al  Al3  1  0.44281919  0.10394012  0.32286149  1
  Al  Al4  1  0.22896515  0.21136950  0.55330789  1
  Al  Al5  1  0.87453211  0.20540337  0.02484796  1
  Al  Al6  1  0.44979715  0.09000172  0.78772294  1
  Al  Al7  1  0.54704902  0.20914865  0.55686910  1
  Al  Al8  1  0.10690823  0.43586537  0.31808771  1
  Al  Al9  1  0.77747055  0.42749063  0.80408469  1
  Al  Al10  1  0.90393235  0.52941311  0.57002098  1
  Al  Al11  1  0.44044686  0.43777508  0.30742122  1
  Al  Al12  1  0.54829744  0.53142966  0.03336636  1
  Al  Al13  1  0.12130083  0.42829032  0.79242287  1
  Al  Al14  1  0.21878493  0.53787509  0.54568423  1
  Al  Al15  1  0.89134183  0.53209992  0.03088888  1
  Al  Al16  1  0.43463308  0.42456703  0.78702214  1
  Al  Al17  1  0.10868062  0.76100348  0.30973197  1
  Al  Al18  1  0.20892284  0.87957992  0.11856698  1
  Al  Al19  1  0.77779575  0.76429737  0.85477627  1
  Al  Al20  1  0.89647229  0.87228633  0.56118145  1
  Al  Al21  1  0.43348302  0.77344388  0.37522515  1
  Al  Al22  1  0.11393153  0.74982962  0.78409410  1
  Al  Al23  1  0.22766377  0.86657457  0.61331533  1
  Al  Al24  1  0.78882563  0.75593735  0.39688607  1
  Al  Al25  1  0.90060684  0.87985611  0.03220237  1
  Al  Al26  1  0.43694112  0.76272203  0.86357398  1
  Al  Al27  1  0.55263445  0.88241142  0.56679872  1
  Gd  Gd28  1  0.21358997  0.20251093  0.07266787  1
  Gd  Gd29  1  0.55094100  0.20181120  0.03360388  1
  Gd  Gd30  1  0.10797814  0.09919648  0.81606307  1
  Gd  Gd31  1  0.78140457  0.08770254  0.30273537  1
  Gd  Gd32  1  0.20537443  0.55121044  0.06147912  1
  Gd  Gd33  1  0.79079128  0.43535186  0.28641377  1
  Gd  Gd34  1  0.56111908  0.53771349  0.57487743  1
  Gd  Gd35  1  0.57312114  0.83567343  0.11923047  1
  N  N36  1  0.22501476  0.21054612  0.37110316  1
  N  N37  1  0.09141533  0.07485158  0.04078344  1
  N  N38  1  0.84921275  0.21908904  0.85061449  1
  N  N39  1  0.77877381  0.09671434  0.60078844  1
  N  N40  1  0.53093459  0.22591253  0.37767655  1
  N  N41  1  0.45182779  0.08681103  0.14982690  1
  N  N42  1  0.24612034  0.22167300  0.85851127  1
  N  N43  1  0.11945546  0.08789616  0.57517912  1
  N  N44  1  0.90956602  0.20109112  0.37716968  1
  N  N45  1  0.79215100  0.08609742  0.09088619  1
  N  N46  1  0.55564715  0.20126897  0.82054390  1
  N  N47  1  0.44219132  0.09599680  0.60579101  1
  N  N48  1  0.22236438  0.54221653  0.35903304  1
  N  N49  1  0.05978850  0.44548202  0.14451546  1
  N  N50  1  0.90247928  0.52591368  0.84894659  1
  N  N51  1  0.81649104  0.40715904  0.62542377  1
  N  N52  1  0.53961128  0.55262259  0.35836118  1
  N  N53  1  0.45649794  0.43471735  0.12730701  1
  N  N54  1  0.22004446  0.54148180  0.84530446  1
  N  N55  1  0.11914277  0.42499657  0.61180914  1
  N  N56  1  0.90790661  0.54037893  0.39224544  1
  N  N57  1  0.76749829  0.43568791  0.06852136  1
  N  N58  1  0.55204309  0.53240633  0.84011194  1
  N  N59  1  0.42328419  0.42028589  0.61063957  1
  N  N60  1  0.22744089  0.88232407  0.30719384  1
  N  N61  1  0.08196316  0.78993215  0.13248924  1
  N  N62  1  0.89830587  0.87750639  0.84273283  1
  N  N63  1  0.77494819  0.76354804  0.58254414  1
  N  N64  1  0.56902164  0.87044244  0.35689560  1
  N  N65  1  0.41028043  0.75236740  0.04245084  1
  N  N66  1  0.24241028  0.84097259  0.78836519  1
  N  N67  1  0.11219798  0.75393215  0.60277115  1
  N  N68  1  0.91010072  0.85033144  0.38385297  1
  N  N69  1  0.80955599  0.75077067  0.03729379  1
  N  N70  1  0.55332489  0.87196209  0.83839581  1
  N  N71  1  0.42448802  0.79678593  0.55003815  1
