# generated using pymatgen
data_Gd2Al7N9
_symmetry_space_group_name_H-M   'P 1'
_cell_length_a   9.74765560
_cell_length_b   9.81540133
_cell_length_c   10.91756034
_cell_angle_alpha   90.40893382
_cell_angle_beta   89.07427405
_cell_angle_gamma   60.02812648
_symmetry_Int_Tables_number   1
_chemical_formula_structural   Gd2Al7N9
_chemical_formula_sum   'Gd8 Al28 N36'
_cell_volume   904.61512304
_cell_formula_units_Z   4
loop_
 _symmetry_equiv_pos_site_id
 _symmetry_equiv_pos_as_xyz
  1  'x, y, z'
loop_
 _atom_site_type_symbol
 _atom_site_label
 _atom_site_symmetry_multiplicity
 _atom_site_fract_x
 _atom_site_fract_y
 _atom_site_fract_z
 _atom_site_occupancy
  Al  Al0  1  0.13022077  0.08356774  0.42951309  1
  Al  Al1  1  0.78733950  0.09026379  0.82387807  1
  Al  Al2  1  0.90019526  0.19845289  0.59507140  1
  Al  Al3  1  0.45358976  0.09793604  0.41707606  1
  Al  Al4  1  0.23361389  0.20487286  0.64478342  1
  Al  Al5  1  0.86926413  0.21152051  0.06411913  1
  Al  Al6  1  0.44728364  0.08928017  0.88353153  1
  Al  Al7  1  0.55781773  0.19206590  0.66053587  1
  Al  Al8  1  0.12215587  0.42777262  0.43338272  1
  Al  Al9  1  0.77134034  0.41735952  0.83308899  1
  Al  Al10  1  0.89903585  0.53224608  0.66512348  1
  Al  Al11  1  0.43445563  0.44337745  0.32370129  1
  Al  Al12  1  0.52815292  0.55168452  0.07002947  1
  Al  Al13  1  0.12671587  0.42308436  0.88609125  1
  Al  Al14  1  0.21516241  0.54028718  0.65729311  1
  Al  Al15  1  0.87412087  0.53436624  0.03813671  1
  Al  Al16  1  0.43968898  0.42843105  0.82702254  1
  Al  Al17  1  0.13574285  0.74904376  0.42902029  1
  Al  Al18  1  0.20775037  0.87673299  0.15011950  1
  Al  Al19  1  0.77480378  0.76810842  0.87476450  1
  Al  Al20  1  0.89766241  0.86777648  0.59745772  1
  Al  Al21  1  0.44141566  0.77640237  0.40775453  1
  Al  Al22  1  0.12565489  0.75405254  0.89217167  1
  Al  Al23  1  0.23135944  0.86765257  0.65577139  1
  Al  Al24  1  0.79278873  0.74455158  0.42394413  1
  Al  Al25  1  0.88186777  0.89209068  0.04366388  1
  Al  Al26  1  0.44575952  0.75755954  0.89142089  1
  Al  Al27  1  0.55727631  0.87251556  0.64742512  1
  Gd  Gd28  1  0.20263711  0.21708936  0.17521222  1
  Gd  Gd29  1  0.52964542  0.23385100  0.09408520  1
  Gd  Gd30  1  0.13523344  0.08550239  0.89681372  1
  Gd  Gd31  1  0.79658555  0.07655640  0.33061727  1
  Gd  Gd32  1  0.12327341  0.59333375  0.18083635  1
  Gd  Gd33  1  0.79441076  0.42634925  0.31354383  1
  Gd  Gd34  1  0.56159953  0.52612382  0.58636115  1
  Gd  Gd35  1  0.56496733  0.86312199  0.15268933  1
  N  N36  1  0.22985748  0.20177078  0.39145417  1
  N  N37  1  0.08367552  0.09498845  0.10913145  1
  N  N38  1  0.86882048  0.21120745  0.88967710  1
  N  N39  1  0.78684044  0.08901396  0.64625642  1
  N  N40  1  0.52762982  0.21658722  0.32827761  1
  N  N41  1  0.41837165  0.08846516  0.05523387  1
  N  N42  1  0.24500551  0.21957362  0.81738259  1
  N  N43  1  0.12592879  0.08414733  0.61278708  1
  N  N44  1  0.90877844  0.20112073  0.42145835  1
  N  N45  1  0.78656916  0.08673328  0.11912866  1
  N  N46  1  0.56032595  0.19873454  0.85083593  1
  N  N47  1  0.46051339  0.08753124  0.59554937  1
  N  N48  1  0.22689533  0.53770631  0.38221439  1
  N  N49  1  0.09012776  0.42526780  0.05564935  1
  N  N50  1  0.88642749  0.53826209  0.85170411  1
  N  N51  1  0.80721939  0.40396485  0.66109907  1
  N  N52  1  0.54077445  0.55333188  0.38071902  1
  N  N53  1  0.40326503  0.48568379  0.15160899  1
  N  N54  1  0.21369213  0.54577839  0.83826449  1
  N  N55  1  0.11078180  0.42961730  0.60784758  1
  N  N56  1  0.92584924  0.54498687  0.35533969  1
  N  N57  1  0.75767269  0.43954782  0.09908134  1
  N  N58  1  0.55152837  0.53065350  0.88267457  1
  N  N59  1  0.43562116  0.40771611  0.65392497  1
  N  N60  1  0.22453002  0.87352000  0.34479764  1
  N  N61  1  0.09825136  0.79170354  0.06754028  1
  N  N62  1  0.89286300  0.87638778  0.86559419  1
  N  N63  1  0.78357186  0.74800396  0.60999132  1
  N  N64  1  0.57237423  0.86932647  0.36776256  1
  N  N65  1  0.41666510  0.77228761  0.06910035  1
  N  N66  1  0.24538162  0.83856411  0.82544007  1
  N  N67  1  0.12788832  0.75523899  0.60507583  1
  N  N68  1  0.91222337  0.84584433  0.41827040  1
  N  N69  1  0.79935388  0.75162444  0.05493019  1
  N  N70  1  0.55480139  0.86818696  0.82875672  1
  N  N71  1  0.43427985  0.79010680  0.58476313  1
