# generated using pymatgen
data_Gd2Al7N9
_symmetry_space_group_name_H-M   'P 1'
_cell_length_a   9.73499753
_cell_length_b   9.79851218
_cell_length_c   11.09334123
_cell_angle_alpha   89.94885541
_cell_angle_beta   89.69876539
_cell_angle_gamma   60.00889199
_symmetry_Int_Tables_number   1
_chemical_formula_structural   Gd2Al7N9
_chemical_formula_sum   'Gd8 Al28 N36'
_cell_volume   916.47583590
_cell_formula_units_Z   4
loop_
 _symmetry_equiv_pos_site_id
 _symmetry_equiv_pos_as_xyz
  1  'x, y, z'
loop_
 _atom_site_type_symbol
 _atom_site_label
 _atom_site_symmetry_multiplicity
 _atom_site_fract_x
 _atom_site_fract_y
 _atom_site_fract_z
 _atom_site_occupancy
  Al  Al0  1  0.12581977  0.08437482  0.40777380  1
  Al  Al1  1  0.77939042  0.09504555  0.79543689  1
  Al  Al2  1  0.89688237  0.20179980  0.57044837  1
  Al  Al3  1  0.44368429  0.09403925  0.40995951  1
  Al  Al4  1  0.22333567  0.21028108  0.62664703  1
  Al  Al5  1  0.87008740  0.20929689  0.04394657  1
  Al  Al6  1  0.45249644  0.09316135  0.81109288  1
  Al  Al7  1  0.55724833  0.20981860  0.57085502  1
  Al  Al8  1  0.12576618  0.42723497  0.41336098  1
  Al  Al9  1  0.78141919  0.41941308  0.80811192  1
  Al  Al10  1  0.89675577  0.53150187  0.58225420  1
  Al  Al11  1  0.43845441  0.43767512  0.31941454  1
  Al  Al12  1  0.54485578  0.53842060  0.05025169  1
  Al  Al13  1  0.11882703  0.42658000  0.86368623  1
  Al  Al14  1  0.21323765  0.54325660  0.64092464  1
  Al  Al15  1  0.88203877  0.53138790  0.02050172  1
  Al  Al16  1  0.44650558  0.42142774  0.80031816  1
  Al  Al17  1  0.12750059  0.75061786  0.40295119  1
  Al  Al18  1  0.21066624  0.87687395  0.12349384  1
  Al  Al19  1  0.77725111  0.76195287  0.85598946  1
  Al  Al20  1  0.89466408  0.87377783  0.57537949  1
  Al  Al21  1  0.43308796  0.78056217  0.39083471  1
  Al  Al22  1  0.12247128  0.75613101  0.86671623  1
  Al  Al23  1  0.22744201  0.87049966  0.63373574  1
  Al  Al24  1  0.77653150  0.76058909  0.41309786  1
  Al  Al25  1  0.88423767  0.88857688  0.02399856  1
  Al  Al26  1  0.44608747  0.75336277  0.87232609  1
  Al  Al27  1  0.55710004  0.87028500  0.63063419  1
  Gd  Gd28  1  0.20084618  0.21288002  0.15746483  1
  Gd  Gd29  1  0.53745937  0.22093818  0.04141613  1
  Gd  Gd30  1  0.13350613  0.08380306  0.87702638  1
  Gd  Gd31  1  0.78505346  0.08193936  0.31124760  1
  Gd  Gd32  1  0.17306184  0.57164551  0.13772479  1
  Gd  Gd33  1  0.78411131  0.43289058  0.30164075  1
  Gd  Gd34  1  0.55828018  0.53621736  0.57385619  1
  Gd  Gd35  1  0.57077791  0.85057532  0.13774010  1
  N  N36  1  0.22583595  0.20480124  0.37124357  1
  N  N37  1  0.08713343  0.09008581  0.08177343  1
  N  N38  1  0.86562376  0.21177264  0.86882024  1
  N  N39  1  0.78257887  0.09557035  0.62023799  1
  N  N40  1  0.53471163  0.22749687  0.39398671  1
  N  N41  1  0.42617169  0.08225299  0.06708065  1
  N  N42  1  0.23606408  0.22290637  0.79630379  1
  N  N43  1  0.12181665  0.08682363  0.58736647  1
  N  N44  1  0.90460952  0.20079154  0.39713185  1
  N  N45  1  0.78667626  0.08273248  0.10254632  1
  N  N46  1  0.55997346  0.20088358  0.83669931  1
  N  N47  1  0.45307817  0.08966334  0.59206349  1
  N  N48  1  0.21602097  0.54158531  0.34621762  1
  N  N49  1  0.10196245  0.42013849  0.03545268  1
  N  N50  1  0.88550677  0.53505900  0.84646626  1
  N  N51  1  0.81197552  0.40622083  0.63664403  1
  N  N52  1  0.53343645  0.55761714  0.37089044  1
  N  N53  1  0.44360666  0.45102449  0.14343150  1
  N  N54  1  0.21602335  0.54399317  0.81799744  1
  N  N55  1  0.11957537  0.42852456  0.58462382  1
  N  N56  1  0.89967054  0.54265099  0.39874966  1
  N  N57  1  0.76993519  0.43510209  0.08763652  1
  N  N58  1  0.55755979  0.52542465  0.86169023  1
  N  N59  1  0.43437439  0.41321892  0.63227012  1
  N  N60  1  0.21978922  0.87564775  0.32345958  1
  N  N61  1  0.10408338  0.79060527  0.03948866  1
  N  N62  1  0.88887915  0.87904815  0.84522275  1
  N  N63  1  0.77706564  0.76014385  0.59158526  1
  N  N64  1  0.56278112  0.87694178  0.35258959  1
  N  N65  1  0.42091807  0.76092367  0.04782775  1
  N  N66  1  0.24512077  0.83818337  0.80110839  1
  N  N67  1  0.12644345  0.75564623  0.57921997  1
  N  N68  1  0.90342293  0.85206590  0.39887165  1
  N  N69  1  0.80201103  0.75044682  0.03757208  1
  N  N70  1  0.55396402  0.86602011  0.80780636  1
  N  N71  1  0.42845345  0.79794858  0.56389157  1
