# generated using pymatgen
data_Gd2Al7N9
_symmetry_space_group_name_H-M   'P 1'
_cell_length_a   9.75732757
_cell_length_b   9.83022974
_cell_length_c   10.85393812
_cell_angle_alpha   90.50364024
_cell_angle_beta   89.04693990
_cell_angle_gamma   60.02678823
_symmetry_Int_Tables_number   1
_chemical_formula_structural   Gd2Al7N9
_chemical_formula_sum   'Gd8 Al28 N36'
_cell_volume   901.53990195
_cell_formula_units_Z   4
loop_
 _symmetry_equiv_pos_site_id
 _symmetry_equiv_pos_as_xyz
  1  'x, y, z'
loop_
 _atom_site_type_symbol
 _atom_site_label
 _atom_site_symmetry_multiplicity
 _atom_site_fract_x
 _atom_site_fract_y
 _atom_site_fract_z
 _atom_site_occupancy
  Al  Al0  1  0.13187080  0.08098548  0.42911602  1
  Al  Al1  1  0.78127308  0.09946916  0.82819525  1
  Al  Al2  1  0.90101700  0.19713485  0.59483563  1
  Al  Al3  1  0.45533966  0.09594198  0.41629057  1
  Al  Al4  1  0.23401691  0.20349369  0.64546118  1
  Al  Al5  1  0.86751804  0.21504703  0.06342789  1
  Al  Al6  1  0.44624099  0.08980824  0.88417657  1
  Al  Al7  1  0.55787271  0.19216130  0.65968303  1
  Al  Al8  1  0.12500022  0.42336857  0.43493847  1
  Al  Al9  1  0.77153852  0.41895908  0.83261401  1
  Al  Al10  1  0.90069260  0.53079052  0.66344791  1
  Al  Al11  1  0.43403303  0.44340126  0.32515314  1
  Al  Al12  1  0.52620059  0.55344848  0.07185548  1
  Al  Al13  1  0.12715367  0.42365321  0.88763520  1
  Al  Al14  1  0.21698173  0.53787589  0.65324296  1
  Al  Al15  1  0.87359288  0.53636665  0.03852459  1
  Al  Al16  1  0.43903176  0.42903191  0.82695373  1
  Al  Al17  1  0.12934659  0.75147325  0.42860229  1
  Al  Al18  1  0.20656103  0.87730213  0.15079903  1
  Al  Al19  1  0.77192829  0.76637346  0.87364128  1
  Al  Al20  1  0.90040484  0.86430258  0.64959226  1
  Al  Al21  1  0.44328205  0.77465435  0.40700079  1
  Al  Al22  1  0.13125906  0.74993555  0.89242643  1
  Al  Al23  1  0.23171586  0.86767077  0.65462602  1
  Al  Al24  1  0.80112642  0.74495558  0.42083377  1
  Al  Al25  1  0.88116341  0.89308626  0.04141904  1
  Al  Al26  1  0.44618039  0.75716729  0.89080075  1
  Al  Al27  1  0.55823638  0.87283519  0.64500841  1
  Gd  Gd28  1  0.19937042  0.22067083  0.17625939  1
  Gd  Gd29  1  0.52314057  0.23764242  0.09778723  1
  Gd  Gd30  1  0.13659814  0.08359997  0.89770876  1
  Gd  Gd31  1  0.79971668  0.07374336  0.32548966  1
  Gd  Gd32  1  0.10895380  0.60604324  0.19175341  1
  Gd  Gd33  1  0.79539717  0.42320481  0.31503996  1
  Gd  Gd34  1  0.56194772  0.52632190  0.58715348  1
  Gd  Gd35  1  0.56427541  0.86497536  0.15317490  1
  N  N36  1  0.23196642  0.19874758  0.39223747  1
  N  N37  1  0.08064798  0.09690265  0.11121854  1
  N  N38  1  0.87053592  0.21328410  0.88877211  1
  N  N39  1  0.78609181  0.09069242  0.64876416  1
  N  N40  1  0.52775045  0.21468738  0.32611096  1
  N  N41  1  0.41497078  0.08936384  0.05594835  1
  N  N42  1  0.24411734  0.21957736  0.81903632  1
  N  N43  1  0.12642912  0.08335517  0.61402326  1
  N  N44  1  0.91136338  0.19680957  0.42128591  1
  N  N45  1  0.78229113  0.09046021  0.11054662  1
  N  N46  1  0.55770018  0.20068532  0.85209223  1
  N  N47  1  0.46082282  0.08741477  0.59590648  1
  N  N48  1  0.23031235  0.53438278  0.38967924  1
  N  N49  1  0.08822281  0.43151558  0.05858170  1
  N  N50  1  0.88607274  0.53852821  0.85121315  1
  N  N51  1  0.80792649  0.40412752  0.65952742  1
  N  N52  1  0.54213067  0.55186459  0.38130526  1
  N  N53  1  0.39966380  0.48992449  0.15349107  1
  N  N54  1  0.21393936  0.54491561  0.83621335  1
  N  N55  1  0.11219904  0.42687409  0.60931389  1
  N  N56  1  0.92796489  0.53802159  0.35958503  1
  N  N57  1  0.75642764  0.44253372  0.09893472  1
  N  N58  1  0.55149952  0.53089949  0.88176222  1
  N  N59  1  0.43669604  0.40697009  0.65289080  1
  N  N60  1  0.22717688  0.87174648  0.34486858  1
  N  N61  1  0.09594267  0.79397690  0.06406225  1
  N  N62  1  0.89369231  0.87330639  0.84918087  1
  N  N63  1  0.78902155  0.75066705  0.61023275  1
  N  N64  1  0.57539293  0.86711016  0.36906765  1
  N  N65  1  0.41563901  0.77396203  0.06892774  1
  N  N66  1  0.24642856  0.83701985  0.82433874  1
  N  N67  1  0.12108486  0.75859965  0.60549064  1
  N  N68  1  0.92594417  0.82858890  0.37215083  1
  N  N69  1  0.79778997  0.75550992  0.05122557  1
  N  N70  1  0.55411270  0.86858556  0.82759586  1
  N  N71  1  0.43499654  0.78965670  0.58473632  1
