# generated using pymatgen
data_Gd2Al7N9
_symmetry_space_group_name_H-M   'P 1'
_cell_length_a   9.90537360
_cell_length_b   9.87421300
_cell_length_c   10.58553508
_cell_angle_alpha   90.26526090
_cell_angle_beta   89.28494447
_cell_angle_gamma   60.25489774
_symmetry_Int_Tables_number   1
_chemical_formula_structural   Gd2Al7N9
_chemical_formula_sum   'Gd8 Al28 N36'
_cell_volume   898.79161135
_cell_formula_units_Z   4
loop_
 _symmetry_equiv_pos_site_id
 _symmetry_equiv_pos_as_xyz
  1  'x, y, z'
loop_
 _atom_site_type_symbol
 _atom_site_label
 _atom_site_symmetry_multiplicity
 _atom_site_fract_x
 _atom_site_fract_y
 _atom_site_fract_z
 _atom_site_occupancy
  Al  Al0  1  0.13041215  0.07999679  0.42891264  1
  Al  Al1  1  0.77802285  0.09703473  0.82712296  1
  Al  Al2  1  0.90096878  0.20468456  0.59761278  1
  Al  Al3  1  0.44551940  0.09416923  0.41908740  1
  Al  Al4  1  0.23400340  0.20924399  0.64197469  1
  Al  Al5  1  0.87947796  0.20321595  0.07321616  1
  Al  Al6  1  0.44490836  0.09239246  0.88844244  1
  Al  Al7  1  0.54755571  0.20304820  0.66477439  1
  Al  Al8  1  0.11336343  0.42892740  0.43032656  1
  Al  Al9  1  0.77635258  0.42384120  0.83843059  1
  Al  Al10  1  0.89800010  0.53936023  0.65693088  1
  Al  Al11  1  0.43133810  0.42984954  0.38857952  1
  Al  Al12  1  0.54841813  0.54350640  0.05304099  1
  Al  Al13  1  0.12088549  0.42739508  0.88220349  1
  Al  Al14  1  0.21289736  0.54499343  0.65963894  1
  Al  Al15  1  0.88072524  0.54136283  0.04928107  1
  Al  Al16  1  0.43241905  0.43325300  0.86873191  1
  Al  Al17  1  0.11975645  0.75162120  0.40856619  1
  Al  Al18  1  0.21070879  0.87908375  0.14682305  1
  Al  Al19  1  0.77793965  0.77693110  0.88601194  1
  Al  Al20  1  0.89810236  0.86492633  0.65218530  1
  Al  Al21  1  0.43723959  0.77227118  0.41117832  1
  Al  Al22  1  0.10877418  0.76619234  0.89707726  1
  Al  Al23  1  0.22541057  0.86823543  0.65102936  1
  Al  Al24  1  0.79512452  0.74481926  0.41317350  1
  Al  Al25  1  0.89901649  0.87137377  0.15047346  1
  Al  Al26  1  0.43965025  0.76561469  0.88762919  1
  Al  Al27  1  0.55748350  0.87806903  0.64769263  1
  Gd  Gd28  1  0.20552711  0.21154783  0.17138487  1
  Gd  Gd29  1  0.55544615  0.20756016  0.11758099  1
  Gd  Gd30  1  0.11989445  0.09460989  0.87587971  1
  Gd  Gd31  1  0.77861253  0.08136070  0.38236732  1
  Gd  Gd32  1  0.19336784  0.55611080  0.14884042  1
  Gd  Gd33  1  0.78087119  0.42471717  0.32269250  1
  Gd  Gd34  1  0.55677757  0.53896163  0.61913979  1
  Gd  Gd35  1  0.56543907  0.85329531  0.15001734  1
  N  N36  1  0.22652595  0.20092938  0.39580667  1
  N  N37  1  0.09609499  0.08884485  0.09400658  1
  N  N38  1  0.85643017  0.21680174  0.89399346  1
  N  N39  1  0.77882916  0.09798277  0.63658588  1
  N  N40  1  0.51747717  0.22161205  0.34129395  1
  N  N41  1  0.42823277  0.08356713  0.06442371  1
  N  N42  1  0.24559148  0.22232603  0.82038715  1
  N  N43  1  0.12269644  0.08712134  0.61973742  1
  N  N44  1  0.91626030  0.19534600  0.42002728  1
  N  N45  1  0.80507519  0.08973733  0.15932106  1
  N  N46  1  0.55869672  0.19846603  0.85092785  1
  N  N47  1  0.45803982  0.09110899  0.59870961  1
  N  N48  1  0.22107198  0.53476309  0.36946587  1
  N  N49  1  0.09084123  0.42337516  0.05712229  1
  N  N50  1  0.88587047  0.54677652  0.85340970  1
  N  N51  1  0.81273153  0.40715413  0.66000034  1
  N  N52  1  0.52975179  0.54893042  0.39573650  1
  N  N53  1  0.43029020  0.45043833  0.06333136  1
  N  N54  1  0.20787207  0.55354779  0.84288297  1
  N  N55  1  0.11051243  0.43419097  0.61014297  1
  N  N56  1  0.90985613  0.53550677  0.37693135  1
  N  N57  1  0.76513135  0.44198325  0.09870164  1
  N  N58  1  0.55674700  0.54235574  0.86325695  1
  N  N59  1  0.42674288  0.41447235  0.64245873  1
  N  N60  1  0.22581137  0.87195876  0.34300803  1
  N  N61  1  0.09506228  0.79439967  0.07532748  1
  N  N62  1  0.89517513  0.87341965  0.83242731  1
  N  N63  1  0.78373843  0.76038570  0.60164926  1
  N  N64  1  0.56697615  0.86878093  0.36820719  1
  N  N65  1  0.41910064  0.76139191  0.07043293  1
  N  N66  1  0.23808888  0.83984824  0.82625900  1
  N  N67  1  0.11262527  0.76325682  0.59168605  1
  N  N68  1  0.91880540  0.82549575  0.33385634  1
  N  N69  1  0.80622679  0.75959801  0.06585430  1
  N  N70  1  0.55755781  0.87105762  0.83412627  1
  N  N71  1  0.42843010  0.79930073  0.58966473  1
