# generated using pymatgen
data_Gd2Al7N9
_symmetry_space_group_name_H-M   'P 1'
_cell_length_a   9.85899043
_cell_length_b   9.76694205
_cell_length_c   11.03962740
_cell_angle_alpha   89.19764592
_cell_angle_beta   89.29515731
_cell_angle_gamma   59.69174963
_symmetry_Int_Tables_number   1
_chemical_formula_structural   Gd2Al7N9
_chemical_formula_sum   'Gd8 Al28 N36'
_cell_volume   917.63117133
_cell_formula_units_Z   4
loop_
 _symmetry_equiv_pos_site_id
 _symmetry_equiv_pos_as_xyz
  1  'x, y, z'
loop_
 _atom_site_type_symbol
 _atom_site_label
 _atom_site_symmetry_multiplicity
 _atom_site_fract_x
 _atom_site_fract_y
 _atom_site_fract_z
 _atom_site_occupancy
  Al  Al0  1  0.12329208  0.08524803  0.41388279  1
  Al  Al1  1  0.77165774  0.09632855  0.79167873  1
  Al  Al2  1  0.89443534  0.20736889  0.57252747  1
  Al  Al3  1  0.44848838  0.10247882  0.34058571  1
  Al  Al4  1  0.23283447  0.21276278  0.56890785  1
  Al  Al5  1  0.86686090  0.20313573  0.02963786  1
  Al  Al6  1  0.44511163  0.10465966  0.79869900  1
  Al  Al7  1  0.55106796  0.20699599  0.56429071  1
  Al  Al8  1  0.09987268  0.44711731  0.34158778  1
  Al  Al9  1  0.77697898  0.42579919  0.81208655  1
  Al  Al10  1  0.90550418  0.53039620  0.58495488  1
  Al  Al11  1  0.44264007  0.44213480  0.31134359  1
  Al  Al12  1  0.55110356  0.52910514  0.03941502  1
  Al  Al13  1  0.12032066  0.42435129  0.81287942  1
  Al  Al14  1  0.21963414  0.54360297  0.63807412  1
  Al  Al15  1  0.88393419  0.52876796  0.04158815  1
  Al  Al16  1  0.45031877  0.41932652  0.79967192  1
  Al  Al17  1  0.12812286  0.75605177  0.39703672  1
  Al  Al18  1  0.21063665  0.86808655  0.06932835  1
  Al  Al19  1  0.77599171  0.75914269  0.85988079  1
  Al  Al20  1  0.89626333  0.87580241  0.57600323  1
  Al  Al21  1  0.43390970  0.78444982  0.39799510  1
  Al  Al22  1  0.11552656  0.75884362  0.85771329  1
  Al  Al23  1  0.23243448  0.86492584  0.63149618  1
  Al  Al24  1  0.77814387  0.76463668  0.42019666  1
  Al  Al25  1  0.88350322  0.88236792  0.02343418  1
  Al  Al26  1  0.44457528  0.75882284  0.86498183  1
  Al  Al27  1  0.55911290  0.87170985  0.63492016  1
  Gd  Gd28  1  0.18806975  0.18468424  0.15156215  1
  Gd  Gd29  1  0.53956209  0.19925716  0.04577088  1
  Gd  Gd30  1  0.11244679  0.11032767  0.83409303  1
  Gd  Gd31  1  0.78884273  0.08716199  0.30925562  1
  Gd  Gd32  1  0.19819853  0.54178178  0.11432454  1
  Gd  Gd33  1  0.79353954  0.44065916  0.29634722  1
  Gd  Gd34  1  0.56857658  0.52756841  0.56949290  1
  Gd  Gd35  1  0.57080768  0.83439559  0.14872171  1
  N  N36  1  0.22448692  0.21295069  0.38816751  1
  N  N37  1  0.08598799  0.07863389  0.04215934  1
  N  N38  1  0.85057876  0.21668127  0.85965056  1
  N  N39  1  0.77925005  0.09990181  0.61531573  1
  N  N40  1  0.53605810  0.22803862  0.38887131  1
  N  N41  1  0.44072570  0.09294825  0.16920006  1
  N  N42  1  0.25327709  0.22478661  0.88096788  1
  N  N43  1  0.12146282  0.09079196  0.59333173  1
  N  N44  1  0.90583801  0.20892530  0.39645384  1
  N  N45  1  0.79053755  0.07753755  0.09940179  1
  N  N46  1  0.56059322  0.19975806  0.83925495  1
  N  N47  1  0.44494439  0.09866519  0.62114848  1
  N  N48  1  0.21827339  0.55109413  0.32767288  1
  N  N49  1  0.03469825  0.44608252  0.17080966  1
  N  N50  1  0.90250129  0.52113159  0.86507450  1
  N  N51  1  0.81577442  0.41038513  0.64154355  1
  N  N52  1  0.53701137  0.56135437  0.36354050  1
  N  N53  1  0.46209653  0.43185072  0.13314364  1
  N  N54  1  0.22216071  0.54415891  0.81959957  1
  N  N55  1  0.11798416  0.42224524  0.63319427  1
  N  N56  1  0.90323329  0.54458763  0.41359294  1
  N  N57  1  0.76715944  0.42740667  0.08136607  1
  N  N58  1  0.55566045  0.53065158  0.85436803  1
  N  N59  1  0.43634969  0.41306316  0.62830631  1
  N  N60  1  0.22148227  0.88458205  0.34365766  1
  N  N61  1  0.10006108  0.77391649  0.03216540  1
  N  N62  1  0.88626268  0.87688268  0.84207053  1
  N  N63  1  0.77945239  0.76412329  0.59822657  1
  N  N64  1  0.56994701  0.86957756  0.36026437  1
  N  N65  1  0.42434216  0.75670884  0.04034793  1
  N  N66  1  0.23932881  0.84538005  0.80272571  1
  N  N67  1  0.12736215  0.75542306  0.57766698  1
  N  N68  1  0.90431597  0.85569356  0.39910894  1
  N  N69  1  0.79013423  0.75553089  0.03890934  1
  N  N70  1  0.55596856  0.86591951  0.81242930  1
  N  N71  1  0.43613155  0.79106642  0.57239258  1
