# generated using pymatgen
data_Gd2Al7N9
_symmetry_space_group_name_H-M   'P 1'
_cell_length_a   9.90605273
_cell_length_b   9.82035502
_cell_length_c   10.80961951
_cell_angle_alpha   89.70424460
_cell_angle_beta   89.44046169
_cell_angle_gamma   59.69065862
_symmetry_Int_Tables_number   1
_chemical_formula_structural   Gd2Al7N9
_chemical_formula_sum   'Gd8 Al28 N36'
_cell_volume   907.79111595
_cell_formula_units_Z   4
loop_
 _symmetry_equiv_pos_site_id
 _symmetry_equiv_pos_as_xyz
  1  'x, y, z'
loop_
 _atom_site_type_symbol
 _atom_site_label
 _atom_site_symmetry_multiplicity
 _atom_site_fract_x
 _atom_site_fract_y
 _atom_site_fract_z
 _atom_site_occupancy
  Al  Al0  1  0.12524351  0.08301872  0.39543477  1
  Al  Al1  1  0.77024236  0.09746564  0.79329300  1
  Al  Al2  1  0.89586038  0.20316483  0.56779452  1
  Al  Al3  1  0.44247295  0.10212333  0.33680713  1
  Al  Al4  1  0.23147415  0.20793811  0.56564885  1
  Al  Al5  1  0.87431052  0.20686052  0.03907859  1
  Al  Al6  1  0.44429686  0.10244837  0.80002697  1
  Al  Al7  1  0.54732872  0.20616817  0.56653706  1
  Al  Al8  1  0.10151517  0.43868786  0.33419974  1
  Al  Al9  1  0.77633164  0.42582467  0.81766590  1
  Al  Al10  1  0.90501250  0.52629043  0.58572225  1
  Al  Al11  1  0.44162768  0.43798432  0.31619864  1
  Al  Al12  1  0.54783210  0.53695739  0.04411832  1
  Al  Al13  1  0.11763542  0.42775744  0.81218478  1
  Al  Al14  1  0.21945084  0.53917204  0.62064176  1
  Al  Al15  1  0.88257355  0.53752815  0.04221460  1
  Al  Al16  1  0.44285842  0.42266240  0.80531656  1
  Al  Al17  1  0.12384254  0.75093217  0.39158097  1
  Al  Al18  1  0.20879084  0.87895004  0.11889628  1
  Al  Al19  1  0.77793162  0.76228350  0.85732731  1
  Al  Al20  1  0.89503021  0.87199990  0.57810933  1
  Al  Al21  1  0.43634759  0.77531435  0.39168291  1
  Al  Al22  1  0.12034929  0.76036812  0.86763871  1
  Al  Al23  1  0.23141364  0.86206291  0.62814512  1
  Al  Al24  1  0.77794279  0.75831820  0.41786486  1
  Al  Al25  1  0.88749503  0.88666635  0.02951304  1
  Al  Al26  1  0.43849002  0.76324014  0.87193676  1
  Al  Al27  1  0.55509490  0.87193628  0.63325194  1
  Gd  Gd28  1  0.20978617  0.21038468  0.08693419  1
  Gd  Gd29  1  0.55383434  0.20269766  0.05059524  1
  Gd  Gd30  1  0.10598969  0.10413833  0.82714104  1
  Gd  Gd31  1  0.78327954  0.08453627  0.31739306  1
  Gd  Gd32  1  0.20089319  0.55011415  0.10709870  1
  Gd  Gd33  1  0.79393032  0.43467986  0.29629203  1
  Gd  Gd34  1  0.56570678  0.53033871  0.58041934  1
  Gd  Gd35  1  0.57375264  0.83804493  0.14337775  1
  N  N36  1  0.22405081  0.20947673  0.38555825  1
  N  N37  1  0.09072029  0.08414373  0.05740927  1
  N  N38  1  0.84922348  0.21655458  0.86561086  1
  N  N39  1  0.77792711  0.09811874  0.61337806  1
  N  N40  1  0.53018377  0.22601191  0.39002848  1
  N  N41  1  0.44879899  0.09281965  0.16336050  1
  N  N42  1  0.24575356  0.22205978  0.87539262  1
  N  N43  1  0.12169796  0.08514350  0.58861741  1
  N  N44  1  0.90865081  0.20132880  0.39185193  1
  N  N45  1  0.79769589  0.08190738  0.10697695  1
  N  N46  1  0.55750567  0.20053375  0.84003369  1
  N  N47  1  0.44250982  0.09712670  0.62103658  1
  N  N48  1  0.21997835  0.54269796  0.33396089  1
  N  N49  1  0.03950025  0.45056457  0.16283919  1
  N  N50  1  0.90083518  0.52431659  0.86266051  1
  N  N51  1  0.81802906  0.40428302  0.64194401  1
  N  N52  1  0.53979958  0.55225363  0.37002934  1
  N  N53  1  0.46232909  0.43720048  0.13654108  1
  N  N54  1  0.22145081  0.54085317  0.84245363  1
  N  N55  1  0.11853578  0.42089822  0.63200838  1
  N  N56  1  0.90491962  0.53954109  0.41145989  1
  N  N57  1  0.76451003  0.43735549  0.07942495  1
  N  N58  1  0.55262279  0.53381504  0.85413724  1
  N  N59  1  0.43224249  0.41341798  0.63039687  1
  N  N60  1  0.22233837  0.87540548  0.31974191  1
  N  N61  1  0.10086324  0.78976402  0.04641501  1
  N  N62  1  0.89067516  0.87875757  0.84283140  1
  N  N63  1  0.77762197  0.76066301  0.60128062  1
  N  N64  1  0.56875142  0.86532671  0.35775446  1
  N  N65  1  0.41754693  0.76190276  0.04959947  1
  N  N66  1  0.23970353  0.84252702  0.80106318  1
  N  N67  1  0.12665580  0.75363444  0.57450763  1
  N  N68  1  0.90322357  0.84851554  0.39766329  1
  N  N69  1  0.79585242  0.76004061  0.03876954  1
  N  N70  1  0.55338807  0.86744089  0.81627581  1
  N  N71  1  0.43168893  0.79322251  0.56780363  1
