# generated using pymatgen
data_Gd2Al7N9
_symmetry_space_group_name_H-M   'P 1'
_cell_length_a   9.75220388
_cell_length_b   9.81509369
_cell_length_c   10.97789598
_cell_angle_alpha   89.37913106
_cell_angle_beta   88.99292577
_cell_angle_gamma   60.01618833
_symmetry_Int_Tables_number   1
_chemical_formula_structural   Gd2Al7N9
_chemical_formula_sum   'Gd8 Al28 N36'
_cell_volume   910.01693927
_cell_formula_units_Z   4
loop_
 _symmetry_equiv_pos_site_id
 _symmetry_equiv_pos_as_xyz
  1  'x, y, z'
loop_
 _atom_site_type_symbol
 _atom_site_label
 _atom_site_symmetry_multiplicity
 _atom_site_fract_x
 _atom_site_fract_y
 _atom_site_fract_z
 _atom_site_occupancy
  Al  Al0  1  0.13000435  0.08792413  0.42841193  1
  Al  Al1  1  0.77015542  0.09602925  0.81498595  1
  Al  Al2  1  0.89840120  0.20288051  0.59254952  1
  Al  Al3  1  0.44567603  0.09654593  0.42317443  1
  Al  Al4  1  0.23411743  0.20763292  0.64935308  1
  Al  Al5  1  0.87194853  0.20458826  0.06284429  1
  Al  Al6  1  0.44624724  0.08741327  0.88295594  1
  Al  Al7  1  0.55649804  0.20949550  0.58641774  1
  Al  Al8  1  0.11742000  0.43255996  0.43196444  1
  Al  Al9  1  0.76854691  0.41754338  0.83329601  1
  Al  Al10  1  0.89954353  0.53386301  0.66452066  1
  Al  Al11  1  0.43844713  0.44351576  0.33967350  1
  Al  Al12  1  0.53582693  0.54252733  0.07170796  1
  Al  Al13  1  0.12714069  0.42079209  0.88464202  1
  Al  Al14  1  0.21524789  0.54216482  0.65511755  1
  Al  Al15  1  0.88001548  0.52908410  0.03723144  1
  Al  Al16  1  0.44361552  0.41789454  0.81987327  1
  Al  Al17  1  0.13079920  0.75333362  0.42637124  1
  Al  Al18  1  0.21052301  0.87278508  0.14181639  1
  Al  Al19  1  0.77484527  0.76693534  0.87468789  1
  Al  Al20  1  0.89499075  0.87237381  0.59721520  1
  Al  Al21  1  0.43652031  0.78371507  0.40861083  1
  Al  Al22  1  0.12457716  0.75104633  0.88723019  1
  Al  Al23  1  0.23023785  0.86889219  0.65323426  1
  Al  Al24  1  0.78656117  0.75137065  0.42834363  1
  Al  Al25  1  0.88540006  0.88632764  0.04382360  1
  Al  Al26  1  0.44383330  0.75490485  0.89286483  1
  Al  Al27  1  0.55370499  0.87880125  0.65225169  1
  Gd  Gd28  1  0.20665475  0.20427424  0.16631288  1
  Gd  Gd29  1  0.54288739  0.22789436  0.07050334  1
  Gd  Gd30  1  0.11996242  0.08623525  0.88053981  1
  Gd  Gd31  1  0.79359437  0.08177393  0.33620070  1
  Gd  Gd32  1  0.14910064  0.57576581  0.17322535  1
  Gd  Gd33  1  0.78922433  0.43262919  0.31577559  1
  Gd  Gd34  1  0.56068803  0.53761902  0.59193312  1
  Gd  Gd35  1  0.57244530  0.85215175  0.15280961  1
  N  N36  1  0.22747248  0.20810658  0.38227474  1
  N  N37  1  0.08978091  0.08530586  0.09206336  1
  N  N38  1  0.85462462  0.21176185  0.88925013  1
  N  N39  1  0.78048472  0.09582003  0.63882350  1
  N  N40  1  0.53881960  0.22935035  0.40594657  1
  N  N41  1  0.43228076  0.08091339  0.06073108  1
  N  N42  1  0.24178180  0.21748975  0.82092021  1
  N  N43  1  0.12400277  0.08857020  0.61328240  1
  N  N44  1  0.91045619  0.20395048  0.41936934  1
  N  N45  1  0.79092478  0.07722832  0.12621899  1
  N  N46  1  0.55488891  0.20125414  0.86447172  1
  N  N47  1  0.45315564  0.09048580  0.59850441  1
  N  N48  1  0.22253073  0.54311760  0.37912103  1
  N  N49  1  0.09650874  0.41950183  0.05414825  1
  N  N50  1  0.88732597  0.53595217  0.85151646  1
  N  N51  1  0.80890843  0.40469576  0.66193985  1
  N  N52  1  0.53766547  0.56176139  0.38723520  1
  N  N53  1  0.42621199  0.46241403  0.16370399  1
  N  N54  1  0.21508908  0.54254790  0.83475038  1
  N  N55  1  0.11157476  0.43064153  0.60672560  1
  N  N56  1  0.91461225  0.55163331  0.36585090  1
  N  N57  1  0.76544345  0.43239907  0.09986574  1
  N  N58  1  0.54950467  0.52741693  0.88318309  1
  N  N59  1  0.43618129  0.41188033  0.64947841  1
  N  N60  1  0.22124930  0.87940376  0.34356066  1
  N  N61  1  0.10419197  0.78284212  0.06305790  1
  N  N62  1  0.88954511  0.87947732  0.86408806  1
  N  N63  1  0.77961002  0.75288057  0.61307974  1
  N  N64  1  0.56729703  0.87822936  0.36660460  1
  N  N65  1  0.42136478  0.76295459  0.06986679  1
  N  N66  1  0.24565257  0.83540347  0.82244041  1
  N  N67  1  0.12639048  0.75818671  0.60256327  1
  N  N68  1  0.90712846  0.85141119  0.42167715  1
  N  N69  1  0.80329301  0.74564606  0.05263794  1
  N  N70  1  0.55317187  0.86690744  0.83138833  1
  N  N71  1  0.43077550  0.79944894  0.58408208  1
