# generated using pymatgen
data_Gd2Al7N9
_symmetry_space_group_name_H-M   'P 1'
_cell_length_a   9.95427926
_cell_length_b   9.87860369
_cell_length_c   10.49717131
_cell_angle_alpha   89.19277354
_cell_angle_beta   88.72607638
_cell_angle_gamma   60.05184047
_symmetry_Int_Tables_number   1
_chemical_formula_structural   Gd2Al7N9
_chemical_formula_sum   'Gd8 Al28 N36'
_cell_volume   894.18006961
_cell_formula_units_Z   4
loop_
 _symmetry_equiv_pos_site_id
 _symmetry_equiv_pos_as_xyz
  1  'x, y, z'
loop_
 _atom_site_type_symbol
 _atom_site_label
 _atom_site_symmetry_multiplicity
 _atom_site_fract_x
 _atom_site_fract_y
 _atom_site_fract_z
 _atom_site_occupancy
  Al  Al0  1  0.12320314  0.09205017  0.38677404  1
  Al  Al1  1  0.77085801  0.09284069  0.78498609  1
  Al  Al2  1  0.89334139  0.20984119  0.55957219  1
  Al  Al3  1  0.44451069  0.10154804  0.32315902  1
  Al  Al4  1  0.23109875  0.21324798  0.55627115  1
  Al  Al5  1  0.87495550  0.20264934  0.02558906  1
  Al  Al6  1  0.44790793  0.09098805  0.78863619  1
  Al  Al7  1  0.54577692  0.20883495  0.55840720  1
  Al  Al8  1  0.10700856  0.43617530  0.32015360  1
  Al  Al9  1  0.77987902  0.42838880  0.80983443  1
  Al  Al10  1  0.90040928  0.54003587  0.56395826  1
  Al  Al11  1  0.44130481  0.43839572  0.31084950  1
  Al  Al12  1  0.55277371  0.52789042  0.03219283  1
  Al  Al13  1  0.11799085  0.43167058  0.79416028  1
  Al  Al14  1  0.21850708  0.53925162  0.54560260  1
  Al  Al15  1  0.88903116  0.54126933  0.04177822  1
  Al  Al16  1  0.43167157  0.42168696  0.78855549  1
  Al  Al17  1  0.11597598  0.76689174  0.30838047  1
  Al  Al18  1  0.20218950  0.86643218  0.03109924  1
  Al  Al19  1  0.77665009  0.76372185  0.80037643  1
  Al  Al20  1  0.89464568  0.86446945  0.55412644  1
  Al  Al21  1  0.44021691  0.77052714  0.38259336  1
  Al  Al22  1  0.10905415  0.75084833  0.78975053  1
  Al  Al23  1  0.21960616  0.86843842  0.56869997  1
  Al  Al24  1  0.80125425  0.75440490  0.31120210  1
  Al  Al25  1  0.89547304  0.87183496  0.04863990  1
  Al  Al26  1  0.44088338  0.75544418  0.85201082  1
  Al  Al27  1  0.56480900  0.87791578  0.55507649  1
  Gd  Gd28  1  0.21022160  0.20062807  0.07429688  1
  Gd  Gd29  1  0.55647717  0.20058918  0.03960871  1
  Gd  Gd30  1  0.10560496  0.10149492  0.80652128  1
  Gd  Gd31  1  0.78234032  0.09459367  0.31297236  1
  Gd  Gd32  1  0.21436025  0.54261462  0.06806622  1
  Gd  Gd33  1  0.78579496  0.44128165  0.28767673  1
  Gd  Gd34  1  0.56423388  0.53387506  0.58297511  1
  Gd  Gd35  1  0.55871370  0.85124686  0.08190369  1
  N  N36  1  0.22578401  0.21114231  0.37085080  1
  N  N37  1  0.08723686  0.07937967  0.03720146  1
  N  N38  1  0.84736315  0.21769552  0.84796690  1
  N  N39  1  0.78069544  0.09325503  0.59805103  1
  N  N40  1  0.52903283  0.22652741  0.37677071  1
  N  N41  1  0.44737495  0.09002196  0.14771133  1
  N  N42  1  0.24250071  0.22275565  0.85399768  1
  N  N43  1  0.11826567  0.09355289  0.57977616  1
  N  N44  1  0.91056700  0.20928717  0.37889072  1
  N  N45  1  0.79582435  0.08224049  0.09833926  1
  N  N46  1  0.55496907  0.19982214  0.82181492  1
  N  N47  1  0.44577085  0.09153128  0.60475501  1
  N  N48  1  0.22222056  0.54389534  0.35579804  1
  N  N49  1  0.06596109  0.43988568  0.14370508  1
  N  N50  1  0.89620611  0.54082200  0.85710687  1
  N  N51  1  0.82016835  0.41213821  0.62723488  1
  N  N52  1  0.53834779  0.55309678  0.36288760  1
  N  N53  1  0.46380655  0.43186650  0.12849979  1
  N  N54  1  0.21914107  0.53983744  0.84786795  1
  N  N55  1  0.11563199  0.42956739  0.60943028  1
  N  N56  1  0.90208642  0.55374409  0.38575359  1
  N  N57  1  0.77023600  0.43367314  0.06520178  1
  N  N58  1  0.55347011  0.52885116  0.83432479  1
  N  N59  1  0.42094687  0.41957192  0.61011017  1
  N  N60  1  0.22025008  0.87343378  0.37076103  1
  N  N61  1  0.09419269  0.78830661  0.12436738  1
  N  N62  1  0.88929683  0.87024764  0.85547354  1
  N  N63  1  0.77915485  0.76339787  0.61658767  1
  N  N64  1  0.57164315  0.87049353  0.36272666  1
  N  N65  1  0.41651760  0.74182649  0.03850009  1
  N  N66  1  0.22649808  0.84358899  0.83004492  1
  N  N67  1  0.10948375  0.75618818  0.60658139  1
  N  N68  1  0.90999517  0.84775504  0.37499048  1
  N  N69  1  0.81252638  0.74504502  0.12057950  1
  N  N70  1  0.55532914  0.87268967  0.84986562  1
  N  N71  1  0.43406751  0.79177580  0.57097066  1
