# generated using pymatgen
data_Gd2Al7N9
_symmetry_space_group_name_H-M   'P 1'
_cell_length_a   9.89707575
_cell_length_b   9.86552949
_cell_length_c   10.48098265
_cell_angle_alpha   89.32565707
_cell_angle_beta   89.00691799
_cell_angle_gamma   60.19823884
_symmetry_Int_Tables_number   1
_chemical_formula_structural   Gd2Al7N9
_chemical_formula_sum   'Gd8 Al28 N36'
_cell_volume   887.88331754
_cell_formula_units_Z   4
loop_
 _symmetry_equiv_pos_site_id
 _symmetry_equiv_pos_as_xyz
  1  'x, y, z'
loop_
 _atom_site_type_symbol
 _atom_site_label
 _atom_site_symmetry_multiplicity
 _atom_site_fract_x
 _atom_site_fract_y
 _atom_site_fract_z
 _atom_site_occupancy
  Al  Al0  1  0.12202419  0.09329785  0.38442919  1
  Al  Al1  1  0.77082954  0.09246598  0.78554513  1
  Al  Al2  1  0.89294863  0.20875599  0.56066032  1
  Al  Al3  1  0.44349825  0.09887740  0.32376880  1
  Al  Al4  1  0.22874892  0.21379198  0.55626133  1
  Al  Al5  1  0.87763687  0.20276445  0.02618049  1
  Al  Al6  1  0.44618766  0.09335255  0.78442058  1
  Al  Al7  1  0.54641092  0.20839921  0.55772829  1
  Al  Al8  1  0.10623333  0.43695361  0.32015665  1
  Al  Al9  1  0.77797495  0.42905565  0.81165038  1
  Al  Al10  1  0.89870976  0.53953297  0.56298012  1
  Al  Al11  1  0.43971946  0.43683555  0.30975108  1
  Al  Al12  1  0.54868564  0.54122922  0.03860376  1
  Al  Al13  1  0.11609263  0.43007367  0.79280524  1
  Al  Al14  1  0.21884136  0.54001359  0.54778529  1
  Al  Al15  1  0.88864192  0.54216962  0.04220907  1
  Al  Al16  1  0.43320725  0.42442579  0.78918216  1
  Al  Al17  1  0.11354317  0.76551572  0.30942860  1
  Al  Al18  1  0.21382272  0.86399299  0.04389895  1
  Al  Al19  1  0.77894256  0.76207219  0.79691389  1
  Al  Al20  1  0.89441587  0.86429019  0.55584117  1
  Al  Al21  1  0.43581209  0.76404168  0.30658753  1
  Al  Al22  1  0.11339643  0.74920451  0.79504032  1
  Al  Al23  1  0.22631742  0.86473420  0.55628214  1
  Al  Al24  1  0.79592306  0.75449983  0.31232978  1
  Al  Al25  1  0.89720986  0.87251522  0.05002337  1
  Al  Al26  1  0.44158974  0.76038480  0.80084870  1
  Al  Al27  1  0.55686425  0.87451147  0.55549413  1
  Gd  Gd28  1  0.21247516  0.20291452  0.07163357  1
  Gd  Gd29  1  0.55648104  0.20567454  0.03969417  1
  Gd  Gd30  1  0.11094115  0.08754586  0.80855632  1
  Gd  Gd31  1  0.78167228  0.09213888  0.31256412  1
  Gd  Gd32  1  0.21223835  0.54539842  0.06658874  1
  Gd  Gd33  1  0.78715276  0.43785927  0.28509185  1
  Gd  Gd34  1  0.56276319  0.53783350  0.56958543  1
  Gd  Gd35  1  0.56362774  0.86090339  0.06061926  1
  N  N36  1  0.22380020  0.21262019  0.36977407  1
  N  N37  1  0.09010669  0.07916971  0.04313378  1
  N  N38  1  0.85079311  0.21598226  0.84756201  1
  N  N39  1  0.78032238  0.09197008  0.59886828  1
  N  N40  1  0.52841404  0.22628459  0.37615672  1
  N  N41  1  0.45090658  0.09018287  0.14751584  1
  N  N42  1  0.23937577  0.21945176  0.84907375  1
  N  N43  1  0.11908516  0.09089766  0.57875484  1
  N  N44  1  0.90863882  0.20827896  0.37935996  1
  N  N45  1  0.79668635  0.08305432  0.09788929  1
  N  N46  1  0.55401487  0.20114535  0.82175973  1
  N  N47  1  0.44467392  0.09165939  0.60133991  1
  N  N48  1  0.22143645  0.54443961  0.35805954  1
  N  N49  1  0.06706975  0.44075351  0.14321492  1
  N  N50  1  0.89517771  0.54219872  0.85711826  1
  N  N51  1  0.81639780  0.41263556  0.62753449  1
  N  N52  1  0.53676511  0.55341637  0.35829315  1
  N  N53  1  0.46127269  0.43590458  0.12739458  1
  N  N54  1  0.21952287  0.53620089  0.84649852  1
  N  N55  1  0.11462406  0.43022818  0.60842699  1
  N  N56  1  0.90030227  0.55267626  0.38481337  1
  N  N57  1  0.77156360  0.43285098  0.06395273  1
  N  N58  1  0.54976533  0.53757262  0.84356695  1
  N  N59  1  0.42417326  0.42015124  0.61027266  1
  N  N60  1  0.22464462  0.87131528  0.37036056  1
  N  N61  1  0.09484281  0.78915681  0.12762590  1
  N  N62  1  0.89011894  0.86975823  0.85602344  1
  N  N63  1  0.77812013  0.76198337  0.61458521  1
  N  N64  1  0.56266811  0.86654076  0.36518456  1
  N  N65  1  0.42248743  0.74972299  0.11099410  1
  N  N66  1  0.23602821  0.83007081  0.86085270  1
  N  N67  1  0.11261733  0.75900254  0.61011845  1
  N  N68  1  0.90855518  0.84621885  0.37699727  1
  N  N69  1  0.81204019  0.74585000  0.12253464  1
  N  N70  1  0.55422942  0.87384977  0.84155397  1
  N  N71  1  0.42846622  0.79168516  0.61984493  1
