# generated using pymatgen
data_Gd2Al7N9
_symmetry_space_group_name_H-M   'P 1'
_cell_length_a   9.74304438
_cell_length_b   9.81122958
_cell_length_c   10.98264496
_cell_angle_alpha   89.29405797
_cell_angle_beta   88.80403339
_cell_angle_gamma   59.98060125
_symmetry_Int_Tables_number   1
_chemical_formula_structural   Gd2Al7N9
_chemical_formula_sum   'Gd8 Al28 N36'
_cell_volume   908.81424698
_cell_formula_units_Z   4
loop_
 _symmetry_equiv_pos_site_id
 _symmetry_equiv_pos_as_xyz
  1  'x, y, z'
loop_
 _atom_site_type_symbol
 _atom_site_label
 _atom_site_symmetry_multiplicity
 _atom_site_fract_x
 _atom_site_fract_y
 _atom_site_fract_z
 _atom_site_occupancy
  Al  Al0  1  0.13129902  0.08823402  0.42906716  1
  Al  Al1  1  0.77006189  0.09576367  0.81522803  1
  Al  Al2  1  0.89912722  0.20280295  0.59301143  1
  Al  Al3  1  0.44763081  0.09618836  0.42284324  1
  Al  Al4  1  0.23459150  0.20742068  0.64932328  1
  Al  Al5  1  0.86980365  0.20467133  0.06254084  1
  Al  Al6  1  0.44613397  0.08722650  0.88253563  1
  Al  Al7  1  0.55735083  0.20905847  0.58622265  1
  Al  Al8  1  0.11951014  0.43223013  0.43200076  1
  Al  Al9  1  0.76776106  0.41735090  0.83354458  1
  Al  Al10  1  0.89976743  0.53372617  0.66584410  1
  Al  Al11  1  0.43929789  0.44401395  0.33881948  1
  Al  Al12  1  0.53335563  0.54281852  0.07221889  1
  Al  Al13  1  0.12735439  0.42073299  0.88522800  1
  Al  Al14  1  0.21532935  0.54216394  0.65456692  1
  Al  Al15  1  0.87890181  0.52870059  0.03701310  1
  Al  Al16  1  0.44322818  0.41792815  0.81971404  1
  Al  Al17  1  0.13285434  0.75391959  0.42726287  1
  Al  Al18  1  0.20948514  0.87200172  0.14189837  1
  Al  Al19  1  0.77428360  0.76700653  0.87555747  1
  Al  Al20  1  0.89535912  0.87219812  0.59660480  1
  Al  Al21  1  0.43804031  0.78374766  0.40866732  1
  Al  Al22  1  0.12414731  0.75056707  0.88820394  1
  Al  Al23  1  0.23059117  0.86868388  0.65390722  1
  Al  Al24  1  0.78958256  0.75057830  0.42613348  1
  Al  Al25  1  0.88356743  0.88692592  0.04408867  1
  Al  Al26  1  0.44359890  0.75449840  0.89274671  1
  Al  Al27  1  0.55482861  0.87772422  0.65152766  1
  Gd  Gd28  1  0.20482435  0.20422887  0.16678426  1
  Gd  Gd29  1  0.53916156  0.22915189  0.07119828  1
  Gd  Gd30  1  0.12043100  0.08610531  0.88189208  1
  Gd  Gd31  1  0.79550897  0.08265819  0.33563432  1
  Gd  Gd32  1  0.14101663  0.57833410  0.17769767  1
  Gd  Gd33  1  0.79189973  0.43322467  0.31442020  1
  Gd  Gd34  1  0.56185354  0.53611842  0.59037109  1
  Gd  Gd35  1  0.57064129  0.85231802  0.15284438  1
  N  N36  1  0.22936299  0.20790755  0.38224655  1
  N  N37  1  0.08747560  0.08521115  0.09326148  1
  N  N38  1  0.85488998  0.21122425  0.88901404  1
  N  N39  1  0.78103565  0.09545359  0.63897094  1
  N  N40  1  0.54065997  0.22924401  0.40580727  1
  N  N41  1  0.42993209  0.08069288  0.06015777  1
  N  N42  1  0.24166822  0.21770078  0.82064245  1
  N  N43  1  0.12486142  0.08830962  0.61335708  1
  N  N44  1  0.91140288  0.20568349  0.41976971  1
  N  N45  1  0.78775249  0.07818675  0.12595187  1
  N  N46  1  0.55450606  0.20142941  0.86502179  1
  N  N47  1  0.45413548  0.08980697  0.59818577  1
  N  N48  1  0.22484768  0.54331705  0.38185131  1
  N  N49  1  0.09566162  0.41970934  0.05460426  1
  N  N50  1  0.88684672  0.53600167  0.85186542  1
  N  N51  1  0.80896069  0.40474662  0.66241050  1
  N  N52  1  0.54005712  0.56188830  0.38550036  1
  N  N53  1  0.42229248  0.46396964  0.16403053  1
  N  N54  1  0.21451200  0.54270857  0.83421509  1
  N  N55  1  0.11129839  0.43056337  0.60634950  1
  N  N56  1  0.92035092  0.55272344  0.35841827  1
  N  N57  1  0.76371330  0.43223295  0.09967204  1
  N  N58  1  0.54867643  0.52717847  0.88348217  1
  N  N59  1  0.43660841  0.41144407  0.64943459  1
  N  N60  1  0.22255082  0.87989774  0.34418076  1
  N  N61  1  0.10243107  0.78206697  0.06439989  1
  N  N62  1  0.88894994  0.87935228  0.86471740  1
  N  N63  1  0.78088766  0.75141954  0.61114681  1
  N  N64  1  0.56929737  0.87767592  0.36632369  1
  N  N65  1  0.41997743  0.76318900  0.06950987  1
  N  N66  1  0.24501348  0.83556444  0.82306271  1
  N  N67  1  0.12641525  0.75871058  0.60309056  1
  N  N68  1  0.90892562  0.85194865  0.42092593  1
  N  N69  1  0.80207022  0.74541234  0.05310490  1
  N  N70  1  0.55336789  0.86649765  0.83084324  1
  N  N71  1  0.43172705  0.79818298  0.58420273  1
