# generated using pymatgen
data_Gd2Al7N9
_symmetry_space_group_name_H-M   'P 1'
_cell_length_a   9.77459390
_cell_length_b   9.73995231
_cell_length_c   11.24695629
_cell_angle_alpha   89.03163787
_cell_angle_beta   87.96267432
_cell_angle_gamma   60.09137221
_symmetry_Int_Tables_number   1
_chemical_formula_structural   Gd2Al7N9
_chemical_formula_sum   'Gd8 Al28 N36'
_cell_volume   927.56747671
_cell_formula_units_Z   4
loop_
 _symmetry_equiv_pos_site_id
 _symmetry_equiv_pos_as_xyz
  1  'x, y, z'
loop_
 _atom_site_type_symbol
 _atom_site_label
 _atom_site_symmetry_multiplicity
 _atom_site_fract_x
 _atom_site_fract_y
 _atom_site_fract_z
 _atom_site_occupancy
  Al  Al0  1  0.13673083  0.08365599  0.42845509  1
  Al  Al1  1  0.76401410  0.09916824  0.79421210  1
  Al  Al2  1  0.89746459  0.20551374  0.57394431  1
  Al  Al3  1  0.45529947  0.09931914  0.34261235  1
  Al  Al4  1  0.24016600  0.20175393  0.60985612  1
  Al  Al5  1  0.86084939  0.21040933  0.03028915  1
  Al  Al6  1  0.45261833  0.09725439  0.78474086  1
  Al  Al7  1  0.55961519  0.20151740  0.55783864  1
  Al  Al8  1  0.13410808  0.43152281  0.42162994  1
  Al  Al9  1  0.76888704  0.42669368  0.80874017  1
  Al  Al10  1  0.89528139  0.53707942  0.57959309  1
  Al  Al11  1  0.45070960  0.44054458  0.31333445  1
  Al  Al12  1  0.53909902  0.53335812  0.04110289  1
  Al  Al13  1  0.10334607  0.43552393  0.79324128  1
  Al  Al14  1  0.22473732  0.54790882  0.63248272  1
  Al  Al15  1  0.88194347  0.52778193  0.02683550  1
  Al  Al16  1  0.44334817  0.41735386  0.79785782  1
  Al  Al17  1  0.13786638  0.75955794  0.41016407  1
  Al  Al18  1  0.20374937  0.87230980  0.05595013  1
  Al  Al19  1  0.76788503  0.76389400  0.85944247  1
  Al  Al20  1  0.89668974  0.87780973  0.57690814  1
  Al  Al21  1  0.44394333  0.78220881  0.40053294  1
  Al  Al22  1  0.11147930  0.75253607  0.85834343  1
  Al  Al23  1  0.23529759  0.86269422  0.63625895  1
  Al  Al24  1  0.78659493  0.76464569  0.41631489  1
  Al  Al25  1  0.87481936  0.88649649  0.02013649  1
  Al  Al26  1  0.44346757  0.75461068  0.86374329  1
  Al  Al27  1  0.56536902  0.86398960  0.63157092  1
  Gd  Gd28  1  0.17263642  0.18804068  0.18280408  1
  Gd  Gd29  1  0.52776564  0.20928851  0.05397102  1
  Gd  Gd30  1  0.10610593  0.10214386  0.83941039  1
  Gd  Gd31  1  0.80582341  0.08436543  0.30627841  1
  Gd  Gd32  1  0.16628294  0.57068775  0.15789200  1
  Gd  Gd33  1  0.80642916  0.44227985  0.29227045  1
  Gd  Gd34  1  0.57390961  0.51984142  0.56159309  1
  Gd  Gd35  1  0.56238573  0.83448827  0.14859543  1
  N  N36  1  0.23860203  0.20558103  0.40115876  1
  N  N37  1  0.08590114  0.08698282  0.04589678  1
  N  N38  1  0.84312797  0.21964222  0.86155088  1
  N  N39  1  0.77978616  0.10049709  0.61846226  1
  N  N40  1  0.55036309  0.22377392  0.38450374  1
  N  N41  1  0.42936598  0.09453457  0.17159058  1
  N  N42  1  0.23652976  0.22269170  0.78880511  1
  N  N43  1  0.12129586  0.08623610  0.60076920  1
  N  N44  1  0.91799742  0.21053650  0.39804928  1
  N  N45  1  0.78379467  0.08174398  0.09917199  1
  N  N46  1  0.54861467  0.20077051  0.84710395  1
  N  N47  1  0.46601256  0.08443929  0.61226439  1
  N  N48  1  0.23171320  0.54475121  0.36073195  1
  N  N49  1  0.05051857  0.43252538  0.12571225  1
  N  N50  1  0.89094788  0.52824269  0.85280222  1
  N  N51  1  0.81463133  0.41034645  0.64064632  1
  N  N52  1  0.54952889  0.55951018  0.35952879  1
  N  N53  1  0.43949736  0.44590254  0.13918468  1
  N  N54  1  0.21308055  0.54397585  0.80662471  1
  N  N55  1  0.11657141  0.43580500  0.60124518  1
  N  N56  1  0.91189246  0.54451610  0.40849779  1
  N  N57  1  0.75688245  0.43392779  0.07913599  1
  N  N58  1  0.54806662  0.52776837  0.85601214  1
  N  N59  1  0.44168138  0.40592325  0.62809014  1
  N  N60  1  0.23082591  0.88460620  0.35521400  1
  N  N61  1  0.09384979  0.77225063  0.02917724  1
  N  N62  1  0.88044761  0.88050877  0.84216294  1
  N  N63  1  0.78273487  0.76280829  0.59272111  1
  N  N64  1  0.58030420  0.86663127  0.35686537  1
  N  N65  1  0.41925689  0.75948848  0.03599460  1
  N  N66  1  0.23871712  0.83952315  0.80463114  1
  N  N67  1  0.12608652  0.76110111  0.58298377  1
  N  N68  1  0.91371365  0.85744821  0.40036544  1
  N  N69  1  0.77977395  0.75820262  0.03391233  1
  N  N70  1  0.55313531  0.86424487  0.80703555  1
  N  N71  1  0.44178411  0.78300504  0.57277948  1
