# generated using pymatgen
data_Gd2Al7N9
_symmetry_space_group_name_H-M   'P 1'
_cell_length_a   9.75848445
_cell_length_b   9.82790390
_cell_length_c   10.86430438
_cell_angle_alpha   90.48698372
_cell_angle_beta   89.05227773
_cell_angle_gamma   60.01875508
_symmetry_Int_Tables_number   1
_chemical_formula_structural   Gd2Al7N9
_chemical_formula_sum   'Gd8 Al28 N36'
_cell_volume   902.22962254
_cell_formula_units_Z   4
loop_
 _symmetry_equiv_pos_site_id
 _symmetry_equiv_pos_as_xyz
  1  'x, y, z'
loop_
 _atom_site_type_symbol
 _atom_site_label
 _atom_site_symmetry_multiplicity
 _atom_site_fract_x
 _atom_site_fract_y
 _atom_site_fract_z
 _atom_site_occupancy
  Al  Al0  1  0.13148121  0.08171573  0.42919874  1
  Al  Al1  1  0.78430699  0.09467537  0.82597949  1
  Al  Al2  1  0.90081271  0.19787277  0.59476323  1
  Al  Al3  1  0.45497320  0.09641382  0.41652016  1
  Al  Al4  1  0.23395288  0.20388295  0.64511161  1
  Al  Al5  1  0.86788060  0.21366438  0.06346156  1
  Al  Al6  1  0.44667798  0.08960255  0.88392157  1
  Al  Al7  1  0.55769622  0.19215910  0.65999881  1
  Al  Al8  1  0.12397764  0.42502584  0.43431389  1
  Al  Al9  1  0.77148155  0.41822006  0.83295039  1
  Al  Al10  1  0.90028972  0.53090539  0.66449000  1
  Al  Al11  1  0.43415325  0.44331636  0.32471062  1
  Al  Al12  1  0.52668590  0.55288080  0.07124888  1
  Al  Al13  1  0.12716606  0.42345785  0.88718966  1
  Al  Al14  1  0.21660727  0.53834549  0.65514386  1
  Al  Al15  1  0.87358494  0.53606125  0.03835374  1
  Al  Al16  1  0.43944821  0.42861269  0.82714440  1
  Al  Al17  1  0.13302864  0.75003633  0.42936228  1
  Al  Al18  1  0.20689560  0.87717420  0.15037058  1
  Al  Al19  1  0.77359966  0.76729836  0.87321894  1
  Al  Al20  1  0.89919027  0.86568807  0.62163662  1
  Al  Al21  1  0.44268547  0.77504329  0.40712196  1
  Al  Al22  1  0.12829395  0.75193981  0.89161423  1
  Al  Al23  1  0.23190050  0.86759791  0.65533845  1
  Al  Al24  1  0.79724737  0.74437469  0.42257688  1
  Al  Al25  1  0.88117530  0.89308646  0.04073219  1
  Al  Al26  1  0.44608052  0.75732486  0.89110947  1
  Al  Al27  1  0.55754306  0.87270973  0.64617681  1
  Gd  Gd28  1  0.20020010  0.21959218  0.17593762  1
  Gd  Gd29  1  0.52533753  0.23619067  0.09677665  1
  Gd  Gd30  1  0.13595547  0.08433772  0.89719655  1
  Gd  Gd31  1  0.79871612  0.07506792  0.32765874  1
  Gd  Gd32  1  0.11435746  0.60129701  0.18728887  1
  Gd  Gd33  1  0.79503832  0.42459100  0.31439569  1
  Gd  Gd34  1  0.56171460  0.52634240  0.58720336  1
  Gd  Gd35  1  0.56444477  0.86444405  0.15269856  1
  N  N36  1  0.23146183  0.19963182  0.39212305  1
  N  N37  1  0.08148966  0.09643236  0.11051130  1
  N  N38  1  0.86987031  0.21225624  0.88867239  1
  N  N39  1  0.78614970  0.09037907  0.64695414  1
  N  N40  1  0.52789338  0.21530870  0.32693037  1
  N  N41  1  0.41582186  0.08934220  0.05581105  1
  N  N42  1  0.24447064  0.21958650  0.81850148  1
  N  N43  1  0.12623481  0.08352222  0.61366165  1
  N  N44  1  0.91078738  0.19869570  0.42102897  1
  N  N45  1  0.78366639  0.08902169  0.11356703  1
  N  N46  1  0.55896037  0.19968558  0.85139407  1
  N  N47  1  0.46085811  0.08722070  0.59579483  1
  N  N48  1  0.22898980  0.53556001  0.38683204  1
  N  N49  1  0.08883786  0.42986199  0.05784429  1
  N  N50  1  0.88641654  0.53819737  0.85145656  1
  N  N51  1  0.80766657  0.40409327  0.65995228  1
  N  N52  1  0.54164975  0.55218911  0.38112270  1
  N  N53  1  0.40038875  0.48867028  0.15276641  1
  N  N54  1  0.21415896  0.54499326  0.83716372  1
  N  N55  1  0.11167420  0.42785653  0.60880936  1
  N  N56  1  0.92753245  0.54089998  0.35729489  1
  N  N57  1  0.75680950  0.44150072  0.09882987  1
  N  N58  1  0.55152649  0.53083506  0.88194837  1
  N  N59  1  0.43639111  0.40707535  0.65308097  1
  N  N60  1  0.22621274  0.87213084  0.34482977  1
  N  N61  1  0.09647597  0.79337301  0.06557491  1
  N  N62  1  0.89361584  0.87453610  0.85614294  1
  N  N63  1  0.78636058  0.74884236  0.61058300  1
  N  N64  1  0.57434295  0.86753140  0.36848999  1
  N  N65  1  0.41597787  0.77333251  0.06919946  1
  N  N66  1  0.24624788  0.83757452  0.82502226  1
  N  N67  1  0.12539649  0.75632693  0.60594966  1
  N  N68  1  0.91859817  0.83832079  0.39870064  1
  N  N69  1  0.79834921  0.75417008  0.05270184  1
  N  N70  1  0.55435249  0.86841253  0.82816607  1
  N  N71  1  0.43472574  0.78984787  0.58469719  1
