# generated using pymatgen
data_Gd2Al7N9
_symmetry_space_group_name_H-M   'P 1'
_cell_length_a   9.87788508
_cell_length_b   9.83585234
_cell_length_c   10.76364964
_cell_angle_alpha   89.50709993
_cell_angle_beta   89.07900986
_cell_angle_gamma   59.79177922
_symmetry_Int_Tables_number   1
_chemical_formula_structural   Gd2Al7N9
_chemical_formula_sum   'Gd8 Al28 N36'
_cell_volume   903.63889200
_cell_formula_units_Z   4
loop_
 _symmetry_equiv_pos_site_id
 _symmetry_equiv_pos_as_xyz
  1  'x, y, z'
loop_
 _atom_site_type_symbol
 _atom_site_label
 _atom_site_symmetry_multiplicity
 _atom_site_fract_x
 _atom_site_fract_y
 _atom_site_fract_z
 _atom_site_occupancy
  Al  Al0  1  0.12630381  0.08472138  0.38429458  1
  Al  Al1  1  0.76970585  0.09936893  0.78176056  1
  Al  Al2  1  0.89519562  0.20355984  0.55514911  1
  Al  Al3  1  0.44510123  0.10052067  0.32252069  1
  Al  Al4  1  0.23237549  0.20736112  0.55285335  1
  Al  Al5  1  0.87325384  0.20678091  0.02491782  1
  Al  Al6  1  0.44345469  0.10309474  0.78753396  1
  Al  Al7  1  0.55011473  0.20467644  0.55343917  1
  Al  Al8  1  0.10239310  0.43922430  0.32122349  1
  Al  Al9  1  0.77683872  0.42617820  0.80447790  1
  Al  Al10  1  0.90570812  0.52630582  0.57279306  1
  Al  Al11  1  0.44270100  0.43723931  0.30730720  1
  Al  Al12  1  0.54592777  0.53707311  0.03419608  1
  Al  Al13  1  0.12064020  0.42863325  0.79325861  1
  Al  Al14  1  0.22582063  0.52732478  0.54971782  1
  Al  Al15  1  0.88439279  0.53765511  0.02913518  1
  Al  Al16  1  0.43585687  0.42511639  0.78792953  1
  Al  Al17  1  0.11952982  0.75890075  0.36049705  1
  Al  Al18  1  0.20714973  0.87818785  0.11539049  1
  Al  Al19  1  0.77802357  0.76191898  0.84484755  1
  Al  Al20  1  0.89370200  0.87312744  0.56541744  1
  Al  Al21  1  0.44041542  0.77488716  0.38011217  1
  Al  Al22  1  0.11491012  0.75098410  0.78900012  1
  Al  Al23  1  0.23272170  0.86592216  0.61234719  1
  Al  Al24  1  0.77898433  0.75843869  0.40479844  1
  Al  Al25  1  0.89631269  0.88155630  0.02152840  1
  Al  Al26  1  0.43615026  0.76149748  0.86026890  1
  Al  Al27  1  0.55567007  0.87227526  0.62212066  1
  Gd  Gd28  1  0.20823487  0.20986717  0.07605053  1
  Gd  Gd29  1  0.54773012  0.20845214  0.03714884  1
  Gd  Gd30  1  0.10839296  0.10029515  0.81797670  1
  Gd  Gd31  1  0.78781616  0.08146319  0.29905843  1
  Gd  Gd32  1  0.20134170  0.55053779  0.06432836  1
  Gd  Gd33  1  0.79369078  0.43492323  0.28499426  1
  Gd  Gd34  1  0.56484292  0.53232819  0.57131797  1
  Gd  Gd35  1  0.57318856  0.83799296  0.12714399  1
  N  N36  1  0.22560389  0.20965672  0.37121671  1
  N  N37  1  0.09070145  0.07978522  0.04358262  1
  N  N38  1  0.85022089  0.21770778  0.85106711  1
  N  N39  1  0.77825042  0.09789657  0.60159003  1
  N  N40  1  0.53536938  0.22206250  0.37520811  1
  N  N41  1  0.44818960  0.09132617  0.14850483  1
  N  N42  1  0.24417923  0.22426944  0.86207770  1
  N  N43  1  0.12139151  0.08681683  0.57538070  1
  N  N44  1  0.90956967  0.20019571  0.37786671  1
  N  N45  1  0.79083141  0.08604391  0.08756168  1
  N  N46  1  0.55555773  0.20290222  0.82558115  1
  N  N47  1  0.44359500  0.09621188  0.60783369  1
  N  N48  1  0.22579825  0.53570385  0.36430906  1
  N  N49  1  0.04499262  0.45350638  0.14987785  1
  N  N50  1  0.90200278  0.52457159  0.84760167  1
  N  N51  1  0.81787495  0.40462666  0.62772715  1
  N  N52  1  0.54072319  0.55258062  0.35939006  1
  N  N53  1  0.45393112  0.44272917  0.12917710  1
  N  N54  1  0.21937880  0.54196027  0.84354582  1
  N  N55  1  0.12132037  0.42131217  0.61394634  1
  N  N56  1  0.90452804  0.54098269  0.39779903  1
  N  N57  1  0.76489465  0.43742853  0.06703495  1
  N  N58  1  0.55111398  0.53276944  0.84069606  1
  N  N59  1  0.42842889  0.41447095  0.61264709  1
  N  N60  1  0.22706675  0.87702885  0.31356672  1
  N  N61  1  0.08376811  0.79100320  0.10342740  1
  N  N62  1  0.89523368  0.87756126  0.83096965  1
  N  N63  1  0.77746911  0.76073905  0.58948798  1
  N  N64  1  0.57166134  0.86492053  0.34256269  1
  N  N65  1  0.41346296  0.76048207  0.03827364  1
  N  N66  1  0.24075180  0.84152759  0.78627151  1
  N  N67  1  0.12051867  0.75380469  0.58463949  1
  N  N68  1  0.90503377  0.84931922  0.38784340  1
  N  N69  1  0.79762599  0.75875685  0.02447590  1
  N  N70  1  0.55195367  0.86816756  0.80562206  1
  N  N71  1  0.43383634  0.79398413  0.55513916  1
