# generated using pymatgen
data_Gd2Al7N9
_symmetry_space_group_name_H-M   'P 1'
_cell_length_a   9.92909908
_cell_length_b   9.88592613
_cell_length_c   10.49388469
_cell_angle_alpha   89.20066877
_cell_angle_beta   88.81571840
_cell_angle_gamma   60.20058880
_symmetry_Int_Tables_number   1
_chemical_formula_structural   Gd2Al7N9
_chemical_formula_sum   'Gd8 Al28 N36'
_cell_volume   893.65876915
_cell_formula_units_Z   4
loop_
 _symmetry_equiv_pos_site_id
 _symmetry_equiv_pos_as_xyz
  1  'x, y, z'
loop_
 _atom_site_type_symbol
 _atom_site_label
 _atom_site_symmetry_multiplicity
 _atom_site_fract_x
 _atom_site_fract_y
 _atom_site_fract_z
 _atom_site_occupancy
  Al  Al0  1  0.12140805  0.09444490  0.38455471  1
  Al  Al1  1  0.77043723  0.09215635  0.78574468  1
  Al  Al2  1  0.89257275  0.20946154  0.55974647  1
  Al  Al3  1  0.44336898  0.10170819  0.32340638  1
  Al  Al4  1  0.22929334  0.21395799  0.55640246  1
  Al  Al5  1  0.87794020  0.20143243  0.02636399  1
  Al  Al6  1  0.44640388  0.09282501  0.78614643  1
  Al  Al7  1  0.54554097  0.20899210  0.55737614  1
  Al  Al8  1  0.10642699  0.43710435  0.31947166  1
  Al  Al9  1  0.78064275  0.42682718  0.81061510  1
  Al  Al10  1  0.89944757  0.53947295  0.56284013  1
  Al  Al11  1  0.44047769  0.43916610  0.31136561  1
  Al  Al12  1  0.55423214  0.53061364  0.03303393  1
  Al  Al13  1  0.11635147  0.43071592  0.79287696  1
  Al  Al14  1  0.21818427  0.53967783  0.54647698  1
  Al  Al15  1  0.88983690  0.54144954  0.04216408  1
  Al  Al16  1  0.43163414  0.42118668  0.78865334  1
  Al  Al17  1  0.11534703  0.76643626  0.30821323  1
  Al  Al18  1  0.20698791  0.86535407  0.03339119  1
  Al  Al19  1  0.77784262  0.76235739  0.79811485  1
  Al  Al20  1  0.89435454  0.86412737  0.55471750  1
  Al  Al21  1  0.44148158  0.77076771  0.37705983  1
  Al  Al22  1  0.10934836  0.74955699  0.79170721  1
  Al  Al23  1  0.21862214  0.86840223  0.56086205  1
  Al  Al24  1  0.79896298  0.75448736  0.31189255  1
  Al  Al25  1  0.89704954  0.87145441  0.04964959  1
  Al  Al26  1  0.44110260  0.75473470  0.84528003  1
  Al  Al27  1  0.56184027  0.87779966  0.55867291  1
  Gd  Gd28  1  0.21176531  0.20275060  0.07099858  1
  Gd  Gd29  1  0.55706832  0.20414069  0.04101621  1
  Gd  Gd30  1  0.10748902  0.09437570  0.80638318  1
  Gd  Gd31  1  0.78192133  0.09297676  0.31295565  1
  Gd  Gd32  1  0.21548614  0.54439195  0.06726609  1
  Gd  Gd33  1  0.78423359  0.44063890  0.28646139  1
  Gd  Gd34  1  0.56384900  0.53401567  0.58208117  1
  Gd  Gd35  1  0.56182406  0.85740260  0.06962044  1
  N  N36  1  0.22432824  0.21272649  0.37049345  1
  N  N37  1  0.08989941  0.07903493  0.04094732  1
  N  N38  1  0.84938869  0.21569051  0.84829134  1
  N  N39  1  0.77997939  0.09250687  0.59859920  1
  N  N40  1  0.52859998  0.22738440  0.37608108  1
  N  N41  1  0.44837622  0.09131739  0.14763705  1
  N  N42  1  0.24014464  0.22097942  0.84957289  1
  N  N43  1  0.11742158  0.09271270  0.57895703  1
  N  N44  1  0.90855870  0.20948471  0.37870220  1
  N  N45  1  0.79707682  0.08161217  0.09830144  1
  N  N46  1  0.55426037  0.19992283  0.82311392  1
  N  N47  1  0.44461601  0.09282277  0.60321464  1
  N  N48  1  0.22170486  0.54485064  0.35684459  1
  N  N49  1  0.06827406  0.44072080  0.14254943  1
  N  N50  1  0.89513733  0.54156561  0.85707322  1
  N  N51  1  0.81984584  0.41127205  0.62758884  1
  N  N52  1  0.53714449  0.55474821  0.36355531  1
  N  N53  1  0.46454059  0.43457783  0.12955040  1
  N  N54  1  0.21874746  0.53750538  0.84701444  1
  N  N55  1  0.11442113  0.43029284  0.60838488  1
  N  N56  1  0.90066360  0.55310328  0.38453708  1
  N  N57  1  0.77305424  0.43132696  0.06420911  1
  N  N58  1  0.55315988  0.52854774  0.83567360  1
  N  N59  1  0.42129654  0.41885818  0.61020424  1
  N  N60  1  0.22071569  0.87425400  0.37066766  1
  N  N61  1  0.09584797  0.78864876  0.12561961  1
  N  N62  1  0.88865449  0.86951692  0.85595220  1
  N  N63  1  0.77933898  0.76208477  0.61548035  1
  N  N64  1  0.56892581  0.87153070  0.36638283  1
  N  N65  1  0.42279833  0.74346406  0.04428817  1
  N  N66  1  0.22507398  0.83885620  0.84463460  1
  N  N67  1  0.11016248  0.75729813  0.60802842  1
  N  N68  1  0.90986759  0.84677016  0.37575966  1
  N  N69  1  0.81294664  0.74470796  0.12206058  1
  N  N70  1  0.55431126  0.87345539  0.84266519  1
  N  N71  1  0.43122852  0.79139102  0.58193136  1
