# generated using pymatgen
data_Gd2Al7N9
_symmetry_space_group_name_H-M   'P 1'
_cell_length_a   9.93940789
_cell_length_b   9.93818773
_cell_length_c   10.48997133
_cell_angle_alpha   90.46430230
_cell_angle_beta   89.90050519
_cell_angle_gamma   59.81027567
_symmetry_Int_Tables_number   1
_chemical_formula_structural   Gd2Al7N9
_chemical_formula_sum   'Gd8 Al28 N36'
_cell_volume   895.60210984
_cell_formula_units_Z   4
loop_
 _symmetry_equiv_pos_site_id
 _symmetry_equiv_pos_as_xyz
  1  'x, y, z'
loop_
 _atom_site_type_symbol
 _atom_site_label
 _atom_site_symmetry_multiplicity
 _atom_site_fract_x
 _atom_site_fract_y
 _atom_site_fract_z
 _atom_site_occupancy
  Al  Al0  1  0.12528886  0.08284282  0.42575165  1
  Al  Al1  1  0.77618902  0.09617510  0.82039146  1
  Al  Al2  1  0.89386040  0.20716639  0.61744205  1
  Al  Al3  1  0.44276156  0.09166557  0.42018001  1
  Al  Al4  1  0.22599437  0.21175436  0.64048021  1
  Al  Al5  1  0.88872098  0.20415481  0.12773420  1
  Al  Al6  1  0.44434011  0.09622599  0.88248836  1
  Al  Al7  1  0.54243615  0.20378918  0.65532064  1
  Al  Al8  1  0.11222473  0.43138466  0.41603791  1
  Al  Al9  1  0.78295576  0.43187982  0.82149890  1
  Al  Al10  1  0.89475645  0.54682079  0.64970865  1
  Al  Al11  1  0.42393655  0.42508486  0.41946205  1
  Al  Al12  1  0.56764870  0.53499177  0.05978836  1
  Al  Al13  1  0.11052599  0.43368031  0.88719880  1
  Al  Al14  1  0.21122365  0.53916800  0.65332919  1
  Al  Al15  1  0.89564258  0.54134929  0.14086800  1
  Al  Al16  1  0.43905327  0.42790801  0.88431772  1
  Al  Al17  1  0.12175380  0.75023694  0.40753854  1
  Al  Al18  1  0.21395823  0.87480395  0.15026558  1
  Al  Al19  1  0.78818381  0.76025490  0.89367021  1
  Al  Al20  1  0.89739456  0.86030839  0.64943643  1
  Al  Al21  1  0.43126473  0.77336108  0.41075140  1
  Al  Al22  1  0.11238695  0.76265006  0.89342981  1
  Al  Al23  1  0.22008735  0.87487513  0.65039312  1
  Al  Al24  1  0.79514797  0.74953518  0.40176588  1
  Al  Al25  1  0.90486276  0.86450950  0.15092981  1
  Al  Al26  1  0.44215985  0.76523813  0.89137300  1
  Al  Al27  1  0.55732010  0.87675435  0.64763754  1
  Gd  Gd28  1  0.21383260  0.21044309  0.16883250  1
  Gd  Gd29  1  0.55712345  0.20608861  0.13119185  1
  Gd  Gd30  1  0.11502645  0.09636819  0.88229802  1
  Gd  Gd31  1  0.77756221  0.07933177  0.39238650  1
  Gd  Gd32  1  0.21604139  0.55061941  0.14731063  1
  Gd  Gd33  1  0.76546086  0.43926260  0.36614461  1
  Gd  Gd34  1  0.53149458  0.55433670  0.63210601  1
  Gd  Gd35  1  0.56330122  0.85798772  0.14547854  1
  N  N36  1  0.22344547  0.20116498  0.39070667  1
  N  N37  1  0.09910565  0.08687905  0.10118896  1
  N  N38  1  0.86562011  0.21913108  0.83347689  1
  N  N39  1  0.77386431  0.09049033  0.62737024  1
  N  N40  1  0.51575390  0.21973114  0.34944653  1
  N  N41  1  0.43267899  0.08775984  0.05952945  1
  N  N42  1  0.23678477  0.22646624  0.82166668  1
  N  N43  1  0.11713397  0.09127786  0.61482608  1
  N  N44  1  0.91317017  0.19443417  0.41105049  1
  N  N45  1  0.80673849  0.08064862  0.15464235  1
  N  N46  1  0.55513913  0.20498875  0.84081947  1
  N  N47  1  0.45130058  0.08948584  0.60125809  1
  N  N48  1  0.21962757  0.53511078  0.36567171  1
  N  N49  1  0.09112698  0.43219090  0.06558696  1
  N  N50  1  0.89247908  0.54614373  0.83287500  1
  N  N51  1  0.79391063  0.42949905  0.62731774  1
  N  N52  1  0.51032548  0.55631670  0.40581576  1
  N  N53  1  0.45050561  0.44147319  0.06053793  1
  N  N54  1  0.21730229  0.54535266  0.83925604  1
  N  N55  1  0.10336481  0.43605986  0.59640411  1
  N  N56  1  0.91522296  0.54433557  0.32893946  1
  N  N57  1  0.77471889  0.42996511  0.13028124  1
  N  N58  1  0.56656078  0.54008764  0.86541202  1
  N  N59  1  0.41988248  0.40774958  0.60340514  1
  N  N60  1  0.22160240  0.87325079  0.34240977  1
  N  N61  1  0.10053984  0.78992384  0.07429864  1
  N  N62  1  0.89415996  0.86979611  0.83270408  1
  N  N63  1  0.78363521  0.76010240  0.58891354  1
  N  N64  1  0.56420077  0.86731507  0.36431908  1
  N  N65  1  0.42461034  0.75413008  0.07443309  1
  N  N66  1  0.24007572  0.83944431  0.82662912  1
  N  N67  1  0.11391440  0.76153246  0.59221853  1
  N  N68  1  0.91986859  0.82889245  0.33510206  1
  N  N69  1  0.81087707  0.75024558  0.07637432  1
  N  N70  1  0.56198583  0.86790374  0.83675189  1
  N  N71  1  0.42222802  0.80770988  0.58908716  1
