# generated using pymatgen
data_Gd2Al7N9
_symmetry_space_group_name_H-M   'P 1'
_cell_length_a   9.88551461
_cell_length_b   9.87616826
_cell_length_c   10.45269862
_cell_angle_alpha   90.48311097
_cell_angle_beta   90.81800832
_cell_angle_gamma   59.99492134
_symmetry_Int_Tables_number   1
_chemical_formula_structural   Gd2Al7N9
_chemical_formula_sum   'Gd8 Al28 N36'
_cell_volume   883.64911804
_cell_formula_units_Z   4
loop_
 _symmetry_equiv_pos_site_id
 _symmetry_equiv_pos_as_xyz
  1  'x, y, z'
loop_
 _atom_site_type_symbol
 _atom_site_label
 _atom_site_symmetry_multiplicity
 _atom_site_fract_x
 _atom_site_fract_y
 _atom_site_fract_z
 _atom_site_occupancy
  Al  Al0  1  0.11296092  0.08703718  0.41613530  1
  Al  Al1  1  0.78223882  0.09279663  0.89135326  1
  Al  Al2  1  0.88695350  0.20912000  0.65751477  1
  Al  Al3  1  0.44222255  0.09270311  0.42482407  1
  Al  Al4  1  0.22352053  0.21179666  0.63401287  1
  Al  Al5  1  0.90214288  0.19076344  0.14436173  1
  Al  Al6  1  0.44548869  0.09720124  0.88142137  1
  Al  Al7  1  0.55367061  0.20215540  0.66304318  1
  Al  Al8  1  0.10805815  0.43643061  0.41939896  1
  Al  Al9  1  0.78463613  0.42943714  0.89989915  1
  Al  Al10  1  0.89207325  0.53808846  0.65225370  1
  Al  Al11  1  0.42507569  0.42954657  0.41964629  1
  Al  Al12  1  0.55410724  0.54177346  0.07840120  1
  Al  Al13  1  0.11198329  0.43022599  0.88421599  1
  Al  Al14  1  0.21321992  0.54142848  0.65235130  1
  Al  Al15  1  0.89608480  0.54253830  0.13635324  1
  Al  Al16  1  0.43874055  0.42852414  0.88932786  1
  Al  Al17  1  0.11380818  0.75698112  0.40694393  1
  Al  Al18  1  0.21673452  0.87201107  0.15308315  1
  Al  Al19  1  0.78757664  0.75796651  0.89115730  1
  Al  Al20  1  0.89136932  0.87041985  0.65623984  1
  Al  Al21  1  0.43162477  0.77019243  0.40889296  1
  Al  Al22  1  0.11480948  0.75970840  0.89344765  1
  Al  Al23  1  0.21897425  0.87239061  0.64686361  1
  Al  Al24  1  0.78998930  0.75691357  0.40137659  1
  Al  Al25  1  0.90235286  0.86881525  0.13749343  1
  Al  Al26  1  0.44218187  0.76270446  0.89427447  1
  Al  Al27  1  0.55681100  0.87572275  0.64851492  1
  Gd  Gd28  1  0.21593708  0.20917229  0.17387035  1
  Gd  Gd29  1  0.55880921  0.20542301  0.13595547  1
  Gd  Gd30  1  0.12214142  0.09221114  0.88632642  1
  Gd  Gd31  1  0.77554241  0.08958091  0.40413187  1
  Gd  Gd32  1  0.21001213  0.54932038  0.15192884  1
  Gd  Gd33  1  0.77452595  0.43677449  0.37451601  1
  Gd  Gd34  1  0.55232653  0.54443957  0.64321627  1
  Gd  Gd35  1  0.56579668  0.86042947  0.14514722  1
  N  N36  1  0.21847038  0.20502888  0.39906564  1
  N  N37  1  0.11036332  0.07973914  0.09861427  1
  N  N38  1  0.86471783  0.22321281  0.83935446  1
  N  N39  1  0.77621028  0.09517460  0.61894484  1
  N  N40  1  0.51657971  0.21976456  0.35224549  1
  N  N41  1  0.43120859  0.09282826  0.05993512  1
  N  N42  1  0.23764342  0.22382410  0.81722423  1
  N  N43  1  0.10347948  0.09209202  0.60541036  1
  N  N44  1  0.91819202  0.18521700  0.32573807  1
  N  N45  1  0.80704826  0.07956169  0.07809013  1
  N  N46  1  0.55973574  0.20488792  0.84824748  1
  N  N47  1  0.45413933  0.09055428  0.60567660  1
  N  N48  1  0.21558815  0.53971548  0.37068817  1
  N  N49  1  0.09111792  0.42673884  0.06305924  1
  N  N50  1  0.88701126  0.54027653  0.83568587  1
  N  N51  1  0.80647613  0.41428837  0.59300467  1
  N  N52  1  0.51601402  0.55343140  0.38514157  1
  N  N53  1  0.44367039  0.44168885  0.06806499  1
  N  N54  1  0.21810202  0.54357343  0.83942303  1
  N  N55  1  0.10184916  0.43892847  0.59961968  1
  N  N56  1  0.91251657  0.55191312  0.32313803  1
  N  N57  1  0.77969956  0.43045968  0.09628040  1
  N  N58  1  0.56219376  0.53938033  0.87260005  1
  N  N59  1  0.42668883  0.41122324  0.60498641  1
  N  N60  1  0.21887621  0.87283282  0.34429586  1
  N  N61  1  0.10483436  0.78572652  0.07518478  1
  N  N62  1  0.89384230  0.87010676  0.83776269  1
  N  N63  1  0.78227575  0.75958812  0.59113393  1
  N  N64  1  0.55870401  0.87228461  0.36427986  1
  N  N65  1  0.42310403  0.75782557  0.07939824  1
  N  N66  1  0.24049922  0.83854704  0.82515458  1
  N  N67  1  0.10657708  0.76508878  0.59199780  1
  N  N68  1  0.90656587  0.84666155  0.32652697  1
  N  N69  1  0.81146380  0.74940453  0.07268076  1
  N  N70  1  0.56071508  0.86657323  0.83888278  1
  N  N71  1  0.42470041  0.79938834  0.58866049  1
