# generated using pymatgen
data_Gd2Al7N9
_symmetry_space_group_name_H-M   'P 1'
_cell_length_a   9.89118832
_cell_length_b   9.84697033
_cell_length_c   10.68246911
_cell_angle_alpha   89.34939058
_cell_angle_beta   89.23606107
_cell_angle_gamma   59.92573867
_symmetry_Int_Tables_number   1
_chemical_formula_structural   Gd2Al7N9
_chemical_formula_sum   'Gd8 Al28 N36'
_cell_volume   900.29111847
_cell_formula_units_Z   4
loop_
 _symmetry_equiv_pos_site_id
 _symmetry_equiv_pos_as_xyz
  1  'x, y, z'
loop_
 _atom_site_type_symbol
 _atom_site_label
 _atom_site_symmetry_multiplicity
 _atom_site_fract_x
 _atom_site_fract_y
 _atom_site_fract_z
 _atom_site_occupancy
  Al  Al0  1  0.12616520  0.08528258  0.38360487  1
  Al  Al1  1  0.77143591  0.09702578  0.78279326  1
  Al  Al2  1  0.89396333  0.20523222  0.55493312  1
  Al  Al3  1  0.44349578  0.10376464  0.32264056  1
  Al  Al4  1  0.22935012  0.21103803  0.55362608  1
  Al  Al5  1  0.87470187  0.20491855  0.02508105  1
  Al  Al6  1  0.44977384  0.08955438  0.78876542  1
  Al  Al7  1  0.54713185  0.20890436  0.55735031  1
  Al  Al8  1  0.10673733  0.43609668  0.31891571  1
  Al  Al9  1  0.77756705  0.42688248  0.80423253  1
  Al  Al10  1  0.90385000  0.52964783  0.57126527  1
  Al  Al11  1  0.44066883  0.43790075  0.30778332  1
  Al  Al12  1  0.54803828  0.53100765  0.03364332  1
  Al  Al13  1  0.12178022  0.42781222  0.79262423  1
  Al  Al14  1  0.21896575  0.53761600  0.54574122  1
  Al  Al15  1  0.89141720  0.53224056  0.03018549  1
  Al  Al16  1  0.43440503  0.42421673  0.78712724  1
  Al  Al17  1  0.10867602  0.76132795  0.31067983  1
  Al  Al18  1  0.20844155  0.87952315  0.11893095  1
  Al  Al19  1  0.77893233  0.76339542  0.85055195  1
  Al  Al20  1  0.89642929  0.87208269  0.56250849  1
  Al  Al21  1  0.43420553  0.77343217  0.37442578  1
  Al  Al22  1  0.11417808  0.74944232  0.78414414  1
  Al  Al23  1  0.22772730  0.86642065  0.61285323  1
  Al  Al24  1  0.78941855  0.75623147  0.39624881  1
  Al  Al25  1  0.90040050  0.87957445  0.03203704  1
  Al  Al26  1  0.43592225  0.76166276  0.86330465  1
  Al  Al27  1  0.55254687  0.88295780  0.56256603  1
  Gd  Gd28  1  0.21262514  0.20314354  0.07406886  1
  Gd  Gd29  1  0.55062756  0.20287515  0.03412683  1
  Gd  Gd30  1  0.10836124  0.09887937  0.81631869  1
  Gd  Gd31  1  0.78186209  0.08793616  0.30338265  1
  Gd  Gd32  1  0.20447134  0.55184442  0.06269106  1
  Gd  Gd33  1  0.79106228  0.43651691  0.28612285  1
  Gd  Gd34  1  0.56108201  0.53763386  0.57509563  1
  Gd  Gd35  1  0.57148152  0.83851138  0.10886095  1
  N  N36  1  0.22537643  0.21056655  0.37095928  1
  N  N37  1  0.09147741  0.07488482  0.04124036  1
  N  N38  1  0.84958990  0.21854243  0.85036516  1
  N  N39  1  0.77886032  0.09683972  0.60044810  1
  N  N40  1  0.53104912  0.22600282  0.37761262  1
  N  N41  1  0.45154453  0.08733329  0.14948507  1
  N  N42  1  0.24595280  0.22164837  0.85903279  1
  N  N43  1  0.11956123  0.08780965  0.57525389  1
  N  N44  1  0.90992216  0.20183034  0.37652306  1
  N  N45  1  0.79210273  0.08570939  0.09078914  1
  N  N46  1  0.55566031  0.20096321  0.82049926  1
  N  N47  1  0.44265504  0.09503540  0.60640440  1
  N  N48  1  0.22234571  0.54229199  0.35888821  1
  N  N49  1  0.05868490  0.44571153  0.14513522  1
  N  N50  1  0.90246141  0.52566993  0.84764059  1
  N  N51  1  0.81641903  0.40701806  0.62516294  1
  N  N52  1  0.53983494  0.55282394  0.35797818  1
  N  N53  1  0.45604853  0.43496236  0.12752049  1
  N  N54  1  0.21993592  0.54125733  0.84573945  1
  N  N55  1  0.11957771  0.42457843  0.61175018  1
  N  N56  1  0.90767090  0.54135929  0.39313168  1
  N  N57  1  0.76748479  0.43559228  0.06756074  1
  N  N58  1  0.55195245  0.53200007  0.83948929  1
  N  N59  1  0.42332517  0.41999907  0.61045150  1
  N  N60  1  0.22751113  0.88245120  0.30769144  1
  N  N61  1  0.08128095  0.79059577  0.13304086  1
  N  N62  1  0.89828789  0.87742006  0.84160581  1
  N  N63  1  0.77483136  0.76367402  0.58625174  1
  N  N64  1  0.56923694  0.87172334  0.35918172  1
  N  N65  1  0.40879391  0.75088995  0.04235586  1
  N  N66  1  0.24179306  0.84099390  0.78845927  1
  N  N67  1  0.11271324  0.75348420  0.60249532  1
  N  N68  1  0.91005200  0.85054238  0.38475399  1
  N  N69  1  0.81209366  0.74923980  0.03645113  1
  N  N70  1  0.55242382  0.87258382  0.84474862  1
  N  N71  1  0.42489523  0.79638677  0.55035306  1
