# generated using pymatgen
data_Gd2Al7N9
_symmetry_space_group_name_H-M   'P 1'
_cell_length_a   9.86975846
_cell_length_b   9.77965035
_cell_length_c   10.98676872
_cell_angle_alpha   89.28869125
_cell_angle_beta   89.23806248
_cell_angle_gamma   59.64840792
_symmetry_Int_Tables_number   1
_chemical_formula_structural   Gd2Al7N9
_chemical_formula_sum   'Gd8 Al28 N36'
_cell_volume   915.02513785
_cell_formula_units_Z   4
loop_
 _symmetry_equiv_pos_site_id
 _symmetry_equiv_pos_as_xyz
  1  'x, y, z'
loop_
 _atom_site_type_symbol
 _atom_site_label
 _atom_site_symmetry_multiplicity
 _atom_site_fract_x
 _atom_site_fract_y
 _atom_site_fract_z
 _atom_site_occupancy
  Al  Al0  1  0.12413280  0.08573161  0.40631238  1
  Al  Al1  1  0.77106750  0.09637942  0.79148051  1
  Al  Al2  1  0.89523332  0.20580830  0.57076368  1
  Al  Al3  1  0.44594866  0.10254353  0.33907242  1
  Al  Al4  1  0.23210241  0.21173827  0.56698735  1
  Al  Al5  1  0.86814844  0.20391553  0.03123259  1
  Al  Al6  1  0.44430766  0.10442093  0.80184881  1
  Al  Al7  1  0.54929902  0.20707588  0.56500611  1
  Al  Al8  1  0.10103939  0.44324249  0.33935505  1
  Al  Al9  1  0.77653296  0.42579860  0.81297391  1
  Al  Al10  1  0.90615858  0.52874648  0.58622427  1
  Al  Al11  1  0.44268351  0.44120661  0.31212593  1
  Al  Al12  1  0.54994458  0.53084532  0.04022757  1
  Al  Al13  1  0.11944236  0.42529199  0.81571307  1
  Al  Al14  1  0.21923352  0.54264514  0.63880498  1
  Al  Al15  1  0.88125477  0.53261205  0.04193256  1
  Al  Al16  1  0.44992649  0.42020424  0.80067040  1
  Al  Al17  1  0.12769358  0.75412039  0.39693557  1
  Al  Al18  1  0.20968317  0.87036451  0.08096903  1
  Al  Al19  1  0.77547003  0.76052835  0.85907377  1
  Al  Al20  1  0.89596972  0.87472344  0.57687013  1
  Al  Al21  1  0.43401576  0.78241324  0.39731004  1
  Al  Al22  1  0.11622121  0.76005242  0.85925737  1
  Al  Al23  1  0.23188488  0.86426657  0.62973618  1
  Al  Al24  1  0.77833617  0.76275523  0.42075708  1
  Al  Al25  1  0.88396044  0.88309291  0.02435435  1
  Al  Al26  1  0.44221241  0.76036050  0.86642149  1
  Al  Al27  1  0.55743368  0.87226525  0.63512627  1
  Gd  Gd28  1  0.19957943  0.19858032  0.11281116  1
  Gd  Gd29  1  0.54510495  0.19875968  0.04741360  1
  Gd  Gd30  1  0.11032788  0.11028988  0.82951024  1
  Gd  Gd31  1  0.78767590  0.08603791  0.31144261  1
  Gd  Gd32  1  0.19778022  0.54534352  0.11453803  1
  Gd  Gd33  1  0.79663264  0.43771476  0.29559624  1
  Gd  Gd34  1  0.56909975  0.52684720  0.57018420  1
  Gd  Gd35  1  0.57218339  0.83239946  0.15011120  1
  N  N36  1  0.22480957  0.21297673  0.38783966  1
  N  N37  1  0.08613310  0.07872415  0.04341812  1
  N  N38  1  0.85098688  0.21573535  0.86018121  1
  N  N39  1  0.77850627  0.09953256  0.61490689  1
  N  N40  1  0.53434338  0.22746575  0.38932060  1
  N  N41  1  0.44705737  0.08885650  0.16811309  1
  N  N42  1  0.25141356  0.22552769  0.89242592  1
  N  N43  1  0.12170881  0.08946839  0.59154798  1
  N  N44  1  0.90589413  0.20713704  0.39570425  1
  N  N45  1  0.79339436  0.07784908  0.10114878  1
  N  N46  1  0.55934189  0.20046610  0.83983414  1
  N  N47  1  0.44225448  0.09962782  0.62392172  1
  N  N48  1  0.21846670  0.54921442  0.32803582  1
  N  N49  1  0.03265570  0.44933346  0.16927206  1
  N  N50  1  0.90171531  0.52178212  0.86508170  1
  N  N51  1  0.81659769  0.40842717  0.64192562  1
  N  N52  1  0.53877788  0.55916059  0.36348319  1
  N  N53  1  0.46163557  0.43280463  0.13326834  1
  N  N54  1  0.22192666  0.54398369  0.82230520  1
  N  N55  1  0.11872401  0.41954235  0.63636538  1
  N  N56  1  0.90481810  0.54265440  0.41432583  1
  N  N57  1  0.76605777  0.42929888  0.08012704  1
  N  N58  1  0.55489909  0.53164557  0.85440269  1
  N  N59  1  0.43568533  0.41339226  0.62888341  1
  N  N60  1  0.22188802  0.88052005  0.34060814  1
  N  N61  1  0.10004694  0.77722474  0.03438080  1
  N  N62  1  0.88670832  0.87738694  0.84211607  1
  N  N63  1  0.77900461  0.76315485  0.60022380  1
  N  N64  1  0.56939284  0.86898120  0.36183437  1
  N  N65  1  0.42216423  0.75822179  0.04206350  1
  N  N66  1  0.23820353  0.84653465  0.80178964  1
  N  N67  1  0.12689824  0.75402347  0.57820746  1
  N  N68  1  0.90420957  0.85368831  0.39950831  1
  N  N69  1  0.78974605  0.75767620  0.03845649  1
  N  N70  1  0.55403393  0.86731956  0.81397325  1
  N  N71  1  0.43593140  0.79023082  0.57231588  1
