# generated using pymatgen
data_Al36N35
_symmetry_space_group_name_H-M   'P 1'
_cell_length_a   9.74376866
_cell_length_b   9.74376831
_cell_length_c   8.78104824
_cell_angle_alpha   90.00000163
_cell_angle_beta   89.99999321
_cell_angle_gamma   60.00003828
_symmetry_Int_Tables_number   1
_chemical_formula_structural   Al36N35
_chemical_formula_sum   'Al36 N35'
_cell_volume   721.98982176
_cell_formula_units_Z   1
loop_
 _symmetry_equiv_pos_site_id
 _symmetry_equiv_pos_as_xyz
  1  'x, y, z'
loop_
 _atom_site_type_symbol
 _atom_site_label
 _atom_site_symmetry_multiplicity
 _atom_site_fract_x
 _atom_site_fract_y
 _atom_site_fract_z
 _atom_site_occupancy
  Al  Al0  1  0.11255376  0.09528303  0.34809485  1
  Al  Al1  1  0.22253817  0.20526741  0.07963678  1
  Al  Al2  1  0.77807752  0.09418874  0.84243142  1
  Al  Al3  1  0.88642706  0.20701888  0.58912974  1
  Al  Al4  1  0.44250686  0.09528297  0.34809488  1
  Al  Al5  1  0.55476851  0.20516610  0.09384318  1
  Al  Al6  1  0.10948174  0.09221044  0.83724627  1
  Al  Al7  1  0.22253809  0.20526747  0.60973794  1
  Al  Al8  1  0.77857681  0.09319010  0.34007034  1
  Al  Al9  1  0.89040921  0.20516607  0.09384311  1
  Al  Al10  1  0.44865137  0.09221062  0.83724621  1
  Al  Al11  1  0.55689789  0.20701877  0.58912966  1
  Al  Al12  1  0.11255370  0.42523623  0.34809495  1
  Al  Al13  1  0.22243741  0.53749746  0.09384318  1
  Al  Al14  1  0.77881505  0.42712870  0.84289601  1
  Al  Al15  1  0.88642698  0.53962671  0.58912976  1
  Al  Al16  1  0.44542298  0.42815170  0.33936354  1
  Al  Al17  1  0.55587179  0.53860049  0.08910609  1
  Al  Al18  1  0.10948164  0.43138075  0.83724616  1
  Al  Al19  1  0.22429035  0.53962650  0.58912967  1
  Al  Al20  1  0.77676923  0.42815170  0.33936350  1
  Al  Al21  1  0.89040918  0.53749749  0.09384309  1
  Al  Al22  1  0.44440026  0.42712864  0.84289597  1
  Al  Al23  1  0.55587180  0.53860047  0.59317679  1
  Al  Al24  1  0.11046158  0.76130560  0.34007050  1
  Al  Al25  1  0.22243746  0.87313799  0.09384324  1
  Al  Al26  1  0.77807742  0.76080629  0.84243140  1
  Al  Al27  1  0.88920523  0.87193367  0.59242682  1
  Al  Al28  1  0.44542295  0.75949800  0.33936365  1
  Al  Al29  1  0.55476847  0.87313811  0.09384323  1
  Al  Al30  1  0.11146036  0.76080619  0.84243127  1
  Al  Al31  1  0.22429017  0.86915624  0.58912962  1
  Al  Al32  1  0.77857674  0.76130569  0.34007036  1
  Al  Al33  1  0.88920520  0.87193373  0.08983560  1
  Al  Al34  1  0.44440016  0.76154375  0.84289587  1
  Al  Al35  1  0.55689772  0.86915626  0.58912962  1
  N  N36  1  0.11443432  0.09716329  0.12457197  1
  N  N37  1  0.89112186  0.20402861  0.86960849  1
  N  N38  1  0.77779612  0.09475144  0.61903858  1
  N  N39  1  0.55542873  0.20597068  0.36732529  1
  N  N40  1  0.43874597  0.09716336  0.12457203  1
  N  N41  1  0.22253810  0.20526749  0.85753155  1
  N  N42  1  0.11177683  0.09450599  0.61068354  1
  N  N43  1  0.88894432  0.20597074  0.36732534  1
  N  N44  1  0.77812828  0.09408712  0.11806392  1
  N  N45  1  0.55519338  0.20402860  0.86960851  1
  N  N46  1  0.44406074  0.09450603  0.61068348  1
  N  N47  1  0.22324195  0.53815757  0.36732533  1
  N  N48  1  0.11443429  0.42147526  0.12457207  1
  N  N49  1  0.89112182  0.53792218  0.86960847  1
  N  N50  1  0.77839743  0.42733754  0.62003117  1
  N  N51  1  0.55587174  0.53860052  0.36981176  1
  N  N52  1  0.44490271  0.42763144  0.11728799  1
  N  N53  1  0.22130014  0.53792213  0.86960849  1
  N  N54  1  0.11177681  0.42679013  0.61068346  1
  N  N55  1  0.88894429  0.53815771  0.36732537  1
  N  N56  1  0.77780977  0.42763144  0.11728794  1
  N  N57  1  0.55587175  0.53860052  0.86760187  1
  N  N58  1  0.44460897  0.42733748  0.62003111  1
  N  N59  1  0.22324185  0.87167352  0.36732529  1
  N  N60  1  0.11135846  0.76085717  0.11806404  1
  N  N61  1  0.88920524  0.87193368  0.86762229  1
  N  N62  1  0.77779600  0.76052504  0.61903859  1
  N  N63  1  0.55542868  0.87167348  0.36732527  1
  N  N64  1  0.44490271  0.76053849  0.11728809  1
  N  N65  1  0.22130010  0.87385064  0.86960852  1
  N  N66  1  0.11202301  0.76052491  0.61903846  1
  N  N67  1  0.88920514  0.87193376  0.36961864  1
  N  N68  1  0.77812823  0.76085724  0.11806392  1
  N  N69  1  0.55519327  0.87385078  0.86960854  1
  N  N70  1  0.44460886  0.76112628  0.62003100  1
