# generated using pymatgen
data_Al36N35
_symmetry_space_group_name_H-M   'P 1'
_cell_length_a   9.86124431
_cell_length_b   9.86124366
_cell_length_c   8.41046554
_cell_angle_alpha   89.99999925
_cell_angle_beta   89.99999897
_cell_angle_gamma   60.00003935
_symmetry_Int_Tables_number   1
_chemical_formula_structural   Al36N35
_chemical_formula_sum   'Al36 N35'
_cell_volume   708.29511713
_cell_formula_units_Z   1
loop_
 _symmetry_equiv_pos_site_id
 _symmetry_equiv_pos_as_xyz
  1  'x, y, z'
loop_
 _atom_site_type_symbol
 _atom_site_label
 _atom_site_symmetry_multiplicity
 _atom_site_fract_x
 _atom_site_fract_y
 _atom_site_fract_z
 _atom_site_occupancy
  Al  Al0  1  0.11244469  0.09517397  0.35399817  1
  Al  Al1  1  0.22253803  0.20526753  0.08730960  1
  Al  Al2  1  0.77823740  0.09386882  0.85263946  1
  Al  Al3  1  0.88789599  0.20633368  0.60031655  1
  Al  Al4  1  0.44272489  0.09517396  0.35399816  1
  Al  Al5  1  0.55536129  0.20576075  0.10410317  1
  Al  Al6  1  0.10999466  0.09272341  0.85025515  1
  Al  Al7  1  0.22253797  0.20526756  0.61602732  1
  Al  Al8  1  0.77841489  0.09351382  0.35181987  1
  Al  Al9  1  0.88922179  0.20576070  0.10410313  1
  Al  Al10  1  0.44762533  0.09272364  0.85025514  1
  Al  Al11  1  0.55611411  0.20633362  0.60031649  1
  Al  Al12  1  0.11244463  0.42545439  0.35399820  1
  Al  Al13  1  0.22303217  0.53809023  0.10410318  1
  Al  Al14  1  0.77848472  0.42729388  0.85274090  1
  Al  Al15  1  0.88789591  0.53884304  0.60031655  1
  Al  Al16  1  0.44512287  0.42785156  0.35155834  1
  Al  Al17  1  0.55587185  0.53860047  0.10116493  1
  Al  Al18  1  0.10999456  0.43035487  0.85025508  1
  Al  Al19  1  0.22360523  0.53884285  0.60031647  1
  Al  Al20  1  0.77736952  0.42785153  0.35155832  1
  Al  Al21  1  0.88922171  0.53809031  0.10410312  1
  Al  Al22  1  0.44456538  0.42729384  0.85274087  1
  Al  Al23  1  0.55587183  0.53860049  0.60313299  1
  Al  Al24  1  0.11078530  0.76114377  0.35181997  1
  Al  Al25  1  0.22303217  0.87195058  0.10410324  1
  Al  Al26  1  0.77823729  0.76096634  0.85263943  1
  Al  Al27  1  0.88920521  0.87193372  0.60248489  1
  Al  Al28  1  0.44512284  0.76009821  0.35155838  1
  Al  Al29  1  0.55536121  0.87195074  0.10410321  1
  Al  Al30  1  0.11114033  0.76096622  0.85263936  1
  Al  Al31  1  0.22360510  0.87062505  0.60031644  1
  Al  Al32  1  0.77841478  0.76114388  0.35181990  1
  Al  Al33  1  0.88920518  0.87193375  0.10190790  1
  Al  Al34  1  0.44456529  0.76121342  0.85274083  1
  Al  Al35  1  0.55611394  0.87062519  0.60031645  1
  N  N36  1  0.11386588  0.09659477  0.11267545  1
  N  N37  1  0.89091332  0.20411305  0.85773840  1
  N  N38  1  0.77789389  0.09455592  0.60733350  1
  N  N39  1  0.55522815  0.20543487  0.35713596  1
  N  N40  1  0.43988285  0.09659493  0.11267545  1
  N  N41  1  0.22253804  0.20526750  0.85413528  1
  N  N42  1  0.11296862  0.09569769  0.60213425  1
  N  N43  1  0.88968070  0.20543488  0.35713597  1
  N  N44  1  0.77793726  0.09446918  0.10753788  1
  N  N45  1  0.55531738  0.20411306  0.85773840  1
  N  N46  1  0.44167713  0.09569785  0.60213422  1
  N  N47  1  0.22270627  0.53795698  0.35713599  1
  N  N48  1  0.11386583  0.42261228  0.11267551  1
  N  N49  1  0.89091326  0.53804628  0.85773839  1
  N  N50  1  0.77817925  0.42744664  0.60813452  1
  N  N51  1  0.55587182  0.53860045  0.35763432  1
  N  N52  1  0.44472215  0.42745069  0.10684197  1
  N  N53  1  0.22138460  0.53804620  0.85773838  1
  N  N54  1  0.11296861  0.42440665  0.60213421  1
  N  N55  1  0.88968064  0.53795713  0.35713599  1
  N  N56  1  0.77817123  0.42745068  0.10684194  1
  N  N57  1  0.55587181  0.53860046  0.85737590  1
  N  N58  1  0.44471818  0.42744660  0.60813449  1
  N  N59  1  0.22270620  0.87240976  0.35713597  1
  N  N60  1  0.11174064  0.76066610  0.10753791  1
  N  N61  1  0.88920523  0.87193366  0.85729459  1
  N  N62  1  0.77789378  0.76062281  0.60733350  1
  N  N63  1  0.55522805  0.87240981  0.35713597  1
  N  N64  1  0.44472212  0.76089980  0.10684200  1
  N  N65  1  0.22138455  0.87364213  0.85773840  1
  N  N66  1  0.11182749  0.76062268  0.60733345  1
  N  N67  1  0.88920520  0.87193369  0.35761942  1
  N  N68  1  0.77793717  0.76066621  0.10753786  1
  N  N69  1  0.55531727  0.87364230  0.85773841  1
  N  N70  1  0.44471808  0.76090794  0.60813446  1
