# generated using pymatgen
data_Al36N35
_symmetry_space_group_name_H-M   'P 1'
_cell_length_a   9.60601154
_cell_length_b   9.60601306
_cell_length_c   9.22590482
_cell_angle_alpha   90.00000323
_cell_angle_beta   89.99998740
_cell_angle_gamma   60.00005797
_symmetry_Int_Tables_number   1
_chemical_formula_structural   Al36N35
_chemical_formula_sum   'Al36 N35'
_cell_volume   737.26926923
_cell_formula_units_Z   1
loop_
 _symmetry_equiv_pos_site_id
 _symmetry_equiv_pos_as_xyz
  1  'x, y, z'
loop_
 _atom_site_type_symbol
 _atom_site_label
 _atom_site_symmetry_multiplicity
 _atom_site_fract_x
 _atom_site_fract_y
 _atom_site_fract_z
 _atom_site_occupancy
  Al  Al0  1  0.11143954  0.09416840  0.33915283  1
  Al  Al1  1  0.22253827  0.20526734  0.07588413  1
  Al  Al2  1  0.77805661  0.09423056  0.83431704  1
  Al  Al3  1  0.88624304  0.20704519  0.58202523  1
  Al  Al4  1  0.44473590  0.09416834  0.33915291  1
  Al  Al5  1  0.55489412  0.20519433  0.08503790  1
  Al  Al6  1  0.10979275  0.09252170  0.82988525  1
  Al  Al7  1  0.22253824  0.20526733  0.59879873  1
  Al  Al8  1  0.77861023  0.09312336  0.33222655  1
  Al  Al9  1  0.89025537  0.20519439  0.08503790  1
  Al  Al10  1  0.44802918  0.09252176  0.82988518  1
  Al  Al11  1  0.55705559  0.20704516  0.58202523  1
  Al  Al12  1  0.11143942  0.42746499  0.33915293  1
  Al  Al13  1  0.22246574  0.53762287  0.08503791  1
  Al  Al14  1  0.77870777  0.42718238  0.83472496  1
  Al  Al15  1  0.88624299  0.53978454  0.58202525  1
  Al  Al16  1  0.44549020  0.42821880  0.33165749  1
  Al  Al17  1  0.55587178  0.53860050  0.08155302  1
  Al  Al18  1  0.10979273  0.43075842  0.82988515  1
  Al  Al19  1  0.22431640  0.53978446  0.58202522  1
  Al  Al20  1  0.77663487  0.42821885  0.33165750  1
  Al  Al21  1  0.89025539  0.53762292  0.08503789  1
  Al  Al22  1  0.44445379  0.42718237  0.83472496  1
  Al  Al23  1  0.55587172  0.53860051  0.58506058  1
  Al  Al24  1  0.11039477  0.76133898  0.33222659  1
  Al  Al25  1  0.22246573  0.87298426  0.08503791  1
  Al  Al26  1  0.77805653  0.76078538  0.83431708  1
  Al  Al27  1  0.88920513  0.87193375  0.58450083  1
  Al  Al28  1  0.44549013  0.75936370  0.33165758  1
  Al  Al29  1  0.55489404  0.87298431  0.08503790  1
  Al  Al30  1  0.11150210  0.76078532  0.83431699  1
  Al  Al31  1  0.22431628  0.86897217  0.58202522  1
  Al  Al32  1  0.77861021  0.76133899  0.33222650  1
  Al  Al33  1  0.88920521  0.87193373  0.08197769  1
  Al  Al34  1  0.44445375  0.76143647  0.83472487  1
  Al  Al35  1  0.55705555  0.86897211  0.58202523  1
  N  N36  1  0.11395523  0.09668415  0.13180719  1
  N  N37  1  0.89085819  0.20421446  0.87745679  1
  N  N38  1  0.77783826  0.09466714  0.62710267  1
  N  N39  1  0.55546680  0.20624059  0.37584378  1
  N  N40  1  0.43970428  0.09668418  0.13180728  1
  N  N41  1  0.22253817  0.20526745  0.86684494  1
  N  N42  1  0.11117950  0.09390860  0.61996091  1
  N  N43  1  0.88863649  0.20624062  0.37584378  1
  N  N44  1  0.77817061  0.09400249  0.12616307  1
  N  N45  1  0.55527122  0.20421443  0.87745678  1
  N  N46  1  0.44525553  0.09390858  0.61996084  1
  N  N47  1  0.22351188  0.53819565  0.37584378  1
  N  N48  1  0.11395523  0.42243335  0.13180729  1
  N  N49  1  0.89085820  0.53800009  0.87745677  1
  N  N50  1  0.77834810  0.42736223  0.62785723  1
  N  N51  1  0.55587171  0.53860056  0.37780631  1
  N  N52  1  0.44492742  0.42765606  0.12559154  1
  N  N53  1  0.22148574  0.53800008  0.87745677  1
  N  N54  1  0.11117951  0.42798468  0.61996080  1
  N  N55  1  0.88863641  0.53819573  0.37584380  1
  N  N56  1  0.77776037  0.42765610  0.12559154  1
  N  N57  1  0.55587175  0.53860055  0.87568792  1
  N  N58  1  0.44463346  0.42736221  0.62785723  1
  N  N59  1  0.22351180  0.87136550  0.37584378  1
  N  N60  1  0.11127390  0.76089939  0.12616312  1
  N  N61  1  0.88920519  0.87193376  0.87570079  1
  N  N62  1  0.77783820  0.76056718  0.62710272  1
  N  N63  1  0.55546682  0.87136544  0.37584378  1
  N  N64  1  0.44492738  0.76048912  0.12559162  1
  N  N65  1  0.22148572  0.87358714  0.87745677  1
  N  N66  1  0.11193849  0.76056712  0.62710262  1
  N  N67  1  0.88920511  0.87193381  0.37760096  1
  N  N68  1  0.77817058  0.76089944  0.12616302  1
  N  N69  1  0.55527112  0.87358721  0.87745677  1
  N  N70  1  0.44463340  0.76107700  0.62785714  1
