# generated using pymatgen
data_Al36N35
_symmetry_space_group_name_H-M   'P 1'
_cell_length_a   9.35216692
_cell_length_b   9.35217329
_cell_length_c   9.97532337
_cell_angle_alpha   90.00003161
_cell_angle_beta   90.00001162
_cell_angle_gamma   60.00004656
_symmetry_Int_Tables_number   1
_chemical_formula_structural   Al36N35
_chemical_formula_sum   'Al36 N35'
_cell_volume   755.58375797
_cell_formula_units_Z   1
loop_
 _symmetry_equiv_pos_site_id
 _symmetry_equiv_pos_as_xyz
  1  'x, y, z'
loop_
 _atom_site_type_symbol
 _atom_site_label
 _atom_site_symmetry_multiplicity
 _atom_site_fract_x
 _atom_site_fract_y
 _atom_site_fract_z
 _atom_site_occupancy
  Al  Al0  1  0.10903015  0.09184091  0.31724201  1
  Al  Al1  1  0.22252815  0.20533900  0.06678097  1
  Al  Al2  1  0.77820873  0.09397801  0.81816790  1
  Al  Al3  1  0.88795897  0.20620036  0.56862211  1
  Al  Al4  1  0.44952460  0.09184070  0.31724195  1
  Al  Al5  1  0.55598527  0.20595327  0.06774772  1
  Al  Al6  1  0.11112390  0.09393432  0.81830059  1
  Al  Al7  1  0.22252830  0.20533894  0.57539452  1
  Al  Al8  1  0.77837054  0.09365430  0.31771388  1
  Al  Al9  1  0.88845714  0.20595331  0.06774773  1
  Al  Al10  1  0.44533721  0.09393451  0.81830048  1
  Al  Al11  1  0.55623668  0.20620043  0.56862210  1
  Al  Al12  1  0.10902995  0.43233532  0.31724194  1
  Al  Al13  1  0.22314249  0.53879597  0.06774776  1
  Al  Al14  1  0.77789327  0.42765631  0.81830663  1
  Al  Al15  1  0.88795887  0.53904706  0.56862210  1
  Al  Al16  1  0.44517896  0.42798974  0.31734784  1
  Al  Al17  1  0.55586168  0.53867232  0.06763540  1
  Al  Al18  1  0.11112401  0.42814779  0.81830052  1
  Al  Al19  1  0.22338976  0.53904727  0.56862209  1
  Al  Al20  1  0.77722623  0.42798982  0.31734789  1
  Al  Al21  1  0.88845703  0.53879585  0.06774766  1
  Al  Al22  1  0.44484571  0.42765633  0.81830664  1
  Al  Al23  1  0.55586179  0.53867232  0.56861608  1
  Al  Al24  1  0.11084367  0.76118123  0.31771389  1
  Al  Al25  1  0.22314253  0.87126784  0.06774778  1
  Al  Al26  1  0.77820875  0.76101941  0.81816790  1
  Al  Al27  1  0.88919505  0.87200563  0.56841709  1
  Al  Al28  1  0.44517900  0.76003710  0.31734788  1
  Al  Al29  1  0.55598519  0.87126769  0.06774768  1
  Al  Al30  1  0.11116750  0.76101930  0.81816793  1
  Al  Al31  1  0.22338974  0.87076947  0.56862209  1
  Al  Al32  1  0.77837056  0.76118134  0.31771385  1
  Al  Al33  1  0.88919496  0.87200564  0.06769117  1
  Al  Al34  1  0.44484567  0.76070392  0.81830664  1
  Al  Al35  1  0.55623658  0.87076932  0.56862208  1
  N  N36  1  0.11212033  0.09493099  0.12824999  1
  N  N37  1  0.88961630  0.20506427  0.87692638  1
  N  N38  1  0.77804628  0.09430332  0.62686322  1
  N  N39  1  0.55470411  0.20598292  0.37742715  1
  N  N40  1  0.44334410  0.09493098  0.12824991  1
  N  N41  1  0.22252828  0.20533902  0.87578757  1
  N  N42  1  0.11150026  0.09431065  0.62512343  1
  N  N43  1  0.88970848  0.20598297  0.37742716  1
  N  N44  1  0.77802723  0.09434115  0.12730899  1
  N  N45  1  0.55571503  0.20506431  0.87692639  1
  N  N46  1  0.44458477  0.09431074  0.62512328  1
  N  N47  1  0.22317204  0.53751495  0.37742714  1
  N  N48  1  0.11212028  0.42615479  0.12824993  1
  N  N49  1  0.88961629  0.53852569  0.87692631  1
  N  N50  1  0.77807512  0.42756550  0.62727106  1
  N  N51  1  0.55586139  0.53867234  0.37733356  1
  N  N52  1  0.44476863  0.42757930  0.12699937  1
  N  N53  1  0.22225358  0.53852578  0.87692642  1
  N  N54  1  0.11150030  0.42739523  0.62512333  1
  N  N55  1  0.88970833  0.53751496  0.37742714  1
  N  N56  1  0.77804754  0.42757925  0.12699943  1
  N  N57  1  0.55586155  0.53867232  0.87705320  1
  N  N58  1  0.44475503  0.42756561  0.62727104  1
  N  N59  1  0.22317206  0.87251936  0.37742715  1
  N  N60  1  0.11153051  0.76083783  0.12730900  1
  N  N61  1  0.88919502  0.87200569  0.87696550  1
  N  N62  1  0.77804621  0.76085665  0.62686321  1
  N  N63  1  0.55470411  0.87251920  0.37742712  1
  N  N64  1  0.44476862  0.76085816  0.12699942  1
  N  N65  1  0.22225354  0.87242699  0.87692644  1
  N  N66  1  0.11149279  0.76085676  0.62686324  1
  N  N67  1  0.88919496  0.87200574  0.37720495  1
  N  N68  1  0.77802717  0.76083777  0.12730896  1
  N  N69  1  0.55571494  0.87242699  0.87692634  1
  N  N70  1  0.44475500  0.76088560  0.62727104  1
