# generated using pymatgen
data_Al36N35
_symmetry_space_group_name_H-M   'P 1'
_cell_length_a   9.65425438
_cell_length_b   9.65425771
_cell_length_c   9.07181096
_cell_angle_alpha   89.99999945
_cell_angle_beta   90.00001621
_cell_angle_gamma   60.00005729
_symmetry_Int_Tables_number   1
_chemical_formula_structural   Al36N35
_chemical_formula_sum   'Al36 N35'
_cell_volume   732.25525930
_cell_formula_units_Z   1
loop_
 _symmetry_equiv_pos_site_id
 _symmetry_equiv_pos_as_xyz
  1  'x, y, z'
loop_
 _atom_site_type_symbol
 _atom_site_label
 _atom_site_symmetry_multiplicity
 _atom_site_fract_x
 _atom_site_fract_y
 _atom_site_fract_z
 _atom_site_occupancy
  Al  Al0  1  0.11192911  0.09465794  0.36711450  1
  Al  Al1  1  0.22253823  0.20526734  0.10625595  1
  Al  Al2  1  0.77805127  0.09424116  0.87268157  1
  Al  Al3  1  0.89041743  0.20513409  0.62169843  1
  Al  Al4  1  0.44375651  0.09465798  0.36711458  1
  Al  Al5  1  0.55707340  0.20710781  0.12545886  1
  Al  Al6  1  0.10957237  0.09230111  0.87763764  1
  Al  Al7  1  0.22253822  0.20526729  0.63261639  1
  Al  Al8  1  0.77861427  0.09311512  0.37498728  1
  Al  Al9  1  0.88616245  0.20710792  0.12545883  1
  Al  Al10  1  0.44847001  0.09230123  0.87763755  1
  Al  Al11  1  0.55479229  0.20513411  0.62169841  1
  Al  Al12  1  0.11192905  0.42648564  0.36711447  1
  Al  Al13  1  0.22437924  0.53980213  0.12545885  1
  Al  Al14  1  0.77878129  0.42714550  0.87222649  1
  Al  Al15  1  0.89041741  0.53752109  0.62169843  1
  Al  Al16  1  0.44549138  0.42821989  0.37562515  1
  Al  Al17  1  0.55587179  0.53860044  0.12190967  1
  Al  Al18  1  0.10957230  0.43119923  0.87763765  1
  Al  Al19  1  0.22240559  0.53752099  0.62169841  1
  Al  Al20  1  0.77663256  0.42821990  0.37562526  1
  Al  Al21  1  0.88616243  0.53980221  0.12545882  1
  Al  Al22  1  0.44441713  0.42714547  0.87222660  1
  Al  Al23  1  0.55587179  0.53860043  0.62577854  1
  Al  Al24  1  0.11038669  0.76134291  0.37498726  1
  Al  Al25  1  0.22437911  0.86889156  0.12545887  1
  Al  Al26  1  0.77805118  0.76077989  0.87268161  1
  Al  Al27  1  0.88920520  0.87193366  0.62524904  1
  Al  Al28  1  0.44549130  0.75936125  0.37562509  1
  Al  Al29  1  0.55707327  0.86889161  0.12545887  1
  Al  Al30  1  0.11151290  0.76077981  0.87268159  1
  Al  Al31  1  0.22240557  0.87314620  0.62169840  1
  Al  Al32  1  0.77861423  0.76134296  0.37498723  1
  Al  Al33  1  0.88920521  0.87193365  0.12254663  1
  Al  Al34  1  0.44441706  0.76150983  0.87222666  1
  Al  Al35  1  0.55479224  0.87314624  0.62169839  1
  N  N36  1  0.11129394  0.09402299  0.09258738  1
  N  N37  1  0.89099315  0.20412450  0.83420991  1
  N  N38  1  0.77817309  0.09399746  0.58572879  1
  N  N39  1  0.55549050  0.20619124  0.33621519  1
  N  N40  1  0.44502665  0.09402298  0.09258725  1
  N  N41  1  0.22253809  0.20526742  0.84627634  1
  N  N42  1  0.11419952  0.09692832  0.57957649  1
  N  N43  1  0.88866195  0.20619130  0.33621517  1
  N  N44  1  0.77781056  0.09472248  0.08464475  1
  N  N45  1  0.55522614  0.20412453  0.83420989  1
  N  N46  1  0.43921573  0.09692838  0.57957656  1
  N  N47  1  0.22346259  0.53821932  0.33621516  1
  N  N48  1  0.11129395  0.42775577  0.09258737  1
  N  N49  1  0.89099310  0.53795494  0.83420992  1
  N  N50  1  0.77774332  0.42766454  0.58638615  1
  N  N51  1  0.55587174  0.53860049  0.33390376  1
  N  N52  1  0.44461293  0.42734148  0.08379744  1
  N  N53  1  0.22139601  0.53795486  0.83420991  1
  N  N54  1  0.11419952  0.42194475  0.57957646  1
  N  N55  1  0.88866195  0.53821937  0.33621515  1
  N  N56  1  0.77838934  0.42734151  0.08379732  1
  N  N57  1  0.55587175  0.53860047  0.83622329  1
  N  N58  1  0.44493600  0.42766453  0.58638605  1
  N  N59  1  0.22346250  0.87139095  0.33621517  1
  N  N60  1  0.11199403  0.76053928  0.08464475  1
  N  N61  1  0.88920520  0.87193365  0.83619355  1
  N  N62  1  0.77817304  0.76090184  0.58572876  1
  N  N63  1  0.55549046  0.87139101  0.33621519  1
  N  N64  1  0.44461285  0.76111811  0.08379751  1
  N  N65  1  0.22139595  0.87372197  0.83420992  1
  N  N66  1  0.11126898  0.76090178  0.58572878  1
  N  N67  1  0.88920513  0.87193372  0.33411153  1
  N  N68  1  0.77781047  0.76053936  0.08464477  1
  N  N69  1  0.55522605  0.87372202  0.83420990  1
  N  N70  1  0.44493596  0.76047193  0.58638600  1
