# generated using pymatgen
data_Al36N35
_symmetry_space_group_name_H-M   'P 1'
_cell_length_a   9.60597569
_cell_length_b   9.60597681
_cell_length_c   9.22605091
_cell_angle_alpha   89.99999810
_cell_angle_beta   90.00001596
_cell_angle_gamma   60.00002029
_symmetry_Int_Tables_number   1
_chemical_formula_structural   Al36N35
_chemical_formula_sum   'Al36 N35'
_cell_volume   737.27512985
_cell_formula_units_Z   1
loop_
 _symmetry_equiv_pos_site_id
 _symmetry_equiv_pos_as_xyz
  1  'x, y, z'
loop_
 _atom_site_type_symbol
 _atom_site_label
 _atom_site_symmetry_multiplicity
 _atom_site_fract_x
 _atom_site_fract_y
 _atom_site_fract_z
 _atom_site_occupancy
  Al  Al0  1  0.11143786  0.09416663  0.37029735  1
  Al  Al1  1  0.22253828  0.20526726  0.11065332  1
  Al  Al2  1  0.77805753  0.09422868  0.87512601  1
  Al  Al3  1  0.89025476  0.20519456  0.62440977  1
  Al  Al4  1  0.44473915  0.09416668  0.37029743  1
  Al  Al5  1  0.55705563  0.20704468  0.12741631  1
  Al  Al6  1  0.10979373  0.09252257  0.87956397  1
  Al  Al7  1  0.22253823  0.20526725  0.63355820  1
  Al  Al8  1  0.77860932  0.09312509  0.37721533  1
  Al  Al9  1  0.88624334  0.20704476  0.12741631  1
  Al  Al10  1  0.44802730  0.09252264  0.87956389  1
  Al  Al11  1  0.55489449  0.20519455  0.62440977  1
  Al  Al12  1  0.11143783  0.42746819  0.37029732  1
  Al  Al13  1  0.22431602  0.53978444  0.12741631  1
  Al  Al14  1  0.77870568  0.42718336  0.87471995  1
  Al  Al15  1  0.89025476  0.53762322  0.62440977  1
  Al  Al16  1  0.44548912  0.42821764  0.37778602  1
  Al  Al17  1  0.55587176  0.53860043  0.12438861  1
  Al  Al18  1  0.10979370  0.43075645  0.87956399  1
  Al  Al19  1  0.22246605  0.53762312  0.62440976  1
  Al  Al20  1  0.77663709  0.42821767  0.37778611  1
  Al  Al21  1  0.88624334  0.53978446  0.12741630  1
  Al  Al22  1  0.44445489  0.42718335  0.87472004  1
  Al  Al23  1  0.55587177  0.53860042  0.62788690  1
  Al  Al24  1  0.11039659  0.76133799  0.37721536  1
  Al  Al25  1  0.22431592  0.86897238  0.12741631  1
  Al  Al26  1  0.77805745  0.76078621  0.87512603  1
  Al  Al27  1  0.88920518  0.87193364  0.62746070  1
  Al  Al28  1  0.44548904  0.75936582  0.37778597  1
  Al  Al29  1  0.55705555  0.86897241  0.12741631  1
  Al  Al30  1  0.11150031  0.76078614  0.87512600  1
  Al  Al31  1  0.22246602  0.87298355  0.62440977  1
  Al  Al32  1  0.77860930  0.76133802  0.37721531  1
  Al  Al33  1  0.88920516  0.87193367  0.12494531  1
  Al  Al34  1  0.44445484  0.76143427  0.87472009  1
  Al  Al35  1  0.55489444  0.87298356  0.62440977  1
  N  N36  1  0.11118002  0.09390905  0.08948041  1
  N  N37  1  0.89085800  0.20421460  0.83198680  1
  N  N38  1  0.77816975  0.09400422  0.58327649  1
  N  N39  1  0.55546641  0.20624025  0.33359456  1
  N  N40  1  0.44525460  0.09390902  0.08948030  1
  N  N41  1  0.22253813  0.20526735  0.84259343  1
  N  N42  1  0.11395428  0.09668310  0.57763717  1
  N  N43  1  0.88863701  0.20624031  0.33359456  1
  N  N44  1  0.77783904  0.09466558  0.08233729  1
  N  N45  1  0.55527115  0.20421462  0.83198680  1
  N  N46  1  0.43970627  0.09668314  0.57763723  1
  N  N47  1  0.22351164  0.53819520  0.33359455  1
  N  N48  1  0.11118003  0.42798367  0.08948041  1
  N  N49  1  0.89085798  0.53799994  0.83198680  1
  N  N50  1  0.77776203  0.42765522  0.58384891  1
  N  N51  1  0.55587173  0.53860046  0.33163832  1
  N  N52  1  0.44463437  0.42736303  0.08158403  1
  N  N53  1  0.22148604  0.53799988  0.83198681  1
  N  N54  1  0.11395429  0.42243527  0.57763715  1
  N  N55  1  0.88863701  0.53819522  0.33359454  1
  N  N56  1  0.77834639  0.42736304  0.08158393  1
  N  N57  1  0.55587174  0.53860044  0.83374898  1
  N  N58  1  0.44492665  0.42765520  0.58384882  1
  N  N59  1  0.22351156  0.87136592  0.33359455  1
  N  N60  1  0.11193701  0.76056783  0.08233727  1
  N  N61  1  0.88920516  0.87193365  0.83373503  1
  N  N62  1  0.77816971  0.76089849  0.58327647  1
  N  N63  1  0.55546638  0.87136599  0.33359456  1
  N  N64  1  0.44463431  0.76107520  0.08158408  1
  N  N65  1  0.22148599  0.87358685  0.83198683  1
  N  N66  1  0.11127572  0.76089845  0.58327651  1
  N  N67  1  0.88920512  0.87193370  0.33184179  1
  N  N68  1  0.77783898  0.76056788  0.08233730  1
  N  N69  1  0.55527107  0.87358687  0.83198681  1
  N  N70  1  0.44492661  0.76049069  0.58384879  1
