# generated using pymatgen
data_Al36N35
_symmetry_space_group_name_H-M   'P 1'
_cell_length_a   9.65432647
_cell_length_b   9.65432781
_cell_length_c   9.07152784
_cell_angle_alpha   90.00000308
_cell_angle_beta   89.99998947
_cell_angle_gamma   60.00004835
_symmetry_Int_Tables_number   1
_chemical_formula_structural   Al36N35
_chemical_formula_sum   'Al36 N35'
_cell_volume   732.24312462
_cell_formula_units_Z   1
loop_
 _symmetry_equiv_pos_site_id
 _symmetry_equiv_pos_as_xyz
  1  'x, y, z'
loop_
 _atom_site_type_symbol
 _atom_site_label
 _atom_site_symmetry_multiplicity
 _atom_site_fract_x
 _atom_site_fract_y
 _atom_site_fract_z
 _atom_site_occupancy
  Al  Al0  1  0.11193121  0.09466018  0.34233604  1
  Al  Al1  1  0.22253824  0.20526736  0.07682525  1
  Al  Al2  1  0.77805003  0.09424374  0.83676551  1
  Al  Al3  1  0.88616198  0.20710842  0.58398384  1
  Al  Al4  1  0.44375238  0.09466014  0.34233610  1
  Al  Al5  1  0.55479189  0.20513353  0.08775392  1
  Al  Al6  1  0.10957129  0.09230016  0.83181262  1
  Al  Al7  1  0.22253818  0.20526739  0.60319699  1
  Al  Al8  1  0.77861556  0.09311268  0.33445660  1
  Al  Al9  1  0.89041840  0.20513357  0.08775390  1
  Al  Al10  1  0.44847213  0.09230028  0.83181256  1
  Al  Al11  1  0.55707342  0.20710835  0.58398381  1
  Al  Al12  1  0.11193112  0.42648156  0.34233615  1
  Al  Al13  1  0.22240492  0.53752069  0.08775393  1
  Al  Al14  1  0.77878447  0.42714401  0.83722291  1
  Al  Al15  1  0.88616192  0.53980233  0.58398386  1
  Al  Al16  1  0.44549283  0.42822146  0.33381977  1
  Al  Al17  1  0.55587178  0.53860050  0.08366169  1
  Al  Al18  1  0.10957123  0.43120147  0.83181252  1
  Al  Al19  1  0.22437970  0.53980220  0.58398382  1
  Al  Al20  1  0.77662959  0.42822149  0.33381976  1
  Al  Al21  1  0.89041840  0.53752074  0.08775389  1
  Al  Al22  1  0.44441550  0.42714397  0.83722289  1
  Al  Al23  1  0.55587175  0.53860050  0.58754532  1
  Al  Al24  1  0.11038412  0.76134431  0.33445668  1
  Al  Al25  1  0.22240493  0.87314725  0.08775394  1
  Al  Al26  1  0.77804994  0.76077877  0.83676554  1
  Al  Al27  1  0.88920518  0.87193371  0.58690479  1
  Al  Al28  1  0.44549277  0.75935840  0.33381988  1
  Al  Al29  1  0.55479182  0.87314733  0.08775393  1
  Al  Al30  1  0.11151535  0.76077869  0.83676543  1
  Al  Al31  1  0.22437955  0.86889118  0.58398380  1
  Al  Al32  1  0.77861552  0.76134435  0.33445658  1
  Al  Al33  1  0.88920522  0.87193373  0.08419006  1
  Al  Al34  1  0.44441544  0.76151315  0.83722279  1
  Al  Al35  1  0.55707332  0.86889114  0.58398380  1
  N  N36  1  0.11420096  0.09692989  0.12986507  1
  N  N37  1  0.89099392  0.20412400  0.87523286  1
  N  N38  1  0.77780944  0.09472480  0.62479358  1
  N  N39  1  0.55549077  0.20619162  0.37321913  1
  N  N40  1  0.43921280  0.09692993  0.12986514  1
  N  N41  1  0.22253812  0.20526748  0.86315839  1
  N  N42  1  0.11129359  0.09402277  0.61684968  1
  N  N43  1  0.88866143  0.20619166  0.37321915  1
  N  N44  1  0.77817418  0.09399535  0.12370824  1
  N  N45  1  0.55522593  0.20412398  0.87523285  1
  N  N46  1  0.44502725  0.09402275  0.61684962  1
  N  N47  1  0.22346289  0.53821962  0.37321916  1
  N  N48  1  0.11420095  0.42194195  0.12986516  1
  N  N49  1  0.89099390  0.53795478  0.87523283  1
  N  N50  1  0.77839162  0.42734046  0.62564251  1
  N  N51  1  0.55587171  0.53860055  0.37554019  1
  N  N52  1  0.44493703  0.42766569  0.12305117  1
  N  N53  1  0.22139538  0.53795475  0.87523284  1
  N  N54  1  0.11129360  0.42775651  0.61684958  1
  N  N55  1  0.88866137  0.53821972  0.37321918  1
  N  N56  1  0.77774116  0.42766572  0.12305115  1
  N  N57  1  0.55587175  0.53860054  0.87320996  1
  N  N58  1  0.44461175  0.42734042  0.62564248  1
  N  N59  1  0.22346279  0.87139051  0.37321915  1
  N  N60  1  0.11126674  0.76090300  0.12370832  1
  N  N61  1  0.88920521  0.87193372  0.87323892  1
  N  N62  1  0.77780935  0.76053836  0.62479361  1
  N  N63  1  0.55549077  0.87139046  0.37321913  1
  N  N64  1  0.44493700  0.76046991  0.12305126  1
  N  N65  1  0.22139535  0.87372281  0.87523285  1
  N  N66  1  0.11199622  0.76053828  0.62479351  1
  N  N67  1  0.88920511  0.87193380  0.37533066  1
  N  N68  1  0.77817414  0.76090306  0.12370821  1
  N  N69  1  0.55522582  0.87372291  0.87523285  1
  N  N70  1  0.44461167  0.76112053  0.62564237  1
