# generated using pymatgen
data_Al36N35
_symmetry_space_group_name_H-M   'P 1'
_cell_length_a   9.39125620
_cell_length_b   9.39125587
_cell_length_c   9.86837962
_cell_angle_alpha   89.99999879
_cell_angle_beta   90.00000869
_cell_angle_gamma   59.99999797
_symmetry_Int_Tables_number   1
_chemical_formula_structural   Al36N35
_chemical_formula_sum   'Al36 N35'
_cell_volume   753.74393782
_cell_formula_units_Z   1
loop_
 _symmetry_equiv_pos_site_id
 _symmetry_equiv_pos_as_xyz
  1  'x, y, z'
loop_
 _atom_site_type_symbol
 _atom_site_label
 _atom_site_symmetry_multiplicity
 _atom_site_fract_x
 _atom_site_fract_y
 _atom_site_fract_z
 _atom_site_occupancy
  Al  Al0  1  0.10911446  0.09184370  0.38270752  1
  Al  Al1  1  0.22253834  0.20526741  0.12656347  1
  Al  Al2  1  0.77819205  0.09395998  0.88269276  1
  Al  Al3  1  0.88880383  0.20576309  0.63303380  1
  Al  Al4  1  0.44938617  0.09184359  0.38270757  1
  Al  Al5  1  0.55639462  0.20628251  0.13254867  1
  Al  Al6  1  0.11109273  0.09382184  0.88347948  1
  Al  Al7  1  0.22253816  0.20526748  0.63480575  1
  Al  Al8  1  0.77842519  0.09349373  0.38341532  1
  Al  Al9  1  0.88766737  0.20628245  0.13254869  1
  Al  Al10  1  0.44542936  0.09382200  0.88347955  1
  Al  Al11  1  0.55577724  0.20576307  0.63303385  1
  Al  Al12  1  0.10911442  0.43211533  0.38270756  1
  Al  Al13  1  0.22355334  0.53912373  0.13254867  1
  Al  Al14  1  0.77805609  0.42750846  0.88254064  1
  Al  Al15  1  0.88880376  0.53850627  0.63303387  1
  Al  Al16  1  0.44526379  0.42799307  0.38377194  1
  Al  Al17  1  0.55587172  0.53860084  0.13221066  1
  Al  Al18  1  0.11109287  0.42815859  0.88347954  1
  Al  Al19  1  0.22303386  0.53850643  0.63303382  1
  Al  Al20  1  0.77708686  0.42799308  0.38377189  1
  Al  Al21  1  0.88766731  0.53912348  0.13254871  1
  Al  Al22  1  0.44477932  0.42750856  0.88254064  1
  Al  Al23  1  0.55587167  0.53860082  0.63356321  1
  Al  Al24  1  0.11076465  0.76115437  0.38341532  1
  Al  Al25  1  0.22355330  0.87039645  0.13254868  1
  Al  Al26  1  0.77819208  0.76092126  0.88269278  1
  Al  Al27  1  0.88920503  0.87193408  0.63348704  1
  Al  Al28  1  0.44526377  0.75981622  0.38377191  1
  Al  Al29  1  0.55639451  0.87039625  0.13254871  1
  Al  Al30  1  0.11123091  0.76092121  0.88269274  1
  Al  Al31  1  0.22303386  0.87153304  0.63303378  1
  Al  Al32  1  0.77842523  0.76115440  0.38341536  1
  Al  Al33  1  0.88920509  0.87193410  0.13243572  1
  Al  Al34  1  0.44477923  0.76078533  0.88254064  1
  Al  Al35  1  0.55577715  0.87153287  0.63303386  1
  N  N36  1  0.11152417  0.09425329  0.07845532  1
  N  N37  1  0.88992031  0.20482792  0.82573040  1
  N  N38  1  0.77805496  0.09423420  0.57554985  1
  N  N39  1  0.55494912  0.20603416  0.32536674  1
  N  N40  1  0.44456674  0.09425330  0.07845541  1
  N  N41  1  0.22253821  0.20526747  0.82773078  1
  N  N42  1  0.11240678  0.09513603  0.57366854  1
  N  N43  1  0.88936089  0.20603414  0.32536674  1
  N  N44  1  0.77803050  0.09428335  0.07573744  1
  N  N45  1  0.55559581  0.20482798  0.82573045  1
  N  N46  1  0.44280120  0.09513602  0.57366862  1
  N  N47  1  0.22330495  0.53767832  0.32536674  1
  N  N48  1  0.11152423  0.42729582  0.07845540  1
  N  N49  1  0.88992032  0.53832488  0.82573049  1
  N  N50  1  0.77801951  0.42752682  0.57585278  1
  N  N51  1  0.55587149  0.53860080  0.32526374  1
  N  N52  1  0.44475901  0.42748819  0.07531855  1
  N  N53  1  0.22209879  0.53832502  0.82573043  1
  N  N54  1  0.11240681  0.42553046  0.57366859  1
  N  N55  1  0.88936084  0.53767819  0.32536680  1
  N  N56  1  0.77809702  0.42748811  0.07531854  1
  N  N57  1  0.55587159  0.53860080  0.82580688  1
  N  N58  1  0.44479766  0.42752685  0.57585286  1
  N  N59  1  0.22330491  0.87209013  0.32536673  1
  N  N60  1  0.11155424  0.76075962  0.07573742  1
  N  N61  1  0.88920506  0.87193412  0.82587825  1
  N  N62  1  0.77805493  0.76078406  0.57554990  1
  N  N63  1  0.55494907  0.87208998  0.32536681  1
  N  N64  1  0.44475894  0.76082618  0.07531855  1
  N  N65  1  0.22209875  0.87264950  0.82573039  1
  N  N66  1  0.11150505  0.76078414  0.57554984  1
  N  N67  1  0.88920507  0.87193413  0.32541489  1
  N  N68  1  0.77803046  0.76075948  0.07573747  1
  N  N69  1  0.55559574  0.87264945  0.82573049  1
  N  N70  1  0.44479759  0.76074873  0.57585281  1
