# generated using pymatgen
data_Al36N35
_symmetry_space_group_name_H-M   'P 1'
_cell_length_a   9.35223895
_cell_length_b   9.35213875
_cell_length_c   9.97619820
_cell_angle_alpha   89.99998569
_cell_angle_beta   90.00026353
_cell_angle_gamma   59.99994931
_symmetry_Int_Tables_number   1
_chemical_formula_structural   Al36N35
_chemical_formula_sum   'Al36 N35'
_cell_volume   755.65231132
_cell_formula_units_Z   1
loop_
 _symmetry_equiv_pos_site_id
 _symmetry_equiv_pos_as_xyz
  1  'x, y, z'
loop_
 _atom_site_type_symbol
 _atom_site_label
 _atom_site_symmetry_multiplicity
 _atom_site_fract_x
 _atom_site_fract_y
 _atom_site_fract_z
 _atom_site_occupancy
  Al  Al0  1  0.10906669  0.09145631  0.41455572  1
  Al  Al1  1  0.22260325  0.20495430  0.15635381  1
  Al  Al2  1  0.77824970  0.09365560  0.91360105  1
  Al  Al3  1  0.88845226  0.20563339  0.66402250  1
  Al  Al4  1  0.44957508  0.09144271  0.41450831  1
  Al  Al5  1  0.55631135  0.20582573  0.16314237  1
  Al  Al6  1  0.11115484  0.09360532  0.91345637  1
  Al  Al7  1  0.22254135  0.20501774  0.66498707  1
  Al  Al8  1  0.77841110  0.09327258  0.41405030  1
  Al  Al9  1  0.88804422  0.20581164  0.16314754  1
  Al  Al10  1  0.44536527  0.09362767  0.91346345  1
  Al  Al11  1  0.55599227  0.20562393  0.66401098  1
  Al  Al12  1  0.10909430  0.43194512  0.41453516  1
  Al  Al13  1  0.22347412  0.53866187  0.16315012  1
  Al  Al14  1  0.77796502  0.42732518  0.91347812  1
  Al  Al15  1  0.88847649  0.53844320  0.66402290  1
  Al  Al16  1  0.44523127  0.42760931  0.41442988  1
  Al  Al17  1  0.55593836  0.53829128  0.16315842  1
  Al  Al18  1  0.11118115  0.42784358  0.91345563  1
  Al  Al19  1  0.22314522  0.53848076  0.66401839  1
  Al  Al20  1  0.77729169  0.42759786  0.41440389  1
  Al  Al21  1  0.88805171  0.53865376  0.16313973  1
  Al  Al22  1  0.44491443  0.42733524  0.91344611  1
  Al  Al23  1  0.55589305  0.53833966  0.66413098  1
  Al  Al24  1  0.11089039  0.76079681  0.41403793  1
  Al  Al25  1  0.22346062  0.87039781  0.16314741  1
  Al  Al26  1  0.77826335  0.76068825  0.91357965  1
  Al  Al27  1  0.88922109  0.87166726  0.66407314  1
  Al  Al28  1  0.44522583  0.75964712  0.41441928  1
  Al  Al29  1  0.55632457  0.87037167  0.16313918  1
  Al  Al30  1  0.11121323  0.76069115  0.91362383  1
  Al  Al31  1  0.22315095  0.87092535  0.66402470  1
  Al  Al32  1  0.77842339  0.76079066  0.41406417  1
  Al  Al33  1  0.88926353  0.87161854  0.16335651  1
  Al  Al34  1  0.44491463  0.76037048  0.91346515  1
  Al  Al35  1  0.55598549  0.87093969  0.66401158  1
  N  N36  1  0.11157406  0.09393988  0.10661489  1
  N  N37  1  0.88964706  0.20474745  0.85483082  1
  N  N38  1  0.77803787  0.09401257  0.60444297  1
  N  N39  1  0.55475615  0.20559342  0.35432590  1
  N  N40  1  0.44467172  0.09392027  0.10663939  1
  N  N41  1  0.22256082  0.20502995  0.85596923  1
  N  N42  1  0.11212354  0.09460963  0.60353115  1
  N  N43  1  0.88978234  0.20558080  0.35433483  1
  N  N44  1  0.77812550  0.09392554  0.10489834  1
  N  N45  1  0.55575277  0.20473873  0.85482283  1
  N  N46  1  0.44335054  0.09459935  0.60348808  1
  N  N47  1  0.22323278  0.53712078  0.35433175  1
  N  N48  1  0.11159117  0.42700750  0.10662363  1
  N  N49  1  0.88968030  0.53818953  0.85483026  1
  N  N50  1  0.77807636  0.42723145  0.60473048  1
  N  N51  1  0.55592492  0.53827787  0.35442761  1
  N  N52  1  0.44484059  0.42718449  0.10448256  1
  N  N53  1  0.22231873  0.53820838  0.85482767  1
  N  N54  1  0.11213879  0.42582491  0.60351068  1
  N  N55  1  0.88978144  0.53711157  0.35432880  1
  N  N56  1  0.77816432  0.42717509  0.10450101  1
  N  N57  1  0.55594640  0.53834002  0.85470301  1
  N  N58  1  0.44477726  0.42724744  0.60476935  1
  N  N59  1  0.22322789  0.87213874  0.35433481  1
  N  N60  1  0.11156750  0.76048120  0.10491549  1
  N  N61  1  0.88924705  0.87168105  0.85479161  1
  N  N62  1  0.77804028  0.76048853  0.60446299  1
  N  N63  1  0.55476595  0.87211948  0.35432335  1
  N  N64  1  0.44482912  0.76050573  0.10449605  1
  N  N65  1  0.22231435  0.87208139  0.85483631  1
  N  N66  1  0.11154670  0.76049991  0.60442425  1
  N  N67  1  0.88924023  0.87161880  0.35455471  1
  N  N68  1  0.77813585  0.76045809  0.10488619  1
  N  N69  1  0.55575569  0.87212345  0.85482507  1
  N  N70  1  0.44477657  0.76052704  0.60475513  1
