# generated using pymatgen
data_Al36N35
_symmetry_space_group_name_H-M   'P 1'
_cell_length_a   9.39091775
_cell_length_b   9.39093362
_cell_length_c   9.86880454
_cell_angle_alpha   89.99999420
_cell_angle_beta   89.99999286
_cell_angle_gamma   60.00026165
_symmetry_Int_Tables_number   1
_chemical_formula_structural   Al36N35
_chemical_formula_sum   'Al36 N35'
_cell_volume   753.72536711
_cell_formula_units_Z   1
loop_
 _symmetry_equiv_pos_site_id
 _symmetry_equiv_pos_as_xyz
  1  'x, y, z'
loop_
 _atom_site_type_symbol
 _atom_site_label
 _atom_site_symmetry_multiplicity
 _atom_site_fract_x
 _atom_site_fract_y
 _atom_site_fract_z
 _atom_site_occupancy
  Al  Al0  1  0.10911201  0.09184036  0.32672026  1
  Al  Al1  1  0.22253828  0.20526705  0.07463846  1
  Al  Al2  1  0.77819262  0.09395815  0.82674010  1
  Al  Al3  1  0.88767103  0.20628029  0.57688887  1
  Al  Al4  1  0.44939165  0.09183999  0.32672020  1
  Al  Al5  1  0.55577908  0.20576391  0.07639769  1
  Al  Al6  1  0.11109543  0.09382374  0.82596109  1
  Al  Al7  1  0.22253843  0.20526698  0.58285614  1
  Al  Al8  1  0.77842456  0.09349445  0.32602059  1
  Al  Al9  1  0.88880095  0.20576393  0.07639770  1
  Al  Al10  1  0.44542406  0.09382390  0.82596101  1
  Al  Al11  1  0.55639292  0.20628035  0.57688892  1
  Al  Al12  1  0.10911163  0.43212012  0.32672015  1
  Al  Al13  1  0.22303524  0.53850774  0.07639771  1
  Al  Al14  1  0.77805449  0.42750852  0.82689194  1
  Al  Al15  1  0.88767094  0.53912125  0.57688886  1
  Al  Al16  1  0.44526306  0.42799153  0.32566436  1
  Al  Al17  1  0.55587177  0.53860040  0.07587381  1
  Al  Al18  1  0.11109559  0.42815248  0.82596103  1
  Al  Al19  1  0.22355173  0.53912148  0.57688893  1
  Al  Al20  1  0.77708847  0.42799156  0.32566441  1
  Al  Al21  1  0.88880087  0.53850756  0.07639764  1
  Al  Al22  1  0.44478019  0.42750860  0.82689199  1
  Al  Al23  1  0.55587182  0.53860040  0.57722175  1
  Al  Al24  1  0.11076619  0.76115291  0.32602061  1
  Al  Al25  1  0.22303522  0.87152964  0.07639775  1
  Al  Al26  1  0.77819265  0.76092102  0.82674011  1
  Al  Al27  1  0.88920519  0.87193366  0.57699688  1
  Al  Al28  1  0.44526306  0.75981702  0.32566441  1
  Al  Al29  1  0.55577899  0.87152945  0.07639766  1
  Al  Al30  1  0.11122991  0.76092096  0.82674012  1
  Al  Al31  1  0.22355167  0.87039957  0.57688888  1
  Al  Al32  1  0.77842456  0.76115291  0.32602055  1
  Al  Al33  1  0.88920515  0.87193365  0.07594942  1
  Al  Al34  1  0.44478009  0.76078292  0.82689197  1
  Al  Al35  1  0.55639283  0.87039934  0.57688887  1
  N  N36  1  0.11240422  0.09513262  0.13576859  1
  N  N37  1  0.88991897  0.20482862  0.88370913  1
  N  N38  1  0.77803096  0.09428163  0.63370285  1
  N  N39  1  0.55494828  0.20603301  0.38407651  1
  N  N40  1  0.44280643  0.09513260  0.13576857  1
  N  N41  1  0.22253833  0.20526710  0.88172498  1
  N  N42  1  0.11152631  0.09425458  0.63099179  1
  N  N43  1  0.88936285  0.20603299  0.38407648  1
  N  N44  1  0.77805454  0.09423427  0.13389239  1
  N  N45  1  0.55559632  0.20482866  0.88370913  1
  N  N46  1  0.44456251  0.09425458  0.63099167  1
  N  N47  1  0.22330430  0.53767702  0.38407653  1
  N  N48  1  0.11240425  0.42553482  0.13576857  1
  N  N49  1  0.88991900  0.53832489  0.88370907  1
  N  N50  1  0.77809657  0.42748750  0.63412145  1
  N  N51  1  0.55587162  0.53860044  0.38417606  1
  N  N52  1  0.44479729  0.42752562  0.13358992  1
  N  N53  1  0.22209998  0.53832504  0.88370917  1
  N  N54  1  0.11152639  0.42729070  0.63099171  1
  N  N55  1  0.88936263  0.53767699  0.38407647  1
  N  N56  1  0.77802033  0.42752559  0.13358996  1
  N  N57  1  0.55587171  0.53860044  0.88363623  1
  N  N58  1  0.44475929  0.42748756  0.63412151  1
  N  N59  1  0.22330426  0.87209155  0.38407650  1
  N  N60  1  0.11150601  0.76078284  0.13389243  1
  N  N61  1  0.88920520  0.87193375  0.88356466  1
  N  N62  1  0.77803093  0.76075906  0.63370289  1
  N  N63  1  0.55494840  0.87209124  0.38407648  1
  N  N64  1  0.44479724  0.76074868  0.13358996  1
  N  N65  1  0.22209993  0.87264768  0.88370918  1
  N  N66  1  0.11155341  0.76075918  0.63370289  1
  N  N67  1  0.88920523  0.87193378  0.38402476  1
  N  N68  1  0.77805452  0.76078275  0.13389236  1
  N  N69  1  0.55559624  0.87264764  0.88370910  1
  N  N70  1  0.44475921  0.76082484  0.63412148  1
