# generated using pymatgen
data_Al36N35
_symmetry_space_group_name_H-M   'P 1'
_cell_length_a   9.35198087
_cell_length_b   9.35198131
_cell_length_c   9.97576232
_cell_angle_alpha   90.00000632
_cell_angle_beta   90.00000004
_cell_angle_gamma   60.00000693
_symmetry_Int_Tables_number   1
_chemical_formula_structural   Al36N35
_chemical_formula_sum   'Al36 N35'
_cell_volume   755.58616180
_cell_formula_units_Z   1
loop_
 _symmetry_equiv_pos_site_id
 _symmetry_equiv_pos_as_xyz
  1  'x, y, z'
loop_
 _atom_site_type_symbol
 _atom_site_label
 _atom_site_symmetry_multiplicity
 _atom_site_fract_x
 _atom_site_fract_y
 _atom_site_fract_z
 _atom_site_occupancy
  Al  Al0  1  0.10901102  0.09198955  0.30188639  1
  Al  Al1  1  0.22250751  0.20548602  0.05142802  1
  Al  Al2  1  0.77818816  0.09412496  0.80281548  1
  Al  Al3  1  0.88793888  0.20634714  0.55327086  1
  Al  Al4  1  0.44950077  0.09198938  0.30188635  1
  Al  Al5  1  0.55596564  0.20610041  0.05239541  1
  Al  Al6  1  0.11110235  0.09408044  0.80295171  1
  Al  Al7  1  0.22250771  0.20548592  0.56005685  1
  Al  Al8  1  0.77834985  0.09380141  0.30236270  1
  Al  Al9  1  0.88843534  0.20610048  0.05239545  1
  Al  Al10  1  0.44531845  0.09408063  0.80295163  1
  Al  Al11  1  0.55621577  0.20634713  0.55327085  1
  Al  Al12  1  0.10901095  0.43247913  0.30188635  1
  Al  Al13  1  0.22312207  0.53894392  0.05239543  1
  Al  Al14  1  0.77787218  0.42780367  0.80295493  1
  Al  Al15  1  0.88793885  0.53919368  0.55327085  1
  Al  Al16  1  0.44515818  0.42813665  0.30199591  1
  Al  Al17  1  0.55584107  0.53881931  0.05228349  1
  Al  Al18  1  0.11110243  0.42829675  0.80295167  1
  Al  Al19  1  0.22336898  0.53919382  0.55327083  1
  Al  Al20  1  0.77720592  0.42813678  0.30199597  1
  Al  Al21  1  0.88843531  0.53894385  0.05239539  1
  Al  Al22  1  0.44482534  0.42780366  0.80295490  1
  Al  Al23  1  0.55584120  0.53881927  0.55326481  1
  Al  Al24  1  0.11082319  0.76132820  0.30236270  1
  Al  Al25  1  0.22312209  0.87141366  0.05239546  1
  Al  Al26  1  0.77818820  0.76116653  0.80281546  1
  Al  Al27  1  0.88917453  0.87215255  0.55306523  1
  Al  Al28  1  0.44515820  0.76018459  0.30199592  1
  Al  Al29  1  0.55596563  0.87141354  0.05239538  1
  Al  Al30  1  0.11114683  0.76116639  0.80281547  1
  Al  Al31  1  0.22336898  0.87091693  0.55327082  1
  Al  Al32  1  0.77834989  0.76132836  0.30236268  1
  Al  Al33  1  0.88917440  0.87215260  0.05233957  1
  Al  Al34  1  0.44482532  0.76085057  0.80295490  1
  Al  Al35  1  0.55621573  0.87091679  0.55327083  1
  N  N36  1  0.11209903  0.09507740  0.11290159  1
  N  N37  1  0.88959426  0.20521184  0.86158194  1
  N  N38  1  0.77802570  0.09445027  0.61151828  1
  N  N39  1  0.55468200  0.20612939  0.36208255  1
  N  N40  1  0.44332472  0.09507742  0.11290155  1
  N  N41  1  0.22250766  0.20548598  0.86044221  1
  N  N42  1  0.11147867  0.09445673  0.60978274  1
  N  N43  1  0.88968975  0.20612946  0.36208257  1
  N  N44  1  0.77800664  0.09448806  0.11196488  1
  N  N45  1  0.55569522  0.20521189  0.86158190  1
  N  N46  1  0.44456607  0.09445680  0.60978265  1
  N  N47  1  0.22315099  0.53766034  0.36208254  1
  N  N48  1  0.11209903  0.42630315  0.11290156  1
  N  N49  1  0.88959429  0.53867350  0.86158188  1
  N  N50  1  0.77805460  0.42771253  0.61192679  1
  N  N51  1  0.55584073  0.53881938  0.36198914  1
  N  N52  1  0.44474806  0.42772637  0.11165458  1
  N  N53  1  0.22223358  0.53867355  0.86158193  1
  N  N54  1  0.11147869  0.42754420  0.60978270  1
  N  N55  1  0.88968972  0.53766041  0.36208254  1
  N  N56  1  0.77802683  0.42772640  0.11165467  1
  N  N57  1  0.55584093  0.53881934  0.86170874  1
  N  N58  1  0.44473440  0.42771253  0.61192674  1
  N  N59  1  0.22315100  0.87266826  0.36208254  1
  N  N60  1  0.11150980  0.76098491  0.11196488  1
  N  N61  1  0.88917447  0.87215261  0.86162081  1
  N  N62  1  0.77802567  0.76100370  0.61151827  1
  N  N63  1  0.55468203  0.87266815  0.36208253  1
  N  N64  1  0.44474805  0.76100518  0.11165460  1
  N  N65  1  0.22223358  0.87257251  0.86158195  1
  N  N66  1  0.11147221  0.76100374  0.61151826  1
  N  N67  1  0.88917441  0.87215263  0.36186056  1
  N  N68  1  0.77800663  0.76098492  0.11196485  1
  N  N69  1  0.55569522  0.87257256  0.86158187  1
  N  N70  1  0.44473438  0.76103274  0.61192674  1
