# generated using pymatgen
data_Al36N35
_symmetry_space_group_name_H-M   'P 1'
_cell_length_a   9.86107011
_cell_length_b   9.86106998
_cell_length_c   8.41092981
_cell_angle_alpha   89.99999935
_cell_angle_beta   89.99999732
_cell_angle_gamma   60.00003614
_symmetry_Int_Tables_number   1
_chemical_formula_structural   Al36N35
_chemical_formula_sum   'Al36 N35'
_cell_volume   708.30920546
_cell_formula_units_Z   1
loop_
 _symmetry_equiv_pos_site_id
 _symmetry_equiv_pos_as_xyz
  1  'x, y, z'
loop_
 _atom_site_type_symbol
 _atom_site_label
 _atom_site_symmetry_multiplicity
 _atom_site_fract_x
 _atom_site_fract_y
 _atom_site_fract_z
 _atom_site_occupancy
  Al  Al0  1  0.11244753  0.09517670  0.35544348  1
  Al  Al1  1  0.22253798  0.20526746  0.09340960  1
  Al  Al2  1  0.77823670  0.09387013  0.85681451  1
  Al  Al3  1  0.88922411  0.20575931  0.60534575  1
  Al  Al4  1  0.44271920  0.09517672  0.35544350  1
  Al  Al5  1  0.55611507  0.20633464  0.10914255  1
  Al  Al6  1  0.10999292  0.09272156  0.85919957  1
  Al  Al7  1  0.22253802  0.20526743  0.62214262  1
  Al  Al8  1  0.77841555  0.09351243  0.35763762  1
  Al  Al9  1  0.88789392  0.20633471  0.10914252  1
  Al  Al10  1  0.44762883  0.09272180  0.85919951  1
  Al  Al11  1  0.55536028  0.20575937  0.60534570  1
  Al  Al12  1  0.11244749  0.42544862  0.35544345  1
  Al  Al13  1  0.22360638  0.53884369  0.10914257  1
  Al  Al14  1  0.77848651  0.42729289  0.85671156  1
  Al  Al15  1  0.88922404  0.53808920  0.60534577  1
  Al  Al16  1  0.44512394  0.42785251  0.35790034  1
  Al  Al17  1  0.55587186  0.53860038  0.10631861  1
  Al  Al18  1  0.10999282  0.43035826  0.85919961  1
  Al  Al19  1  0.22303088  0.53808911  0.60534571  1
  Al  Al20  1  0.77736744  0.42785248  0.35790038  1
  Al  Al21  1  0.88789385  0.53884388  0.10914251  1
  Al  Al22  1  0.44456451  0.42729285  0.85671159  1
  Al  Al23  1  0.55587186  0.53860038  0.60829650  1
  Al  Al24  1  0.11078403  0.76114430  0.35763754  1
  Al  Al25  1  0.22360625  0.87062286  0.10914261  1
  Al  Al26  1  0.77823660  0.76096554  0.85681456  1
  Al  Al27  1  0.88920520  0.87193365  0.60755151  1
  Al  Al28  1  0.44512391  0.76009602  0.35790031  1
  Al  Al29  1  0.55611490  0.87062303  0.10914258  1
  Al  Al30  1  0.11114178  0.76096541  0.85681460  1
  Al  Al31  1  0.22303088  0.87195281  0.60534565  1
  Al  Al32  1  0.77841543  0.76114443  0.35763757  1
  Al  Al33  1  0.88920524  0.87193361  0.10696938  1
  Al  Al34  1  0.44456442  0.76121511  0.85671161  1
  Al  Al35  1  0.55536021  0.87195297  0.60534566  1
  N  N36  1  0.11296753  0.09569649  0.10730136  1
  N  N37  1  0.89091335  0.20411283  0.85169155  1
  N  N38  1  0.77793760  0.09446843  0.60189405  1
  N  N39  1  0.55522773  0.20543543  0.35229815  1
  N  N40  1  0.44167934  0.09569666  0.10730136  1
  N  N41  1  0.22253804  0.20526740  0.85530439  1
  N  N42  1  0.11386697  0.09659576  0.59675240  1
  N  N43  1  0.88968045  0.20543545  0.35229813  1
  N  N44  1  0.77789369  0.09455624  0.10209922  1
  N  N45  1  0.55531748  0.20411285  0.85169154  1
  N  N46  1  0.43988070  0.09659593  0.59675243  1
  N  N47  1  0.22270695  0.53795646  0.35229810  1
  N  N48  1  0.11296753  0.42440876  0.10730136  1
  N  N49  1  0.89091329  0.53804628  0.85169156  1
  N  N50  1  0.77817063  0.42745090  0.60259083  1
  N  N51  1  0.55587185  0.53860035  0.35179617  1
  N  N52  1  0.44471798  0.42744624  0.10129684  1
  N  N53  1  0.22138449  0.53804618  0.85169155  1
  N  N54  1  0.11386693  0.42261002  0.59675236  1
  N  N55  1  0.88968041  0.53795661  0.35229810  1
  N  N56  1  0.77817977  0.42744628  0.10129680  1
  N  N57  1  0.55587183  0.53860036  0.85205792  1
  N  N58  1  0.44472248  0.42745092  0.60259079  1
  N  N59  1  0.22270687  0.87240941  0.35229812  1
  N  N60  1  0.11182796  0.76062235  0.10209923  1
  N  N61  1  0.88920524  0.87193356  0.85213906  1
  N  N62  1  0.77793751  0.76066642  0.60189404  1
  N  N63  1  0.55522763  0.87240950  0.35229814  1
  N  N64  1  0.44471788  0.76090831  0.10129687  1
  N  N65  1  0.22138444  0.87364207  0.85169155  1
  N  N66  1  0.11174002  0.76066632  0.60189402  1
  N  N67  1  0.88920522  0.87193358  0.35181161  1
  N  N68  1  0.77789358  0.76062249  0.10209921  1
  N  N69  1  0.55531737  0.87364224  0.85169155  1
  N  N70  1  0.44472245  0.76089909  0.60259077  1
