# generated using pymatgen
data_Al36N35
_symmetry_space_group_name_H-M   'P 1'
_cell_length_a   9.35198735
_cell_length_b   9.35198787
_cell_length_c   9.97577454
_cell_angle_alpha   90.00000403
_cell_angle_beta   90.00000558
_cell_angle_gamma   59.99996885
_symmetry_Int_Tables_number   1
_chemical_formula_structural   Al36N35
_chemical_formula_sum   'Al36 N35'
_cell_volume   755.58785091
_cell_formula_units_Z   1
loop_
 _symmetry_equiv_pos_site_id
 _symmetry_equiv_pos_as_xyz
  1  'x, y, z'
loop_
 _atom_site_type_symbol
 _atom_site_label
 _atom_site_symmetry_multiplicity
 _atom_site_fract_x
 _atom_site_fract_y
 _atom_site_fract_z
 _atom_site_occupancy
  Al  Al0  1  0.10900590  0.09202257  0.29839268  1
  Al  Al1  1  0.22250284  0.20551947  0.04793409  1
  Al  Al2  1  0.77818347  0.09415839  0.79932169  1
  Al  Al3  1  0.88793423  0.20638046  0.54977618  1
  Al  Al4  1  0.44949693  0.09202242  0.29839263  1
  Al  Al5  1  0.55596080  0.20613389  0.04890177  1
  Al  Al6  1  0.11109803  0.09411422  0.79945686  1
  Al  Al7  1  0.22250301  0.20551932  0.55655530  1
  Al  Al8  1  0.77834518  0.09383484  0.29886889  1
  Al  Al9  1  0.88843074  0.20613397  0.04890180  1
  Al  Al10  1  0.44531308  0.09411438  0.79945673  1
  Al  Al11  1  0.55621106  0.20638048  0.54977615  1
  Al  Al12  1  0.10900590  0.43251337  0.29839267  1
  Al  Al13  1  0.22311741  0.53897721  0.04890184  1
  Al  Al14  1  0.77786750  0.42783711  0.79946052  1
  Al  Al15  1  0.88793423  0.53922709  0.54977617  1
  Al  Al16  1  0.44515356  0.42817015  0.29850227  1
  Al  Al17  1  0.55583636  0.53885275  0.04879000  1
  Al  Al18  1  0.11109811  0.42832948  0.79945681  1
  Al  Al19  1  0.22336420  0.53922724  0.54977617  1
  Al  Al20  1  0.77720115  0.42817027  0.29850233  1
  Al  Al21  1  0.88843072  0.53897713  0.04890176  1
  Al  Al22  1  0.44482066  0.42783707  0.79946052  1
  Al  Al23  1  0.55583649  0.53885268  0.54977004  1
  Al  Al24  1  0.11081848  0.76136165  0.29886892  1
  Al  Al25  1  0.22311744  0.87144722  0.04890185  1
  Al  Al26  1  0.77818351  0.76119994  0.79932167  1
  Al  Al27  1  0.88916983  0.87218596  0.54957119  1
  Al  Al28  1  0.44515357  0.76021795  0.29850229  1
  Al  Al29  1  0.55596080  0.87144709  0.04890175  1
  Al  Al30  1  0.11114219  0.76119980  0.79932172  1
  Al  Al31  1  0.22336420  0.87095039  0.54977617  1
  Al  Al32  1  0.77834522  0.76136179  0.29886888  1
  Al  Al33  1  0.88916970  0.87218604  0.04884623  1
  Al  Al34  1  0.44482064  0.76088400  0.79946051  1
  Al  Al35  1  0.55621105  0.87095026  0.54977614  1
  N  N36  1  0.11209445  0.09511098  0.10940721  1
  N  N37  1  0.88958980  0.20524520  0.85808691  1
  N  N38  1  0.77802099  0.09448375  0.60802314  1
  N  N39  1  0.55467748  0.20616289  0.35858728  1
  N  N40  1  0.44331996  0.09511095  0.10940714  1
  N  N41  1  0.22250296  0.20551937  0.85694733  1
  N  N42  1  0.11147440  0.09449056  0.60628605  1
  N  N43  1  0.88968477  0.20616295  0.35858731  1
  N  N44  1  0.77800196  0.09452157  0.10847019  1
  N  N45  1  0.55569028  0.20524522  0.85808690  1
  N  N46  1  0.44456064  0.09449061  0.60628591  1
  N  N47  1  0.22314638  0.53769394  0.35858729  1
  N  N48  1  0.11209444  0.42633647  0.10940720  1
  N  N49  1  0.88958984  0.53870668  0.85808686  1
  N  N50  1  0.77804989  0.42774599  0.60843121  1
  N  N51  1  0.55583603  0.53885279  0.35849390  1
  N  N52  1  0.44474338  0.42775983  0.10816000  1
  N  N53  1  0.22222886  0.53870670  0.85808694  1
  N  N54  1  0.11147444  0.42757683  0.60628599  1
  N  N55  1  0.88968477  0.53769396  0.35858730  1
  N  N56  1  0.77802218  0.42775987  0.10816006  1
  N  N57  1  0.55583622  0.53885272  0.85821388  1
  N  N58  1  0.44472975  0.42774600  0.60843120  1
  N  N59  1  0.22314638  0.87270140  0.35858729  1
  N  N60  1  0.11150518  0.76101837  0.10847021  1
  N  N61  1  0.88916977  0.87218599  0.85812622  1
  N  N62  1  0.77802099  0.76103711  0.60802313  1
  N  N63  1  0.55467749  0.87270130  0.35858727  1
  N  N64  1  0.44474339  0.76103868  0.10816002  1
  N  N65  1  0.22222885  0.87260616  0.85808696  1
  N  N66  1  0.11146759  0.76103715  0.60802317  1
  N  N67  1  0.88916969  0.87218603  0.35836562  1
  N  N68  1  0.77800196  0.76101835  0.10847018  1
  N  N69  1  0.55569028  0.87260620  0.85808687  1
  N  N70  1  0.44472974  0.76106615  0.60843120  1
