# generated using pymatgen
data_Al36N35
_symmetry_space_group_name_H-M   'P 1'
_cell_length_a   9.35199619
_cell_length_b   9.35199646
_cell_length_c   9.97574902
_cell_angle_alpha   89.99999788
_cell_angle_beta   90.00000002
_cell_angle_gamma   60.00000317
_symmetry_Int_Tables_number   1
_chemical_formula_structural   Al36N35
_chemical_formula_sum   'Al36 N35'
_cell_volume   755.58758713
_cell_formula_units_Z   1
loop_
 _symmetry_equiv_pos_site_id
 _symmetry_equiv_pos_as_xyz
  1  'x, y, z'
loop_
 _atom_site_type_symbol
 _atom_site_label
 _atom_site_symmetry_multiplicity
 _atom_site_fract_x
 _atom_site_fract_y
 _atom_site_fract_z
 _atom_site_occupancy
  Al  Al0  1  0.10901562  0.09195482  0.30549258  1
  Al  Al1  1  0.22251233  0.20545151  0.05503190  1
  Al  Al2  1  0.77819297  0.09409051  0.80642229  1
  Al  Al3  1  0.88794364  0.20631273  0.55687711  1
  Al  Al4  1  0.44950607  0.09195466  0.30549248  1
  Al  Al5  1  0.55597037  0.20606579  0.05600183  1
  Al  Al6  1  0.11110736  0.09404614  0.80655653  1
  Al  Al7  1  0.22251253  0.20545145  0.56365610  1
  Al  Al8  1  0.77835467  0.09376694  0.30596935  1
  Al  Al9  1  0.88844043  0.20606585  0.05600185  1
  Al  Al10  1  0.44532292  0.09404632  0.80655644  1
  Al  Al11  1  0.55622058  0.20631273  0.55687710  1
  Al  Al12  1  0.10901556  0.43244509  0.30549256  1
  Al  Al13  1  0.22312679  0.53890929  0.05600188  1
  Al  Al14  1  0.77787708  0.42776913  0.80656152  1
  Al  Al15  1  0.88794359  0.53915923  0.55687710  1
  Al  Al16  1  0.44516308  0.42810223  0.30560207  1
  Al  Al17  1  0.55584594  0.53878480  0.05588997  1
  Al  Al18  1  0.11110744  0.42826191  0.80655647  1
  Al  Al19  1  0.22337386  0.53915938  0.55687711  1
  Al  Al20  1  0.77721065  0.42810234  0.30560213  1
  Al  Al21  1  0.88844040  0.53890922  0.05600180  1
  Al  Al22  1  0.44483016  0.42776913  0.80656150  1
  Al  Al23  1  0.55584603  0.53878479  0.55687126  1
  Al  Al24  1  0.11082801  0.76129371  0.30596937  1
  Al  Al25  1  0.22312682  0.87137939  0.05600190  1
  Al  Al26  1  0.77819300  0.76113201  0.80642228  1
  Al  Al27  1  0.88917931  0.87211810  0.55667220  1
  Al  Al28  1  0.44516310  0.76014997  0.30560210  1
  Al  Al29  1  0.55597035  0.87137927  0.05600179  1
  Al  Al30  1  0.11115169  0.76113189  0.80642231  1
  Al  Al31  1  0.22337385  0.87088239  0.55687710  1
  Al  Al32  1  0.77835471  0.76129386  0.30596932  1
  Al  Al33  1  0.88917923  0.87211811  0.05594636  1
  Al  Al34  1  0.44483012  0.76081611  0.80656151  1
  Al  Al35  1  0.55622053  0.87088226  0.55687709  1
  N  N36  1  0.11210414  0.09504316  0.11650598  1
  N  N37  1  0.88959949  0.20517716  0.86518634  1
  N  N38  1  0.77803047  0.09441591  0.61512306  1
  N  N39  1  0.55468688  0.20609505  0.36568690  1
  N  N40  1  0.44332904  0.09504317  0.11650586  1
  N  N41  1  0.22251248  0.20545148  0.86404507  1
  N  N42  1  0.11148385  0.09442260  0.61338538  1
  N  N43  1  0.88969440  0.20609511  0.36568691  1
  N  N44  1  0.77801147  0.09445362  0.11556954  1
  N  N45  1  0.55569985  0.20517720  0.86518632  1
  N  N46  1  0.44457021  0.09442267  0.61338531  1
  N  N47  1  0.22315597  0.53762591  0.36568691  1
  N  N48  1  0.11210415  0.42626809  0.11650596  1
  N  N49  1  0.88959951  0.53863876  0.86518628  1
  N  N50  1  0.77805942  0.42767806  0.61553142  1
  N  N51  1  0.55584560  0.53878486  0.36559364  1
  N  N52  1  0.44475288  0.42769185  0.11525890  1
  N  N53  1  0.22223826  0.53863882  0.86518635  1
  N  N54  1  0.11148388  0.42750904  0.61338533  1
  N  N55  1  0.88969435  0.53762595  0.36568690  1
  N  N56  1  0.77803177  0.42769185  0.11525898  1
  N  N57  1  0.55584580  0.53878481  0.86531342  1
  N  N58  1  0.44473925  0.42767809  0.61553138  1
  N  N59  1  0.22315598  0.87263357  0.36568690  1
  N  N60  1  0.11151469  0.76095039  0.11556956  1
  N  N61  1  0.88917930  0.87211811  0.86522566  1
  N  N62  1  0.77803043  0.76096919  0.61512305  1
  N  N63  1  0.55468689  0.87263347  0.36568688  1
  N  N64  1  0.44475288  0.76097073  0.11525893  1
  N  N65  1  0.22223823  0.87253841  0.86518638  1
  N  N66  1  0.11147708  0.76096926  0.61512307  1
  N  N67  1  0.88917922  0.87211814  0.36546549  1
  N  N68  1  0.77801145  0.76095038  0.11556951  1
  N  N69  1  0.55569982  0.87253842  0.86518627  1
  N  N70  1  0.44473921  0.76099822  0.61553139  1
