# generated using pymatgen
data_Al36N35
_symmetry_space_group_name_H-M   'P 1'
_cell_length_a   9.82339967
_cell_length_b   9.82339879
_cell_length_c   8.52379594
_cell_angle_alpha   89.99999927
_cell_angle_beta   89.99999620
_cell_angle_gamma   60.00004801
_symmetry_Int_Tables_number   1
_chemical_formula_structural   Al36N35
_chemical_formula_sum   'Al36 N35'
_cell_volume   712.34023473
_cell_formula_units_Z   1
loop_
 _symmetry_equiv_pos_site_id
 _symmetry_equiv_pos_as_xyz
  1  'x, y, z'
loop_
 _atom_site_type_symbol
 _atom_site_label
 _atom_site_symmetry_multiplicity
 _atom_site_fract_x
 _atom_site_fract_y
 _atom_site_fract_z
 _atom_site_occupancy
  Al  Al0  1  0.11266761  0.09539696  0.35247423  1
  Al  Al1  1  0.22253807  0.20526750  0.08383092  1
  Al  Al2  1  0.77816758  0.09400851  0.84913213  1
  Al  Al3  1  0.88724126  0.20663965  0.59615695  1
  Al  Al4  1  0.44227902  0.09539690  0.35247422  1
  Al  Al5  1  0.55503212  0.20545670  0.10064513  1
  Al  Al6  1  0.10976320  0.09249187  0.84504679  1
  Al  Al7  1  0.22253802  0.20526752  0.61392434  1
  Al  Al8  1  0.77847491  0.09339383  0.34750659  1
  Al  Al9  1  0.88985504  0.20545664  0.10064506  1
  Al  Al10  1  0.44808840  0.09249209  0.84504675  1
  Al  Al11  1  0.55646292  0.20663955  0.59615685  1
  Al  Al12  1  0.11266753  0.42500850  0.35247429  1
  Al  Al13  1  0.22272803  0.53776111  0.10064513  1
  Al  Al14  1  0.77864877  0.42721184  0.84939724  1
  Al  Al15  1  0.88724118  0.53919176  0.59615696  1
  Al  Al16  1  0.44524347  0.42797221  0.34695985  1
  Al  Al17  1  0.55587182  0.53860048  0.09665518  1
  Al  Al18  1  0.10976308  0.43081785  0.84504667  1
  Al  Al19  1  0.22391121  0.53919153  0.59615685  1
  Al  Al20  1  0.77712824  0.42797219  0.34695982  1
  Al  Al21  1  0.88985496  0.53776116  0.10064503  1
  Al  Al22  1  0.44448336  0.42721179  0.84939721  1
  Al  Al23  1  0.55587181  0.53860049  0.59964892  1
  Al  Al24  1  0.11066530  0.76120376  0.34750679  1
  Al  Al25  1  0.22272808  0.87258376  0.10064521  1
  Al  Al26  1  0.77816747  0.76089646  0.84913208  1
  Al  Al27  1  0.88920523  0.87193370  0.59892577  1
  Al  Al28  1  0.44524344  0.75985698  0.34695993  1
  Al  Al29  1  0.55503208  0.87258392  0.10064520  1
  Al  Al30  1  0.11128006  0.76089635  0.84913196  1
  Al  Al31  1  0.22391104  0.86997038  0.59615680  1
  Al  Al32  1  0.77847480  0.76120387  0.34750665  1
  Al  Al33  1  0.88920520  0.87193374  0.09750717  1
  Al  Al34  1  0.44448327  0.76137749  0.84939716  1
  Al  Al35  1  0.55646273  0.86997048  0.59615680  1
  N  N36  1  0.11424073  0.09696963  0.11720402  1
  N  N37  1  0.89102865  0.20405780  0.86213596  1
  N  N38  1  0.77784995  0.09464378  0.61156041  1
  N  N39  1  0.55526821  0.20561848  0.36067155  1
  N  N40  1  0.43913312  0.09696979  0.11720406  1
  N  N41  1  0.22253808  0.20526749  0.85449257  1
  N  N42  1  0.11249032  0.09521942  0.60496237  1
  N  N43  1  0.88945705  0.20561852  0.36067160  1
  N  N44  1  0.77800567  0.09433234  0.11133122  1
  N  N45  1  0.55525738  0.20405780  0.86213600  1
  N  N46  1  0.44263373  0.09521953  0.60496231  1
  N  N47  1  0.22288982  0.53799703  0.36067161  1
  N  N48  1  0.11424066  0.42186255  0.11720410  1
  N  N49  1  0.89102859  0.53798623  0.86213593  1
  N  N50  1  0.77826489  0.42740380  0.61252648  1
  N  N51  1  0.55587179  0.53860049  0.36211788  1
  N  N52  1  0.44478423  0.42751289  0.11057286  1
  N  N53  1  0.22132935  0.53798617  0.86213595  1
  N  N54  1  0.11249031  0.42536318  0.60496232  1
  N  N55  1  0.88945699  0.53799720  0.36067163  1
  N  N56  1  0.77804688  0.42751287  0.11057281  1
  N  N57  1  0.55587180  0.53860048  0.86107411  1
  N  N58  1  0.44467531  0.42740373  0.61252644  1
  N  N59  1  0.22288974  0.87218620  0.36067157  1
  N  N60  1  0.11160375  0.76073452  0.11133132  1
  N  N61  1  0.88920526  0.87193366  0.86100235  1
  N  N62  1  0.77784983  0.76057886  0.61156040  1
  N  N63  1  0.55526813  0.87218620  0.36067154  1
  N  N64  1  0.44478423  0.76077549  0.11057293  1
  N  N65  1  0.22132931  0.87375740  0.86213600  1
  N  N66  1  0.11191538  0.76057871  0.61156029  1
  N  N67  1  0.88920518  0.87193373  0.36201182  1
  N  N68  1  0.77800560  0.76073462  0.11133122  1
  N  N69  1  0.55525727  0.87375757  0.86213603  1
  N  N70  1  0.44467520  0.76099367  0.61252637  1
