# generated using pymatgen
data_Al36N35
_symmetry_space_group_name_H-M   'P 1'
_cell_length_a   9.35452207
_cell_length_b   9.35452346
_cell_length_c   9.96886127
_cell_angle_alpha   90.00000024
_cell_angle_beta   89.99999776
_cell_angle_gamma   60.00001312
_symmetry_Int_Tables_number   1
_chemical_formula_structural   Al36N35
_chemical_formula_sum   'Al36 N35'
_cell_volume   755.47398528
_cell_formula_units_Z   1
loop_
 _symmetry_equiv_pos_site_id
 _symmetry_equiv_pos_as_xyz
  1  'x, y, z'
loop_
 _atom_site_type_symbol
 _atom_site_label
 _atom_site_symmetry_multiplicity
 _atom_site_fract_x
 _atom_site_fract_y
 _atom_site_fract_z
 _atom_site_occupancy
  Al  Al0  1  0.10902604  0.09179087  0.32157329  1
  Al  Al1  1  0.22253381  0.20529865  0.07101743  1
  Al  Al2  1  0.77821326  0.09393990  0.82244205  1
  Al  Al3  1  0.88794540  0.20616986  0.57288050  1
  Al  Al4  1  0.44954968  0.09179070  0.32157325  1
  Al  Al5  1  0.55597545  0.20590460  0.07201987  1
  Al  Al6  1  0.11113522  0.09389972  0.82249838  1
  Al  Al7  1  0.22253395  0.20529859  0.57949168  1
  Al  Al8  1  0.77837842  0.09360952  0.32196848  1
  Al  Al9  1  0.88848660  0.20590466  0.07201985  1
  Al  Al10  1  0.44533147  0.09389990  0.82249826  1
  Al  Al11  1  0.55625172  0.20616992  0.57288049  1
  Al  Al12  1  0.10902593  0.43231437  0.32157326  1
  Al  Al13  1  0.22313984  0.53874014  0.07201989  1
  Al  Al14  1  0.77790868  0.42761113  0.82258044  1
  Al  Al15  1  0.88794531  0.53901609  0.57288048  1
  Al  Al16  1  0.44519003  0.42795484  0.32160302  1
  Al  Al17  1  0.55586734  0.53863199  0.07188705  1
  Al  Al18  1  0.11113532  0.42809613  0.82249830  1
  Al  Al19  1  0.22340526  0.53901629  0.57288049  1
  Al  Al20  1  0.77722104  0.42795493  0.32160307  1
  Al  Al21  1  0.88848650  0.53874001  0.07201979  1
  Al  Al22  1  0.44484646  0.42761113  0.82258045  1
  Al  Al23  1  0.55586745  0.53863199  0.57289144  1
  Al  Al24  1  0.11084486  0.76114314  0.32196850  1
  Al  Al25  1  0.22313990  0.87125130  0.07201991  1
  Al  Al26  1  0.77821330  0.76097800  0.82244204  1
  Al  Al27  1  0.88920071  0.87196527  0.57269187  1
  Al  Al28  1  0.44519006  0.75998596  0.32160306  1
  Al  Al29  1  0.55597539  0.87125115  0.07201982  1
  Al  Al30  1  0.11117533  0.76097790  0.82244207  1
  Al  Al31  1  0.22340525  0.87070990  0.57288050  1
  Al  Al32  1  0.77837845  0.76114324  0.32196847  1
  Al  Al33  1  0.88920063  0.87196527  0.07194346  1
  Al  Al34  1  0.44484642  0.76067340  0.82258045  1
  Al  Al35  1  0.55625163  0.87070975  0.57288047  1
  N  N36  1  0.11214234  0.09490708  0.13246956  1
  N  N37  1  0.88964699  0.20501076  0.88108666  1
  N  N38  1  0.77805105  0.09426476  0.63103565  1
  N  N39  1  0.55472930  0.20595310  0.38158852  1
  N  N40  1  0.44331700  0.09490707  0.13246949  1
  N  N41  1  0.22253394  0.20529862  0.87991418  1
  N  N42  1  0.11151399  0.09427845  0.62921513  1
  N  N43  1  0.88968403  0.20595313  0.38158854  1
  N  N44  1  0.77803326  0.09430010  0.13145991  1
  N  N45  1  0.55570875  0.20501080  0.88108668  1
  N  N46  1  0.44457423  0.09427853  0.62921497  1
  N  N47  1  0.22318830  0.53749403  0.38158852  1
  N  N48  1  0.11214232  0.42608175  0.13246951  1
  N  N49  1  0.88964699  0.53847334  0.88108659  1
  N  N50  1  0.77807954  0.42752583  0.63144273  1
  N  N51  1  0.55586705  0.53863193  0.38150247  1
  N  N52  1  0.44477458  0.42753931  0.13115123  1
  N  N53  1  0.22224613  0.53847344  0.88108670  1
  N  N54  1  0.11151402  0.42733878  0.62921503  1
  N  N55  1  0.88968393  0.53749402  0.38158850  1
  N  N56  1  0.77805260  0.42753927  0.13115129  1
  N  N57  1  0.55586720  0.53863192  0.88120834  1
  N  N58  1  0.44476130  0.42752593  0.63144272  1
  N  N59  1  0.22318831  0.87244886  0.38158853  1
  N  N60  1  0.11153542  0.76079792  0.13145992  1
  N  N61  1  0.88920068  0.87196528  0.88112216  1
  N  N62  1  0.77805098  0.76081548  0.63103564  1
  N  N63  1  0.55472927  0.87244871  0.38158849  1
  N  N64  1  0.44477458  0.76081729  0.13115128  1
  N  N65  1  0.22224609  0.87241163  0.88108671  1
  N  N66  1  0.11150017  0.76081560  0.63103566  1
  N  N67  1  0.88920063  0.87196531  0.38137213  1
  N  N68  1  0.77803320  0.76079784  0.13145989  1
  N  N69  1  0.55570866  0.87241163  0.88108662  1
  N  N70  1  0.44476126  0.76084409  0.63144272  1
