# generated using pymatgen
data_Al36N35
_symmetry_space_group_name_H-M   'P 1'
_cell_length_a   9.35198965
_cell_length_b   9.35199201
_cell_length_c   9.97575950
_cell_angle_alpha   90.00000050
_cell_angle_beta   89.99998522
_cell_angle_gamma   59.99998147
_symmetry_Int_Tables_number   1
_chemical_formula_structural   Al36N35
_chemical_formula_sum   'Al36 N35'
_cell_volume   755.58732807
_cell_formula_units_Z   1
loop_
 _symmetry_equiv_pos_site_id
 _symmetry_equiv_pos_as_xyz
  1  'x, y, z'
loop_
 _atom_site_type_symbol
 _atom_site_label
 _atom_site_symmetry_multiplicity
 _atom_site_fract_x
 _atom_site_fract_y
 _atom_site_fract_z
 _atom_site_occupancy
  Al  Al0  1  0.10907683  0.09151877  0.41104687  1
  Al  Al1  1  0.22257293  0.20501547  0.15288555  1
  Al  Al2  1  0.77825428  0.09365340  0.91011759  1
  Al  Al3  1  0.88850264  0.20562871  0.66053796  1
  Al  Al4  1  0.44956787  0.09151849  0.41104779  1
  Al  Al5  1  0.55628112  0.20587671  0.15966284  1
  Al  Al6  1  0.11116869  0.09360915  0.90998361  1
  Al  Al7  1  0.22257435  0.20501423  0.66150760  1
  Al  Al8  1  0.77841597  0.09333111  0.41057055  1
  Al  Al9  1  0.88800409  0.20587695  0.15966274  1
  Al  Al10  1  0.44538398  0.09360921  0.90998360  1
  Al  Al11  1  0.55603247  0.20562869  0.66053822  1
  Al  Al12  1  0.10907633  0.43200965  0.41104729  1
  Al  Al13  1  0.22343416  0.53872356  0.15966275  1
  Al  Al14  1  0.77793793  0.42733202  0.90997821  1
  Al  Al15  1  0.88850221  0.53847233  0.66053814  1
  Al  Al16  1  0.44522417  0.42766619  0.41093766  1
  Al  Al17  1  0.55590647  0.53834898  0.15966869  1
  Al  Al18  1  0.11116858  0.42782429  0.90998366  1
  Al  Al19  1  0.22318873  0.53847203  0.66053805  1
  Al  Al20  1  0.77727165  0.42766642  0.41093792  1
  Al  Al21  1  0.88800382  0.53872346  0.15966286  1
  Al  Al22  1  0.44489106  0.42733185  0.90997862  1
  Al  Al23  1  0.55590762  0.53834782  0.66064989  1
  Al  Al24  1  0.11088931  0.76085770  0.41057070  1
  Al  Al25  1  0.22343437  0.87044644  0.15966275  1
  Al  Al26  1  0.77825422  0.76069486  0.91011785  1
  Al  Al27  1  0.88924113  0.87168108  0.66059348  1
  Al  Al28  1  0.44522433  0.75971392  0.41093773  1
  Al  Al29  1  0.55628081  0.87044666  0.15966292  1
  Al  Al30  1  0.11121285  0.76069468  0.91011728  1
  Al  Al31  1  0.22318884  0.87094246  0.66053788  1
  Al  Al32  1  0.77841592  0.76085804  0.41057044  1
  Al  Al33  1  0.88923997  0.87168224  0.15986772  1
  Al  Al34  1  0.44489114  0.76037891  0.90997842  1
  Al  Al35  1  0.55603244  0.87094208  0.66053826  1
  N  N36  1  0.11154446  0.09398668  0.10315436  1
  N  N37  1  0.88966092  0.20473990  0.85135320  1
  N  N38  1  0.77807358  0.09401662  0.60096995  1
  N  N39  1  0.55474809  0.20565907  0.35085257  1
  N  N40  1  0.44463041  0.09398693  0.10315437  1
  N  N41  1  0.22257382  0.20501410  0.85249410  1
  N  N42  1  0.11216622  0.09460604  0.60003299  1
  N  N43  1  0.88975539  0.20565940  0.35085247  1
  N  N44  1  0.77809107  0.09397995  0.10141644  1
  N  N45  1  0.55576115  0.20473991  0.85135340  1
  N  N46  1  0.44339131  0.09460602  0.60003379  1
  N  N47  1  0.22321694  0.53719008  0.35085249  1
  N  N48  1  0.11154430  0.42707284  0.10315445  1
  N  N49  1  0.88966059  0.53820157  0.85135338  1
  N  N50  1  0.77809362  0.42725492  0.60128070  1
  N  N51  1  0.55590661  0.53834891  0.35094586  1
  N  N52  1  0.44479970  0.42724211  0.10100833  1
  N  N53  1  0.22229927  0.53820135  0.85135326  1
  N  N54  1  0.11216605  0.42583098  0.60003330  1
  N  N55  1  0.88975513  0.53719020  0.35085259  1
  N  N56  1  0.77811979  0.42724219  0.10100795  1
  N  N57  1  0.55590657  0.53834757  0.85122612  1
  N  N58  1  0.44481483  0.42725473  0.60128046  1
  N  N59  1  0.22321716  0.87219745  0.35085245  1
  N  N60  1  0.11153767  0.76053327  0.10141616  1
  N  N61  1  0.88924041  0.87168095  0.85131381  1
  N  N62  1  0.77807348  0.76051344  0.60096983  1
  N  N63  1  0.55474792  0.87219766  0.35085264  1
  N  N64  1  0.44479978  0.76056230  0.10100814  1
  N  N65  1  0.22229934  0.87210139  0.85135310  1
  N  N66  1  0.11157676  0.76051330  0.60097010  1
  N  N67  1  0.88924047  0.87168233  0.35107400  1
  N  N68  1  0.77809088  0.76053344  0.10141668  1
  N  N69  1  0.55576108  0.87210108  0.85135346  1
  N  N70  1  0.44481494  0.76053372  0.60128050  1
