# generated using pymatgen
data_Al36N35
_symmetry_space_group_name_H-M   'P 1'
_cell_length_a   9.55546968
_cell_length_b   9.55547175
_cell_length_c   9.38442805
_cell_angle_alpha   90.00000282
_cell_angle_beta   89.99998517
_cell_angle_gamma   60.00007952
_symmetry_Int_Tables_number   1
_chemical_formula_structural   Al36N35
_chemical_formula_sum   'Al36 N35'
_cell_volume   742.06672927
_cell_formula_units_Z   1
loop_
 _symmetry_equiv_pos_site_id
 _symmetry_equiv_pos_as_xyz
  1  'x, y, z'
loop_
 _atom_site_type_symbol
 _atom_site_label
 _atom_site_symmetry_multiplicity
 _atom_site_fract_x
 _atom_site_fract_y
 _atom_site_fract_z
 _atom_site_occupancy
  Al  Al0  1  0.11084741  0.09357627  0.33591386  1
  Al  Al1  1  0.22253830  0.20526731  0.07526574  1
  Al  Al2  1  0.77807604  0.09419168  0.83210305  1
  Al  Al3  1  0.88645862  0.20691733  0.58039864  1
  Al  Al4  1  0.44592022  0.09357616  0.33591395  1
  Al  Al5  1  0.55504949  0.20529651  0.08254181  1
  Al  Al6  1  0.11011301  0.09284199  0.82839501  1
  Al  Al7  1  0.22253831  0.20526726  0.59394904  1
  Al  Al8  1  0.77858800  0.09316783  0.33030696  1
  Al  Al9  1  0.88999785  0.20529658  0.08254181  1
  Al  Al10  1  0.44738870  0.09284200  0.82839493  1
  Al  Al11  1  0.55696791  0.20691735  0.58039865  1
  Al  Al12  1  0.11084726  0.42864926  0.33591394  1
  Al  Al13  1  0.22256790  0.53777821  0.08254182  1
  Al  Al14  1  0.77859490  0.42723882  0.83244738  1
  Al  Al15  1  0.88645858  0.53969685  0.58039866  1
  Al  Al16  1  0.44546521  0.42819382  0.32980948  1
  Al  Al17  1  0.55587177  0.53860052  0.07976221  1
  Al  Al18  1  0.11011303  0.43011778  0.82839491  1
  Al  Al19  1  0.22418850  0.53969683  0.58039864  1
  Al  Al20  1  0.77668480  0.42819388  0.32980950  1
  Al  Al21  1  0.88999788  0.53777824  0.08254180  1
  Al  Al22  1  0.44451016  0.42723883  0.83244741  1
  Al  Al23  1  0.55587170  0.53860053  0.58279230  1
  Al  Al24  1  0.11043917  0.76131678  0.33030696  1
  Al  Al25  1  0.22256787  0.87272677  0.08254181  1
  Al  Al26  1  0.77807599  0.76080484  0.83210311  1
  Al  Al27  1  0.88920508  0.87193380  0.58232036  1
  Al  Al28  1  0.44546514  0.75941365  0.32980955  1
  Al  Al29  1  0.55504941  0.87272679  0.08254180  1
  Al  Al30  1  0.11146312  0.76080480  0.83210304  1
  Al  Al31  1  0.22418842  0.86918765  0.58039865  1
  Al  Al32  1  0.77858798  0.76131676  0.33030689  1
  Al  Al33  1  0.88920519  0.87193375  0.08008524  1
  Al  Al34  1  0.44451013  0.76132363  0.83244734  1
  Al  Al35  1  0.55696791  0.86918756  0.58039866  1
  N  N36  1  0.11363712  0.09636606  0.13333728  1
  N  N37  1  0.89068544  0.20432975  0.87936410  1
  N  N38  1  0.77787840  0.09458682  0.62910534  1
  N  N39  1  0.55540669  0.20624987  0.37825045  1
  N  N40  1  0.44034049  0.09636605  0.13333737  1
  N  N41  1  0.22253825  0.20526741  0.87084413  1
  N  N42  1  0.11117069  0.09389967  0.62297607  1
  N  N43  1  0.88868739  0.20624990  0.37825044  1
  N  N44  1  0.77815323  0.09403724  0.12839589  1
  N  N45  1  0.55532872  0.20432972  0.87936408  1
  N  N46  1  0.44527330  0.09389964  0.62297598  1
  N  N47  1  0.22352114  0.53813555  0.37825044  1
  N  N48  1  0.11363714  0.42306948  0.13333737  1
  N  N49  1  0.89068547  0.53805760  0.87936408  1
  N  N50  1  0.77828745  0.42739253  0.62976263  1
  N  N51  1  0.55587171  0.53860059  0.37975766  1
  N  N52  1  0.44490509  0.42763370  0.12791276  1
  N  N53  1  0.22160095  0.53805761  0.87936409  1
  N  N54  1  0.11117071  0.42800230  0.62297596  1
  N  N55  1  0.88868730  0.53813562  0.37825046  1
  N  N56  1  0.77780501  0.42763374  0.12791279  1
  N  N57  1  0.55587176  0.53860057  0.87796102  1
  N  N58  1  0.44466372  0.42739254  0.62976265  1
  N  N59  1  0.22352107  0.87141637  0.37825045  1
  N  N60  1  0.11130867  0.76088197  0.12839592  1
  N  N61  1  0.88920517  0.87193380  0.87795255  1
  N  N62  1  0.77787838  0.76060729  0.62910541  1
  N  N63  1  0.55540674  0.87141627  0.37825045  1
  N  N64  1  0.44490504  0.76053376  0.12791282  1
  N  N65  1  0.22160093  0.87341443  0.87936408  1
  N  N66  1  0.11185809  0.76060728  0.62910532  1
  N  N67  1  0.88920511  0.87193385  0.37956100  1
  N  N68  1  0.77815320  0.76088200  0.12839583  1
  N  N69  1  0.55532865  0.87341447  0.87936408  1
  N  N70  1  0.44466369  0.76101633  0.62976258  1
