# generated using pymatgen
data_Al36N35
_symmetry_space_group_name_H-M   'P 1'
_cell_length_a   9.50280420
_cell_length_b   9.50280637
_cell_length_c   9.54527355
_cell_angle_alpha   90.00000222
_cell_angle_beta   89.99998428
_cell_angle_gamma   60.00008518
_symmetry_Int_Tables_number   1
_chemical_formula_structural   Al36N35
_chemical_formula_sum   'Al36 N35'
_cell_volume   746.48836705
_cell_formula_units_Z   1
loop_
 _symmetry_equiv_pos_site_id
 _symmetry_equiv_pos_as_xyz
  1  'x, y, z'
loop_
 _atom_site_type_symbol
 _atom_site_label
 _atom_site_symmetry_multiplicity
 _atom_site_fract_x
 _atom_site_fract_y
 _atom_site_fract_z
 _atom_site_occupancy
  Al  Al0  1  0.11020166  0.09293056  0.33272347  1
  Al  Al1  1  0.22253831  0.20526729  0.07492953  1
  Al  Al2  1  0.77810664  0.09413048  0.83011325  1
  Al  Al3  1  0.88679106  0.20673596  0.57904439  1
  Al  Al4  1  0.44721171  0.09293041  0.33272355  1
  Al  Al5  1  0.55525115  0.20543171  0.08026920  1
  Al  Al6  1  0.11048260  0.09321158  0.82726678  1
  Al  Al7  1  0.22253838  0.20526719  0.58921013  1
  Al  Al8  1  0.77854881  0.09324621  0.32865456  1
  Al  Al9  1  0.88966098  0.20543178  0.08026920  1
  Al  Al10  1  0.44664958  0.09321154  0.82726672  1
  Al  Al11  1  0.55681686  0.20673602  0.57904440  1
  Al  Al12  1  0.11020152  0.42994071  0.33272351  1
  Al  Al13  1  0.22270304  0.53797990  0.08026921  1
  Al  Al14  1  0.77844782  0.42731237  0.83038782  1
  Al  Al15  1  0.88679104  0.53954576  0.57904440  1
  Al  Al16  1  0.44541963  0.42814828  0.32822341  1
  Al  Al17  1  0.55587174  0.53860053  0.07824105  1
  Al  Al18  1  0.11048265  0.42937850  0.82726670  1
  Al  Al19  1  0.22400715  0.53954579  0.57904439  1
  Al  Al20  1  0.77677590  0.42814833  0.32822345  1
  Al  Al21  1  0.88966102  0.53797990  0.08026918  1
  Al  Al22  1  0.44458364  0.42731239  0.83038787  1
  Al  Al23  1  0.55587171  0.53860052  0.58073809  1
  Al  Al24  1  0.11051752  0.76127760  0.32865456  1
  Al  Al25  1  0.22270300  0.87238994  0.08026920  1
  Al  Al26  1  0.77810661  0.76083544  0.83011331  1
  Al  Al27  1  0.88920504  0.87193383  0.58035599  1
  Al  Al28  1  0.44541957  0.75950476  0.32822347  1
  Al  Al29  1  0.55525108  0.87238993  0.08026919  1
  Al  Al30  1  0.11140182  0.76083543  0.83011326  1
  Al  Al31  1  0.22400711  0.86951996  0.57904440  1
  Al  Al32  1  0.77854879  0.76127757  0.32865450  1
  Al  Al33  1  0.88920515  0.87193378  0.07846773  1
  Al  Al34  1  0.44458361  0.76117660  0.83038783  1
  Al  Al35  1  0.55681690  0.86951987  0.57904440  1
  N  N36  1  0.11326045  0.09598940  0.13448968  1
  N  N37  1  0.89047976  0.20446842  0.88100425  1
  N  N38  1  0.77792654  0.09449059  0.63084726  1
  N  N39  1  0.55531006  0.20622081  0.38042898  1
  N  N40  1  0.44109380  0.09598938  0.13448978  1
  N  N41  1  0.22253832  0.20526734  0.87483275  1
  N  N42  1  0.11125815  0.09398702  0.62581611  1
  N  N43  1  0.88881312  0.20622082  0.38042897  1
  N  N44  1  0.77812562  0.09409246  0.13041465  1
  N  N45  1  0.55539574  0.20446839  0.88100424  1
  N  N46  1  0.44509854  0.09398698  0.62581604  1
  N  N47  1  0.22349206  0.53803891  0.38042898  1
  N  N48  1  0.11326048  0.42382277  0.13448975  1
  N  N49  1  0.89047981  0.53812460  0.88100423  1
  N  N50  1  0.77821880  0.42742685  0.63141065  1
  N  N51  1  0.55587172  0.53860057  0.38144123  1
  N  N52  1  0.44487371  0.42760235  0.13001313  1
  N  N53  1  0.22173958  0.53812462  0.88100425  1
  N  N54  1  0.11125819  0.42782739  0.62581601  1
  N  N55  1  0.88881303  0.53803897  0.38042899  1
  N  N56  1  0.77786770  0.42760238  0.13001318  1
  N  N57  1  0.55587175  0.53860057  0.88003405  1
  N  N58  1  0.44469807  0.42742687  0.63141069  1
  N  N59  1  0.22349200  0.87154205  0.38042898  1
  N  N60  1  0.11136387  0.76085435  0.13041465  1
  N  N61  1  0.88920513  0.87193383  0.88000325  1
  N  N62  1  0.77792653  0.76065534  0.63084733  1
  N  N63  1  0.55531012  0.87154194  0.38042898  1
  N  N64  1  0.44487366  0.76059648  0.13001318  1
  N  N65  1  0.22173956  0.87320876  0.88100425  1
  N  N66  1  0.11176185  0.76065537  0.63084726  1
  N  N67  1  0.88920511  0.87193384  0.38125593  1
  N  N68  1  0.77812560  0.76085436  0.13041458  1
  N  N69  1  0.55539569  0.87320877  0.88100424  1
  N  N70  1  0.44469805  0.76094758  0.63141065  1
