# generated using pymatgen
data_Al36N35
_symmetry_space_group_name_H-M   'P 1'
_cell_length_a   9.35197884
_cell_length_b   9.35197883
_cell_length_c   9.97577418
_cell_angle_alpha   89.99999912
_cell_angle_beta   89.99999549
_cell_angle_gamma   60.00000335
_symmetry_Int_Tables_number   1
_chemical_formula_structural   Al36N35
_chemical_formula_sum   'Al36 N35'
_cell_volume   755.58666810
_cell_formula_units_Z   1
loop_
 _symmetry_equiv_pos_site_id
 _symmetry_equiv_pos_as_xyz
  1  'x, y, z'
loop_
 _atom_site_type_symbol
 _atom_site_label
 _atom_site_symmetry_multiplicity
 _atom_site_fract_x
 _atom_site_fract_y
 _atom_site_fract_z
 _atom_site_occupancy
  Al  Al0  1  0.10907249  0.09155195  0.40755194  1
  Al  Al1  1  0.22256903  0.20504834  0.14938161  1
  Al  Al2  1  0.77824945  0.09368750  0.90662319  1
  Al  Al3  1  0.88849658  0.20566302  0.65704277  1
  Al  Al4  1  0.44956209  0.09155175  0.40755201  1
  Al  Al5  1  0.55627715  0.20590945  0.15616838  1
  Al  Al6  1  0.11116367  0.09364296  0.90648618  1
  Al  Al7  1  0.22256885  0.20504836  0.65800899  1
  Al  Al8  1  0.77841123  0.09336380  0.40707596  1
  Al  Al9  1  0.88800040  0.20590940  0.15616838  1
  Al  Al10  1  0.44537969  0.09364318  0.90648629  1
  Al  Al11  1  0.55602695  0.20566296  0.65704278  1
  Al  Al12  1  0.10907230  0.43204151  0.40755202  1
  Al  Al13  1  0.22343013  0.53875642  0.15616839  1
  Al  Al14  1  0.77793349  0.42736603  0.90648424  1
  Al  Al15  1  0.88849643  0.53850625  0.65704287  1
  Al  Al16  1  0.44521949  0.42769894  0.40744220  1
  Al  Al17  1  0.55590254  0.53838179  0.15617456  1
  Al  Al18  1  0.11116384  0.42785907  0.90648627  1
  Al  Al19  1  0.22318349  0.53850638  0.65704277  1
  Al  Al20  1  0.77726732  0.42769903  0.40744214  1
  Al  Al21  1  0.88800026  0.53875622  0.15616840  1
  Al  Al22  1  0.44488668  0.42736606  0.90648423  1
  Al  Al23  1  0.55590238  0.53838177  0.65715469  1
  Al  Al24  1  0.11088442  0.76089065  0.40707596  1
  Al  Al25  1  0.22343012  0.87047962  0.15616839  1
  Al  Al26  1  0.77824951  0.76072893  0.90662321  1
  Al  Al27  1  0.88923565  0.87171505  0.65709876  1
  Al  Al28  1  0.44521956  0.75974681  0.40744215  1
  Al  Al29  1  0.55627699  0.87047947  0.15616841  1
  Al  Al30  1  0.11120817  0.76072881  0.90662318  1
  Al  Al31  1  0.22318357  0.87097599  0.65704274  1
  Al  Al32  1  0.77841129  0.76089076  0.40707600  1
  Al  Al33  1  0.88923579  0.87171504  0.15637375  1
  Al  Al34  1  0.44488663  0.76041289  0.90648423  1
  Al  Al35  1  0.55602685  0.87097583  0.65704285  1
  N  N36  1  0.11153998  0.09401918  0.09965557  1
  N  N37  1  0.88965547  0.20477438  0.84785630  1
  N  N38  1  0.77806800  0.09405047  0.59747345  1
  N  N39  1  0.55474345  0.20569163  0.34735623  1
  N  N40  1  0.44462747  0.09401927  0.09965570  1
  N  N41  1  0.22256900  0.20504839  0.84899514  1
  N  N42  1  0.11216026  0.09463970  0.59653655  1
  N  N43  1  0.88975123  0.20569168  0.34735621  1
  N  N44  1  0.77808704  0.09401278  0.09792045  1
  N  N45  1  0.55575659  0.20477444  0.84785630  1
  N  N46  1  0.44338627  0.09463970  0.59653666  1
  N  N47  1  0.22321221  0.53722284  0.34735624  1
  N  N48  1  0.11154001  0.42710674  0.09965568  1
  N  N49  1  0.88965548  0.53823585  0.84785640  1
  N  N50  1  0.77808813  0.42728879  0.59778325  1
  N  N51  1  0.55590214  0.53838160  0.34744959  1
  N  N52  1  0.44479571  0.42727502  0.09751242  1
  N  N53  1  0.22229509  0.53823595  0.84785629  1
  N  N54  1  0.11216023  0.42586574  0.59653665  1
  N  N55  1  0.88975107  0.53722283  0.34735627  1
  N  N56  1  0.77811601  0.42727493  0.09751241  1
  N  N57  1  0.55590230  0.53838168  0.84772971  1
  N  N58  1  0.44480937  0.42728883  0.59778331  1
  N  N59  1  0.22321225  0.87223066  0.34735622  1
  N  N60  1  0.11153351  0.76056629  0.09792044  1
  N  N61  1  0.88923576  0.87171509  0.84781753  1
  N  N62  1  0.77806791  0.76054734  0.59747348  1
  N  N63  1  0.55474342  0.87223049  0.34735627  1
  N  N64  1  0.44479564  0.76059528  0.09751241  1
  N  N65  1  0.22229502  0.87213481  0.84785627  1
  N  N66  1  0.11157104  0.76054741  0.59747344  1
  N  N67  1  0.88923571  0.87171506  0.34757814  1
  N  N68  1  0.77808691  0.76056618  0.09792046  1
  N  N69  1  0.55575648  0.87213484  0.84785639  1
  N  N70  1  0.44480936  0.76056755  0.59778326  1
