# generated using pymatgen
data_Al36N35
_symmetry_space_group_name_H-M   'P 1'
_cell_length_a   9.78477970
_cell_length_b   9.78477951
_cell_length_c   8.64760587
_cell_angle_alpha   90.00000082
_cell_angle_beta   89.99999531
_cell_angle_gamma   60.00003918
_symmetry_Int_Tables_number   1
_chemical_formula_structural   Al36N35
_chemical_formula_sum   'Al36 N35'
_cell_volume   717.01589997
_cell_formula_units_Z   1
loop_
 _symmetry_equiv_pos_site_id
 _symmetry_equiv_pos_as_xyz
  1  'x, y, z'
loop_
 _atom_site_type_symbol
 _atom_site_label
 _atom_site_symmetry_multiplicity
 _atom_site_fract_x
 _atom_site_fract_y
 _atom_site_fract_z
 _atom_site_occupancy
  Al  Al0  1  0.11267796  0.09540730  0.35048802  1
  Al  Al1  1  0.22253813  0.20526745  0.08151794  1
  Al  Al2  1  0.77811401  0.09411572  0.84566111  1
  Al  Al3  1  0.88676760  0.20686457  0.59240019  1
  Al  Al4  1  0.44225836  0.09540723  0.35048803  1
  Al  Al5  1  0.55485890  0.20527350  0.09717854  1
  Al  Al6  1  0.10958782  0.09231649  0.84082970  1
  Al  Al7  1  0.22253807  0.20526748  0.61201691  1
  Al  Al8  1  0.77853313  0.09327743  0.34354915  1
  Al  Al9  1  0.89021144  0.20527344  0.09717846  1
  Al  Al10  1  0.44843923  0.09231669  0.84082965  1
  Al  Al11  1  0.55671167  0.20686445  0.59240009  1
  Al  Al12  1  0.11267790  0.42498779  0.35048811  1
  Al  Al13  1  0.22254478  0.53758790  0.09717854  1
  Al  Al14  1  0.77875950  0.42715648  0.84605648  1
  Al  Al15  1  0.88676752  0.53944047  0.59240020  1
  Al  Al16  1  0.44534721  0.42807595  0.34287748  1
  Al  Al17  1  0.55587180  0.53860049  0.09258706  1
  Al  Al18  1  0.10958771  0.43116861  0.84082958  1
  Al  Al19  1  0.22413610  0.53944024  0.59240010  1
  Al  Al20  1  0.77692076  0.42807594  0.34287744  1
  Al  Al21  1  0.89021140  0.53758792  0.09717843  1
  Al  Al22  1  0.44442802  0.42715642  0.84605645  1
  Al  Al23  1  0.55587181  0.53860047  0.59631113  1
  Al  Al24  1  0.11054893  0.76126194  0.34354935  1
  Al  Al25  1  0.22254484  0.87294019  0.09717862  1
  Al  Al26  1  0.77811391  0.76084284  0.84566107  1
  Al  Al27  1  0.88920522  0.87193368  0.59555216  1
  Al  Al28  1  0.44534719  0.75964951  0.34287758  1
  Al  Al29  1  0.55485886  0.87294033  0.09717860  1
  Al  Al30  1  0.11138728  0.76084274  0.84566093  1
  Al  Al31  1  0.22413592  0.86949676  0.59240004  1
  Al  Al32  1  0.77853304  0.76126204  0.34354919  1
  Al  Al33  1  0.88920519  0.87193374  0.09339970  1
  Al  Al34  1  0.44442792  0.76148822  0.84605638  1
  Al  Al35  1  0.55671148  0.86949681  0.59240004  1
  N  N36  1  0.11440045  0.09712939  0.12115740  1
  N  N37  1  0.89110325  0.20402756  0.86611532  1
  N  N38  1  0.77781455  0.09471459  0.61551568  1
  N  N39  1  0.55535399  0.20580641  0.36408005  1
  N  N40  1  0.43881371  0.09712949  0.12115746  1
  N  N41  1  0.22253810  0.20526748  0.85569619  1
  N  N42  1  0.11210825  0.09483736  0.60775914  1
  N  N43  1  0.88918331  0.20580647  0.36408010  1
  N  N44  1  0.77807581  0.09419206  0.11484112  1
  N  N45  1  0.55521303  0.20402757  0.86611537  1
  N  N46  1  0.44339793  0.09483743  0.60775910  1
  N  N47  1  0.22307770  0.53808282  0.36408011  1
  N  N48  1  0.11440041  0.42154305  0.12115749  1
  N  N49  1  0.89110320  0.53794186  0.86611529  1
  N  N50  1  0.77834861  0.42736194  0.61652846  1
  N  N51  1  0.55587177  0.53860050  0.36622874  1
  N  N52  1  0.44485345  0.42758217  0.11405352  1
  N  N53  1  0.22129909  0.53794181  0.86611532  1
  N  N54  1  0.11210824  0.42612731  0.60775905  1
  N  N55  1  0.88918327  0.53808298  0.36408014  1
  N  N56  1  0.77790834  0.42758216  0.11405346  1
  N  N57  1  0.55587176  0.53860052  0.86446066  1
  N  N58  1  0.44463343  0.42736187  0.61652840  1
  N  N59  1  0.22307760  0.87191252  0.36408006  1
  N  N60  1  0.11146341  0.76080470  0.11484125  1
  N  N61  1  0.88920523  0.87193368  0.86444462  1
  N  N62  1  0.77781442  0.76054345  0.61551568  1
  N  N63  1  0.55535393  0.87191249  0.36408003  1
  N  N64  1  0.44485345  0.76063702  0.11405361  1
  N  N65  1  0.22129905  0.87383201  0.86611538  1
  N  N66  1  0.11198620  0.76054331  0.61551556  1
  N  N67  1  0.88920516  0.87193374  0.36606559  1
  N  N68  1  0.77807576  0.76080477  0.11484112  1
  N  N69  1  0.55521292  0.87383216  0.86611540  1
  N  N70  1  0.44463332  0.76107742  0.61652832  1
