# generated using pymatgen
data_Al36N35
_symmetry_space_group_name_H-M   'P 1'
_cell_length_a   9.35199929
_cell_length_b   9.35199957
_cell_length_c   9.97571941
_cell_angle_alpha   90.00000163
_cell_angle_beta   90.00000060
_cell_angle_gamma   60.00000395
_symmetry_Int_Tables_number   1
_chemical_formula_structural   Al36N35
_chemical_formula_sum   'Al36 N35'
_cell_volume   755.58585274
_cell_formula_units_Z   1
loop_
 _symmetry_equiv_pos_site_id
 _symmetry_equiv_pos_as_xyz
  1  'x, y, z'
loop_
 _atom_site_type_symbol
 _atom_site_label
 _atom_site_symmetry_multiplicity
 _atom_site_fract_x
 _atom_site_fract_y
 _atom_site_fract_z
 _atom_site_occupancy
  Al  Al0  1  0.10905698  0.09165988  0.39625018  1
  Al  Al1  1  0.22255382  0.20515654  0.13808504  1
  Al  Al2  1  0.77823424  0.09379566  0.89531959  1
  Al  Al3  1  0.88848178  0.20577099  0.64574108  1
  Al  Al4  1  0.44954757  0.09165966  0.39625022  1
  Al  Al5  1  0.55626190  0.20601815  0.14486428  1
  Al  Al6  1  0.11114850  0.09375118  0.89518597  1
  Al  Al7  1  0.22255374  0.20515659  0.64671144  1
  Al  Al8  1  0.77839594  0.09347228  0.39577323  1
  Al  Al9  1  0.88798471  0.20601813  0.14486425  1
  Al  Al10  1  0.44536446  0.09375137  0.89518611  1
  Al  Al11  1  0.55601173  0.20577089  0.64574105  1
  Al  Al12  1  0.10905684  0.43215035  0.39625022  1
  Al  Al13  1  0.22341545  0.53886455  0.14486426  1
  Al  Al14  1  0.77791819  0.42747432  0.89517989  1
  Al  Al15  1  0.88848169  0.53861436  0.64574112  1
  Al  Al16  1  0.44520446  0.42780730  0.39614088  1
  Al  Al17  1  0.55588734  0.53849000  0.14486990  1
  Al  Al18  1  0.11114867  0.42796723  0.89518608  1
  Al  Al19  1  0.22316811  0.53861447  0.64574102  1
  Al  Al20  1  0.77725189  0.42780742  0.39614083  1
  Al  Al21  1  0.88798462  0.53886439  0.14486428  1
  Al  Al22  1  0.44487153  0.42747431  0.89517987  1
  Al  Al23  1  0.55588724  0.53848998  0.64585282  1
  Al  Al24  1  0.11086955  0.76099874  0.39577322  1
  Al  Al25  1  0.22341542  0.87058737  0.14486426  1
  Al  Al26  1  0.77823435  0.76083715  0.89531958  1
  Al  Al27  1  0.88922054  0.87182325  0.64579641  1
  Al  Al28  1  0.44520452  0.75985485  0.39614082  1
  Al  Al29  1  0.55626181  0.87058719  0.14486428  1
  Al  Al30  1  0.11119297  0.76083701  0.89531956  1
  Al  Al31  1  0.22316818  0.87108457  0.64574102  1
  Al  Al32  1  0.77839602  0.76099885  0.39577324  1
  Al  Al33  1  0.88922063  0.87182324  0.14506941  1
  Al  Al34  1  0.44487151  0.76052103  0.89517988  1
  Al  Al35  1  0.55601167  0.87108438  0.64574109  1
  N  N36  1  0.11152508  0.09412773  0.08835636  1
  N  N37  1  0.88964087  0.20488218  0.83655568  1
  N  N38  1  0.77805283  0.09415877  0.58617236  1
  N  N39  1  0.55472823  0.20580020  0.33605443  1
  N  N40  1  0.44461160  0.09412779  0.08835658  1
  N  N41  1  0.22255383  0.20515659  0.83769755  1
  N  N42  1  0.11214555  0.09474838  0.58523622  1
  N  N43  1  0.88973577  0.20580027  0.33605440  1
  N  N44  1  0.77807180  0.09412099  0.08661836  1
  N  N45  1  0.55574114  0.20488222  0.83655562  1
  N  N46  1  0.44337033  0.09474831  0.58523625  1
  N  N47  1  0.22319739  0.53733101  0.33605442  1
  N  N48  1  0.11152515  0.42721425  0.08835653  1
  N  N49  1  0.88964094  0.53834387  0.83655572  1
  N  N50  1  0.77807311  0.42739696  0.58648316  1
  N  N51  1  0.55588695  0.53848987  0.33614761  1
  N  N52  1  0.44478058  0.42738326  0.08620964  1
  N  N53  1  0.22227943  0.53834394  0.83655560  1
  N  N54  1  0.11214555  0.42597311  0.58523624  1
  N  N55  1  0.88973565  0.53733100  0.33605444  1
  N  N56  1  0.77810069  0.42738322  0.08620964  1
  N  N57  1  0.55588707  0.53848991  0.83642819  1
  N  N58  1  0.44479419  0.42739694  0.58648319  1
  N  N59  1  0.22319741  0.87233865  0.33605441  1
  N  N60  1  0.11151835  0.76067444  0.08661833  1
  N  N61  1  0.88922059  0.87182327  0.83651616  1
  N  N62  1  0.77805277  0.76065548  0.58617235  1
  N  N63  1  0.55472823  0.87233845  0.33605444  1
  N  N64  1  0.44478052  0.76070338  0.08620964  1
  N  N65  1  0.22227941  0.87224364  0.83655561  1
  N  N66  1  0.11155603  0.76065557  0.58617235  1
  N  N67  1  0.88922058  0.87182328  0.33627594  1
  N  N68  1  0.77807175  0.76067436  0.08661833  1
  N  N69  1  0.55574112  0.87224367  0.83655569  1
  N  N70  1  0.44479418  0.76067590  0.58648314  1
