# generated using pymatgen
data_Al36N35
_symmetry_space_group_name_H-M   'P 1'
_cell_length_a   9.78466603
_cell_length_b   9.78467050
_cell_length_c   8.64803965
_cell_angle_alpha   89.99999835
_cell_angle_beta   90.00000212
_cell_angle_gamma   60.00003192
_symmetry_Int_Tables_number   1
_chemical_formula_structural   Al36N35
_chemical_formula_sum   'Al36 N35'
_cell_volume   717.03549551
_cell_formula_units_Z   1
loop_
 _symmetry_equiv_pos_site_id
 _symmetry_equiv_pos_as_xyz
  1  'x, y, z'
loop_
 _atom_site_type_symbol
 _atom_site_label
 _atom_site_symmetry_multiplicity
 _atom_site_fract_x
 _atom_site_fract_y
 _atom_site_fract_z
 _atom_site_occupancy
  Al  Al0  1  0.11267511  0.09540427  0.35895831  1
  Al  Al1  1  0.22253807  0.20526742  0.09743896  1
  Al  Al2  1  0.77811536  0.09411299  0.86379850  1
  Al  Al3  1  0.89021177  0.20527361  0.61228373  1
  Al  Al4  1  0.44226409  0.09540428  0.35895837  1
  Al  Al5  1  0.55671294  0.20686443  0.11704912  1
  Al  Al6  1  0.10958901  0.09231750  0.86862479  1
  Al  Al7  1  0.22253809  0.20526737  0.62792196  1
  Al  Al8  1  0.77853202  0.09327958  0.36590796  1
  Al  Al9  1  0.88676621  0.20686458  0.11704904  1
  Al  Al10  1  0.44843698  0.09231772  0.86862471  1
  Al  Al11  1  0.55485831  0.20527370  0.61228366  1
  Al  Al12  1  0.11267507  0.42499344  0.35895825  1
  Al  Al13  1  0.22413617  0.53944146  0.11704911  1
  Al  Al14  1  0.77875643  0.42715792  0.86340367  1
  Al  Al15  1  0.89021171  0.53758728  0.61228374  1
  Al  Al16  1  0.44534593  0.42807453  0.36657628  1
  Al  Al17  1  0.55587183  0.53860038  0.11315541  1
  Al  Al18  1  0.10958889  0.43116622  0.86862484  1
  Al  Al19  1  0.22254505  0.53758722  0.61228366  1
  Al  Al20  1  0.77692343  0.42807450  0.36657638  1
  Al  Al21  1  0.88676615  0.53944168  0.11704902  1
  Al  Al22  1  0.44442962  0.42715786  0.86340378  1
  Al  Al23  1  0.55587177  0.53860043  0.61686187  1
  Al  Al24  1  0.11055122  0.76126069  0.36590782  1
  Al  Al25  1  0.22413600  0.86949528  0.11704918  1
  Al  Al26  1  0.77811525  0.76084403  0.86379856  1
  Al  Al27  1  0.88920516  0.87193368  0.61605380  1
  Al  Al28  1  0.44534591  0.75965203  0.36657620  1
  Al  Al29  1  0.55671274  0.86949540  0.11704917  1
  Al  Al30  1  0.11138472  0.76084392  0.86379863  1
  Al  Al31  1  0.22254510  0.87294044  0.61228359  1
  Al  Al32  1  0.77853192  0.76126082  0.36590788  1
  Al  Al33  1  0.88920524  0.87193360  0.11391273  1
  Al  Al34  1  0.44442952  0.76148499  0.86340384  1
  Al  Al35  1  0.55485828  0.87294057  0.61228359  1
  N  N36  1  0.11210749  0.09483642  0.10167174  1
  N  N37  1  0.89110318  0.20402787  0.84331911  1
  N  N38  1  0.77807513  0.09419339  0.59459094  1
  N  N39  1  0.55535520  0.20580675  0.34534577  1
  N  N40  1  0.44339960  0.09483650  0.10167170  1
  N  N41  1  0.22253805  0.20526742  0.85373560  1
  N  N42  1  0.11439966  0.09712841  0.58827130  1
  N  N43  1  0.88918162  0.20580682  0.34534572  1
  N  N44  1  0.77781567  0.09471232  0.09391346  1
  N  N45  1  0.55521269  0.20402790  0.84331908  1
  N  N46  1  0.43881544  0.09712854  0.58827136  1
  N  N47  1  0.22307808  0.53808401  0.34534572  1
  N  N48  1  0.11210747  0.42612883  0.10167177  1
  N  N49  1  0.89110311  0.53794147  0.84331913  1
  N  N50  1  0.77790993  0.42758127  0.59537645  1
  N  N51  1  0.55587177  0.53860042  0.34320619  1
  N  N52  1  0.44463454  0.42736279  0.09290263  1
  N  N53  1  0.22129949  0.53794139  0.84331911  1
  N  N54  1  0.11439961  0.42154462  0.58827125  1
  N  N55  1  0.88918160  0.53808415  0.34534568  1
  N  N56  1  0.77834659  0.42736285  0.09290251  1
  N  N57  1  0.55587173  0.53860045  0.84496591  1
  N  N58  1  0.44485273  0.42758129  0.59537635  1
  N  N59  1  0.22307798  0.87191077  0.34534577  1
  N  N60  1  0.11198411  0.76054425  0.09391353  1
  N  N61  1  0.88920520  0.87193361  0.84498261  1
  N  N62  1  0.77807506  0.76080394  0.59459091  1
  N  N63  1  0.55535512  0.87191081  0.34534578  1
  N  N64  1  0.44463443  0.76107519  0.09290271  1
  N  N65  1  0.22129944  0.87383187  0.84331909  1
  N  N66  1  0.11146490  0.76080386  0.59459087  1
  N  N67  1  0.88920515  0.87193366  0.34336920  1
  N  N68  1  0.77781554  0.76054441  0.09391348  1
  N  N69  1  0.55521258  0.87383201  0.84331908  1
  N  N70  1  0.44485273  0.76063845  0.59537627  1
