# generated using pymatgen
data_Al36N35
_symmetry_space_group_name_H-M   'P 1'
_cell_length_a   9.35199884
_cell_length_b   9.35199913
_cell_length_c   9.97573472
_cell_angle_alpha   90.00000102
_cell_angle_beta   89.99999808
_cell_angle_gamma   59.99999917
_symmetry_Int_Tables_number   1
_chemical_formula_structural   Al36N35
_chemical_formula_sum   'Al36 N35'
_cell_volume   755.58690348
_cell_formula_units_Z   1
loop_
 _symmetry_equiv_pos_site_id
 _symmetry_equiv_pos_as_xyz
  1  'x, y, z'
loop_
 _atom_site_type_symbol
 _atom_site_label
 _atom_site_symmetry_multiplicity
 _atom_site_fract_x
 _atom_site_fract_y
 _atom_site_fract_z
 _atom_site_occupancy
  Al  Al0  1  0.10906739  0.09158620  0.40394629  1
  Al  Al1  1  0.22256416  0.20508284  0.14578152  1
  Al  Al2  1  0.77824462  0.09372193  0.90301603  1
  Al  Al3  1  0.88849218  0.20569715  0.65343689  1
  Al  Al4  1  0.44955778  0.09158600  0.40394638  1
  Al  Al5  1  0.55627226  0.20594430  0.15256086  1
  Al  Al6  1  0.11115888  0.09367748  0.90288233  1
  Al  Al7  1  0.22256406  0.20508287  0.65440786  1
  Al  Al8  1  0.77840634  0.09339842  0.40346902  1
  Al  Al9  1  0.88799524  0.20594424  0.15256081  1
  Al  Al10  1  0.44537479  0.09367768  0.90288251  1
  Al  Al11  1  0.55602211  0.20569706  0.65343690  1
  Al  Al12  1  0.10906720  0.43207655  0.40394636  1
  Al  Al13  1  0.22342561  0.53879091  0.15256085  1
  Al  Al14  1  0.77792873  0.42740047  0.90287645  1
  Al  Al15  1  0.88849204  0.53854069  0.65343698  1
  Al  Al16  1  0.44521474  0.42773352  0.40383668  1
  Al  Al17  1  0.55589769  0.53841629  0.15256642  1
  Al  Al18  1  0.11115902  0.42789349  0.90288248  1
  Al  Al19  1  0.22317832  0.53854082  0.65343687  1
  Al  Al20  1  0.77726233  0.42773362  0.40383661  1
  Al  Al21  1  0.88799509  0.53879071  0.15256087  1
  Al  Al22  1  0.44488178  0.42740049  0.90287646  1
  Al  Al23  1  0.55589758  0.53841626  0.65354866  1
  Al  Al24  1  0.11087971  0.76092509  0.40346900  1
  Al  Al25  1  0.22342560  0.87051381  0.15256081  1
  Al  Al26  1  0.77824469  0.76076342  0.90301603  1
  Al  Al27  1  0.88923085  0.87174952  0.65349223  1
  Al  Al28  1  0.44521479  0.75978119  0.40383662  1
  Al  Al29  1  0.55627213  0.87051365  0.15256088  1
  Al  Al30  1  0.11120329  0.76076331  0.90301602  1
  Al  Al31  1  0.22317839  0.87101089  0.65343685  1
  Al  Al32  1  0.77840639  0.76092522  0.40346908  1
  Al  Al33  1  0.88923092  0.87174955  0.15276584  1
  Al  Al34  1  0.44488175  0.76044746  0.90287644  1
  Al  Al35  1  0.55602201  0.87101073  0.65343697  1
  N  N36  1  0.11153546  0.09405401  0.09605286  1
  N  N37  1  0.88965121  0.20480844  0.84425202  1
  N  N38  1  0.77806317  0.09408503  0.59386879  1
  N  N39  1  0.55473852  0.20572642  0.34375117  1
  N  N40  1  0.44462196  0.09405409  0.09605311  1
  N  N41  1  0.22256418  0.20508288  0.84539427  1
  N  N42  1  0.11215593  0.09467466  0.59293292  1
  N  N43  1  0.88974621  0.20572647  0.34375112  1
  N  N44  1  0.77808215  0.09404734  0.09431487  1
  N  N45  1  0.55575155  0.20480849  0.84425203  1
  N  N46  1  0.44338059  0.09467464  0.59293302  1
  N  N47  1  0.22320766  0.53725725  0.34375116  1
  N  N48  1  0.11153549  0.42714058  0.09605308  1
  N  N49  1  0.88965123  0.53827014  0.84425212  1
  N  N50  1  0.77808346  0.42732322  0.59417961  1
  N  N51  1  0.55589729  0.53841611  0.34384427  1
  N  N52  1  0.44479089  0.42730957  0.09390630  1
  N  N53  1  0.22228979  0.53827025  0.84425200  1
  N  N54  1  0.11215589  0.42589933  0.59293299  1
  N  N55  1  0.88974603  0.53725726  0.34375120  1
  N  N56  1  0.77811109  0.42730947  0.09390627  1
  N  N57  1  0.55589744  0.53841615  0.84412470  1
  N  N58  1  0.44480452  0.42732324  0.59417969  1
  N  N59  1  0.22320769  0.87226499  0.34375112  1
  N  N60  1  0.11152869  0.76060077  0.09431486  1
  N  N61  1  0.88923092  0.87174955  0.84421257  1
  N  N62  1  0.77806307  0.76058178  0.59386884  1
  N  N63  1  0.55473847  0.87226483  0.34375121  1
  N  N64  1  0.44479085  0.76062970  0.09390626  1
  N  N65  1  0.22228976  0.87216989  0.84425198  1
  N  N66  1  0.11156632  0.76058186  0.59386876  1
  N  N67  1  0.88923086  0.87174957  0.34397248  1
  N  N68  1  0.77808205  0.76060065  0.09431486  1
  N  N69  1  0.55575145  0.87216991  0.84425211  1
  N  N70  1  0.44480449  0.76060218  0.59417963  1
