# generated using pymatgen
data_Al36N35
_symmetry_space_group_name_H-M   'P 1'
_cell_length_a   9.50284947
_cell_length_b   9.50284965
_cell_length_c   9.54516912
_cell_angle_alpha   89.99999710
_cell_angle_beta   90.00001459
_cell_angle_gamma   60.00002885
_symmetry_Int_Tables_number   1
_chemical_formula_structural   Al36N35
_chemical_formula_sum   'Al36 N35'
_cell_volume   746.48673275
_cell_formula_units_Z   1
loop_
 _symmetry_equiv_pos_site_id
 _symmetry_equiv_pos_as_xyz
  1  'x, y, z'
loop_
 _atom_site_type_symbol
 _atom_site_label
 _atom_site_symmetry_multiplicity
 _atom_site_fract_x
 _atom_site_fract_y
 _atom_site_fract_z
 _atom_site_occupancy
  Al  Al0  1  0.11020330  0.09293218  0.37672182  1
  Al  Al1  1  0.22253841  0.20526714  0.12021655  1
  Al  Al2  1  0.77810669  0.09413039  0.87932531  1
  Al  Al3  1  0.88965982  0.20543213  0.62917014  1
  Al  Al4  1  0.44720829  0.09293215  0.37672186  1
  Al  Al5  1  0.55681641  0.20673577  0.13039529  1
  Al  Al6  1  0.11048105  0.09320996  0.88217386  1
  Al  Al7  1  0.22253827  0.20526723  0.63451858  1
  Al  Al8  1  0.77854864  0.09324648  0.38078282  1
  Al  Al9  1  0.88679164  0.20673575  0.13039530  1
  Al  Al10  1  0.44665279  0.09320993  0.88217380  1
  Al  Al11  1  0.55525188  0.20543211  0.62917015  1
  Al  Al12  1  0.11020328  0.42993727  0.37672182  1
  Al  Al13  1  0.22400696  0.53954530  0.13039530  1
  Al  Al14  1  0.77844720  0.42731268  0.87905106  1
  Al  Al15  1  0.88965985  0.53798061  0.62917014  1
  Al  Al16  1  0.44541930  0.42814792  0.38121550  1
  Al  Al17  1  0.55587173  0.53860046  0.12870148  1
  Al  Al18  1  0.11048110  0.42938165  0.88217387  1
  Al  Al19  1  0.22270349  0.53798057  0.62917014  1
  Al  Al20  1  0.77677662  0.42814795  0.38121555  1
  Al  Al21  1  0.88679166  0.53954522  0.13039530  1
  Al  Al22  1  0.44458401  0.42731270  0.87905111  1
  Al  Al23  1  0.55587172  0.53860047  0.63119719  1
  Al  Al24  1  0.11051781  0.76127743  0.38078288  1
  Al  Al25  1  0.22400693  0.86952048  0.13039530  1
  Al  Al26  1  0.77810667  0.76083544  0.87932530  1
  Al  Al27  1  0.88920510  0.87193372  0.63096921  1
  Al  Al28  1  0.44541923  0.75950544  0.38121549  1
  Al  Al29  1  0.55681642  0.86952046  0.13039529  1
  Al  Al30  1  0.11140178  0.76083544  0.87932525  1
  Al  Al31  1  0.22270343  0.87238870  0.62917016  1
  Al  Al32  1  0.77854865  0.76127741  0.38078283  1
  Al  Al33  1  0.88920506  0.87193376  0.12908240  1
  Al  Al34  1  0.44458398  0.76117591  0.87905112  1
  Al  Al35  1  0.55525184  0.87238867  0.62917016  1
  N  N36  1  0.11125762  0.09398648  0.08362818  1
  N  N37  1  0.89047880  0.20446861  0.82844008  1
  N  N38  1  0.77812559  0.09409254  0.57902840  1
  N  N39  1  0.55530900  0.20621985  0.32901643  1
  N  N40  1  0.44509970  0.09398643  0.08362811  1
  N  N41  1  0.22253831  0.20526723  0.83462005  1
  N  N42  1  0.11326083  0.09598975  0.57496065  1
  N  N43  1  0.88881493  0.20621989  0.32901643  1
  N  N44  1  0.77792652  0.09449068  0.07859713  1
  N  N45  1  0.55539642  0.20446863  0.82844009  1
  N  N46  1  0.44109311  0.09598974  0.57496068  1
  N  N47  1  0.22349116  0.53803782  0.32901644  1
  N  N48  1  0.11125765  0.42782853  0.08362819  1
  N  N49  1  0.89047884  0.53812520  0.82844008  1
  N  N50  1  0.77786783  0.42760234  0.57943123  1
  N  N51  1  0.55587173  0.53860049  0.32800355  1
  N  N52  1  0.44469804  0.42742682  0.07803382  1
  N  N53  1  0.22173991  0.53812518  0.82844009  1
  N  N54  1  0.11326087  0.42382206  0.57496064  1
  N  N55  1  0.88881494  0.53803780  0.32901643  1
  N  N56  1  0.77821897  0.42742679  0.07803377  1
  N  N57  1  0.55587173  0.53860049  0.82940959  1
  N  N58  1  0.44487368  0.42760233  0.57943119  1
  N  N59  1  0.22349111  0.87154382  0.32901643  1
  N  N60  1  0.11176194  0.76065534  0.07859707  1
  N  N61  1  0.88920509  0.87193375  0.82943976  1
  N  N62  1  0.77812557  0.76085435  0.57902841  1
  N  N63  1  0.55530901  0.87154381  0.32901643  1
  N  N64  1  0.44469801  0.76094773  0.07803384  1
  N  N65  1  0.22173987  0.87320770  0.82844011  1
  N  N66  1  0.11136392  0.76085435  0.57902845  1
  N  N67  1  0.88920510  0.87193375  0.32818754  1
  N  N68  1  0.77792652  0.76065531  0.07859711  1
  N  N69  1  0.55539639  0.87320767  0.82844011  1
  N  N70  1  0.44487363  0.76059658  0.57943119  1
