# generated using pymatgen
data_Al36N35
_symmetry_space_group_name_H-M   'P 1'
_cell_length_a   9.55548943
_cell_length_b   9.55548974
_cell_length_c   9.38439667
_cell_angle_alpha   89.99999723
_cell_angle_beta   90.00001536
_cell_angle_gamma   60.00002189
_symmetry_Int_Tables_number   1
_chemical_formula_structural   Al36N35
_chemical_formula_sum   'Al36 N35'
_cell_volume   742.06674787
_cell_formula_units_Z   1
loop_
 _symmetry_equiv_pos_site_id
 _symmetry_equiv_pos_as_xyz
  1  'x, y, z'
loop_
 _atom_site_type_symbol
 _atom_site_label
 _atom_site_symmetry_multiplicity
 _atom_site_fract_x
 _atom_site_fract_y
 _atom_site_fract_z
 _atom_site_occupancy
  Al  Al0  1  0.11084765  0.09357645  0.37353597  1
  Al  Al1  1  0.22253834  0.20526719  0.11548996  1
  Al  Al2  1  0.77807634  0.09419108  0.87733622  1
  Al  Al3  1  0.88999709  0.20529664  0.62690018  1
  Al  Al4  1  0.44591962  0.09357646  0.37353603  1
  Al  Al5  1  0.55696768  0.20691710  0.12904232  1
  Al  Al6  1  0.11011255  0.09284144  0.88105197  1
  Al  Al7  1  0.22253826  0.20526723  0.63418058  1
  Al  Al8  1  0.77858762  0.09316851  0.37913248  1
  Al  Al9  1  0.88645893  0.20691713  0.12904232  1
  Al  Al10  1  0.44738971  0.09284146  0.88105190  1
  Al  Al11  1  0.55505008  0.20529662  0.62690018  1
  Al  Al12  1  0.11084762  0.42864862  0.37353595  1
  Al  Al13  1  0.22418835  0.53969656  0.12904233  1
  Al  Al14  1  0.77859400  0.42723924  0.87699278  1
  Al  Al15  1  0.88999711  0.53777878  0.62690017  1
  Al  Al16  1  0.44546471  0.42819325  0.37963236  1
  Al  Al17  1  0.55587173  0.53860045  0.12664994  1
  Al  Al18  1  0.11011256  0.43011872  0.88105199  1
  Al  Al19  1  0.22256810  0.53777870  0.62690017  1
  Al  Al20  1  0.77668589  0.42819329  0.37963243  1
  Al  Al21  1  0.88645893  0.53969652  0.12904232  1
  Al  Al22  1  0.44451066  0.42723925  0.87699284  1
  Al  Al23  1  0.55587175  0.53860043  0.62967792  1
  Al  Al24  1  0.11043993  0.76131634  0.37913253  1
  Al  Al25  1  0.22418829  0.86918787  0.12904232  1
  Al  Al26  1  0.77807629  0.76080506  0.87733623  1
  Al  Al27  1  0.88920516  0.87193366  0.62935291  1
  Al  Al28  1  0.44546463  0.75941466  0.37963233  1
  Al  Al29  1  0.55696765  0.86918787  0.12904232  1
  Al  Al30  1  0.11146259  0.76080502  0.87733618  1
  Al  Al31  1  0.22256804  0.87272592  0.62690018  1
  Al  Al32  1  0.77858762  0.76131635  0.37913248  1
  Al  Al33  1  0.88920510  0.87193371  0.12711987  1
  Al  Al34  1  0.44451063  0.76132264  0.87699287  1
  Al  Al35  1  0.55505003  0.87272590  0.62690019  1
  N  N36  1  0.11117076  0.09389969  0.08646860  1
  N  N37  1  0.89068518  0.20432969  0.83007949  1
  N  N38  1  0.77815291  0.09403790  0.58104581  1
  N  N39  1  0.55540576  0.20624924  0.33119267  1
  N  N40  1  0.44527327  0.09389966  0.08646852  1
  N  N41  1  0.22253822  0.20526729  0.83860325  1
  N  N42  1  0.11363694  0.09636583  0.57611142  1
  N  N43  1  0.88868873  0.20624928  0.33119267  1
  N  N44  1  0.77787866  0.09458635  0.08033667  1
  N  N45  1  0.55532891  0.20432971  0.83007949  1
  N  N46  1  0.44034091  0.09636583  0.57611147  1
  N  N47  1  0.22352062  0.53813455  0.33119268  1
  N  N48  1  0.11117078  0.42800223  0.08646862  1
  N  N49  1  0.89068519  0.53805770  0.83007950  1
  N  N50  1  0.77780568  0.42763339  0.58153063  1
  N  N51  1  0.55587173  0.53860047  0.32968668  1
  N  N52  1  0.44466402  0.42739277  0.07967988  1
  N  N53  1  0.22160105  0.53805767  0.83007950  1
  N  N54  1  0.11363698  0.42306986  0.57611140  1
  N  N55  1  0.88868872  0.53813456  0.33119266  1
  N  N56  1  0.77828699  0.42739276  0.07967981  1
  N  N57  1  0.55587175  0.53860045  0.83148020  1
  N  N58  1  0.44490481  0.42763337  0.58153058  1
  N  N59  1  0.22352055  0.87141760  0.33119267  1
  N  N60  1  0.11185767  0.76060749  0.08033664  1
  N  N61  1  0.88920514  0.87193368  0.83148755  1
  N  N62  1  0.77815288  0.76088165  0.58104581  1
  N  N63  1  0.55540575  0.87141764  0.33119267  1
  N  N64  1  0.44466397  0.76101581  0.07967992  1
  N  N65  1  0.22160101  0.87341405  0.83007952  1
  N  N66  1  0.11130937  0.76088162  0.58104585  1
  N  N67  1  0.88920511  0.87193373  0.32988157  1
  N  N68  1  0.77787863  0.76060750  0.08033667  1
  N  N69  1  0.55532886  0.87341404  0.83007951  1
  N  N70  1  0.44490476  0.76053437  0.58153056  1
