# generated using pymatgen
data_Al36N35
_symmetry_space_group_name_H-M   'P 1'
_cell_length_a   9.35212432
_cell_length_b   9.35205709
_cell_length_c   9.97613796
_cell_angle_alpha   90.00007611
_cell_angle_beta   89.99985355
_cell_angle_gamma   60.00066257
_symmetry_Int_Tables_number   1
_chemical_formula_structural   Al36N35
_chemical_formula_sum   'Al36 N35'
_cell_volume   755.63731855
_cell_formula_units_Z   1
loop_
 _symmetry_equiv_pos_site_id
 _symmetry_equiv_pos_as_xyz
  1  'x, y, z'
loop_
 _atom_site_type_symbol
 _atom_site_label
 _atom_site_symmetry_multiplicity
 _atom_site_fract_x
 _atom_site_fract_y
 _atom_site_fract_z
 _atom_site_occupancy
  Al  Al0  1  0.10900051  0.09209103  0.29488326  1
  Al  Al1  1  0.22248259  0.20558083  0.04442492  1
  Al  Al2  1  0.77819868  0.09417051  0.79584463  1
  Al  Al3  1  0.88795703  0.20637331  0.54629444  1
  Al  Al4  1  0.44951767  0.09203885  0.29489116  1
  Al  Al5  1  0.55592466  0.20622371  0.04542304  1
  Al  Al6  1  0.11111203  0.09414483  0.79597375  1
  Al  Al7  1  0.22252716  0.20551361  0.55299770  1
  Al  Al8  1  0.77832441  0.09389844  0.29540722  1
  Al  Al9  1  0.88838739  0.20621756  0.04542818  1
  Al  Al10  1  0.44531797  0.09413306  0.79595436  1
  Al  Al11  1  0.55622457  0.20637580  0.54630224  1
  Al  Al12  1  0.10896671  0.43258776  0.29488537  1
  Al  Al13  1  0.22306970  0.53906704  0.04542482  1
  Al  Al14  1  0.77790123  0.42784862  0.79598539  1
  Al  Al15  1  0.88795186  0.53921346  0.54630889  1
  Al  Al16  1  0.44512314  0.42821234  0.29503443  1
  Al  Al17  1  0.55579572  0.53892896  0.04533644  1
  Al  Al18  1  0.11115130  0.42832459  0.79595535  1
  Al  Al19  1  0.22337876  0.53923641  0.54629406  1
  Al  Al20  1  0.77718575  0.42821562  0.29503813  1
  Al  Al21  1  0.88840388  0.53903328  0.04541610  1
  Al  Al22  1  0.44485038  0.42785722  0.79598485  1
  Al  Al23  1  0.55585038  0.53884448  0.54629334  1
  Al  Al24  1  0.11079875  0.76142984  0.29540859  1
  Al  Al25  1  0.22306547  0.87152533  0.04541694  1
  Al  Al26  1  0.77821088  0.76119889  0.79584974  1
  Al  Al27  1  0.88917984  0.87217677  0.54609144  1
  Al  Al28  1  0.44512176  0.76027805  0.29503659  1
  Al  Al29  1  0.55592857  0.87150002  0.04541964  1
  Al  Al30  1  0.11116955  0.76121042  0.79584353  1
  Al  Al31  1  0.22336671  0.87096765  0.54630245  1
  Al  Al32  1  0.77831665  0.76140476  0.29540067  1
  Al  Al33  1  0.88911761  0.87226221  0.04539451  1
  Al  Al34  1  0.44483804  0.76090137  0.79598148  1
  Al  Al35  1  0.55622766  0.87092761  0.54630549  1
  N  N36  1  0.11205851  0.09519015  0.10590476  1
  N  N37  1  0.88960440  0.20526161  0.85461563  1
  N  N38  1  0.77803969  0.09447484  0.60454112  1
  N  N39  1  0.55465286  0.20620450  0.35512511  1
  N  N40  1  0.44330013  0.09517548  0.10592411  1
  N  N41  1  0.22252571  0.20553388  0.85345384  1
  N  N42  1  0.11149114  0.09450498  0.60281216  1
  N  N43  1  0.88969686  0.20619909  0.35511587  1
  N  N44  1  0.77795278  0.09460959  0.10501492  1
  N  N45  1  0.55569830  0.20526401  0.85461257  1
  N  N46  1  0.44456086  0.09448633  0.60279269  1
  N  N47  1  0.22311207  0.53774234  0.35511586  1
  N  N48  1  0.11206303  0.42640028  0.10592386  1
  N  N49  1  0.88964458  0.53870244  0.85460930  1
  N  N50  1  0.77806757  0.42772936  0.60496097  1
  N  N51  1  0.55581442  0.53889429  0.35501829  1
  N  N52  1  0.44469256  0.42784580  0.10469983  1
  N  N53  1  0.22225869  0.53872067  0.85461358  1
  N  N54  1  0.11150858  0.42756019  0.60278528  1
  N  N55  1  0.88967173  0.53773438  0.35512385  1
  N  N56  1  0.77798732  0.42783526  0.10470224  1
  N  N57  1  0.55586599  0.53887522  0.85475577  1
  N  N58  1  0.44474945  0.42773680  0.60495394  1
  N  N59  1  0.22311959  0.87278094  0.35512352  1
  N  N60  1  0.11145866  0.76109684  0.10501374  1
  N  N61  1  0.88918777  0.87220179  0.85467122  1
  N  N62  1  0.77804010  0.76102293  0.60454964  1
  N  N63  1  0.55465658  0.87274451  0.35512609  1
  N  N64  1  0.44468884  0.76111780  0.10469811  1
  N  N65  1  0.22224098  0.87263968  0.85460428  1
  N  N66  1  0.11148015  0.76104248  0.60454575  1
  N  N67  1  0.88914382  0.87223703  0.35489140  1
  N  N68  1  0.77796277  0.76107429  0.10500628  1
  N  N69  1  0.55570374  0.87263129  0.85461290  1
  N  N70  1  0.44473719  0.76105253  0.60495309  1
