# generated using pymatgen
data_Al36N35
_symmetry_space_group_name_H-M   'P 1'
_cell_length_a   9.35216852
_cell_length_b   9.35216926
_cell_length_c   9.97533024
_cell_angle_alpha   90.00001502
_cell_angle_beta   90.00000486
_cell_angle_gamma   60.00000866
_symmetry_Int_Tables_number   1
_chemical_formula_structural   Al36N35
_chemical_formula_sum   'Al36 N35'
_cell_volume   755.58379275
_cell_formula_units_Z   1
loop_
 _symmetry_equiv_pos_site_id
 _symmetry_equiv_pos_as_xyz
  1  'x, y, z'
loop_
 _atom_site_type_symbol
 _atom_site_label
 _atom_site_symmetry_multiplicity
 _atom_site_fract_x
 _atom_site_fract_y
 _atom_site_fract_z
 _atom_site_occupancy
  Al  Al0  1  0.10905017  0.09169735  0.39219258  1
  Al  Al1  1  0.22254837  0.20519538  0.13404328  1
  Al  Al2  1  0.77822876  0.09383458  0.89126678  1
  Al  Al3  1  0.88847736  0.20580975  0.64168685  1
  Al  Al4  1  0.44954492  0.09169710  0.39219263  1
  Al  Al5  1  0.55625677  0.20605687  0.14081297  1
  Al  Al6  1  0.11114406  0.09379100  0.89113477  1
  Al  Al7  1  0.22254831  0.20519544  0.64265413  1
  Al  Al8  1  0.77839067  0.09351081  0.39172070  1
  Al  Al9  1  0.88797905  0.20605685  0.14081294  1
  Al  Al10  1  0.44535703  0.09379119  0.89113493  1
  Al  Al11  1  0.55600534  0.20580965  0.64168684  1
  Al  Al12  1  0.10905001  0.43219196  0.39219262  1
  Al  Al13  1  0.22340987  0.53890371  0.14081296  1
  Al  Al14  1  0.77791337  0.42751285  0.89112825  1
  Al  Al15  1  0.88847727  0.53865226  0.64168692  1
  Al  Al16  1  0.44519912  0.42784624  0.39208675  1
  Al  Al17  1  0.55588187  0.53852882  0.14081887  1
  Al  Al18  1  0.11114422  0.42800407  0.89113489  1
  Al  Al19  1  0.22316259  0.53865237  0.64168680  1
  Al  Al20  1  0.77724629  0.42784636  0.39208671  1
  Al  Al21  1  0.88797897  0.53890355  0.14081297  1
  Al  Al22  1  0.44486576  0.42751284  0.89112822  1
  Al  Al23  1  0.55588179  0.53852881  0.64179911  1
  Al  Al24  1  0.11086383  0.76103772  0.39172067  1
  Al  Al25  1  0.22340985  0.87062598  0.14081293  1
  Al  Al26  1  0.77822886  0.76087593  0.89126680  1
  Al  Al27  1  0.88921511  0.87186208  0.64174326  1
  Al  Al28  1  0.44519918  0.75989353  0.39208669  1
  Al  Al29  1  0.55625669  0.87062581  0.14081297  1
  Al  Al30  1  0.11118763  0.76087580  0.89126674  1
  Al  Al31  1  0.22316265  0.87112441  0.64168677  1
  Al  Al32  1  0.77839074  0.76103783  0.39172073  1
  Al  Al33  1  0.88921518  0.87186208  0.14101764  1
  Al  Al34  1  0.44486574  0.76056050  0.89112822  1
  Al  Al35  1  0.55600530  0.87112423  0.64168689  1
  N  N36  1  0.11152043  0.09416733  0.08431264  1
  N  N37  1  0.88963648  0.20492065  0.83250880  1
  N  N38  1  0.77804736  0.09419764  0.58212594  1
  N  N39  1  0.55472435  0.20583935  0.33200809  1
  N  N40  1  0.44460456  0.09416739  0.08431286  1
  N  N41  1  0.22254839  0.20519542  0.83364798  1
  N  N42  1  0.11214050  0.09478759  0.58118489  1
  N  N43  1  0.88972848  0.20583942  0.33200806  1
  N  N44  1  0.77806633  0.09415983  0.08257200  1
  N  N45  1  0.55573501  0.20492068  0.83250875  1
  N  N46  1  0.44336413  0.09478751  0.58118494  1
  N  N47  1  0.22319226  0.53737139  0.33200807  1
  N  N48  1  0.11152049  0.42725149  0.08431280  1
  N  N49  1  0.88963654  0.53838202  0.83250886  1
  N  N50  1  0.77806764  0.42743580  0.58243556  1
  N  N51  1  0.55588151  0.53852871  0.33210154  1
  N  N52  1  0.44477516  0.42742211  0.08216423  1
  N  N53  1  0.22227362  0.53838209  0.83250872  1
  N  N54  1  0.11214049  0.42601115  0.58118492  1
  N  N55  1  0.88972835  0.53737139  0.33200809  1
  N  N56  1  0.77809515  0.42742208  0.08216425  1
  N  N57  1  0.55588163  0.53852875  0.83238183  1
  N  N58  1  0.44478876  0.42743577  0.58243558  1
  N  N59  1  0.22319230  0.87237563  0.33200805  1
  N  N60  1  0.11151292  0.76071324  0.08257196  1
  N  N61  1  0.88921515  0.87186210  0.83246944  1
  N  N62  1  0.77804732  0.76069427  0.58212595  1
  N  N63  1  0.55472437  0.87237542  0.33200809  1
  N  N64  1  0.44477511  0.76074211  0.08216423  1
  N  N65  1  0.22227362  0.87228352  0.83250871  1
  N  N66  1  0.11155065  0.76069435  0.58212591  1
  N  N67  1  0.88921515  0.87186211  0.33223005  1
  N  N68  1  0.77806630  0.76071317  0.08257198  1
  N  N69  1  0.55573500  0.87228354  0.83250882  1
  N  N70  1  0.44478876  0.76071468  0.58243553  1
