# generated using pymatgen
data_Al36N35
_symmetry_space_group_name_H-M   'P 1'
_cell_length_a   9.44809468
_cell_length_b   9.44809615
_cell_length_c   9.70715264
_cell_angle_alpha   90.00000142
_cell_angle_beta   89.99998555
_cell_angle_gamma   60.00006953
_symmetry_Int_Tables_number   1
_chemical_formula_structural   Al36N35
_chemical_formula_sum   'Al36 N35'
_cell_volume   750.43198404
_cell_formula_units_Z   1
loop_
 _symmetry_equiv_pos_site_id
 _symmetry_equiv_pos_as_xyz
  1  'x, y, z'
loop_
 _atom_site_type_symbol
 _atom_site_label
 _atom_site_symmetry_multiplicity
 _atom_site_fract_x
 _atom_site_fract_y
 _atom_site_fract_z
 _atom_site_occupancy
  Al  Al0  1  0.10957500  0.09230389  0.32964876  1
  Al  Al1  1  0.22253833  0.20526722  0.07477831  1
  Al  Al2  1  0.77814683  0.09405009  0.82832944  1
  Al  Al3  1  0.88720935  0.20651712  0.57789756  1
  Al  Al4  1  0.44846502  0.09230375  0.32964882  1
  Al  Al5  1  0.55549400  0.20559083  0.07821431  1
  Al  Al6  1  0.11083848  0.09356735  0.82644637  1
  Al  Al7  1  0.22253843  0.20526710  0.58522657  1
  Al  Al8  1  0.77849281  0.09335819  0.32723170  1
  Al  Al9  1  0.88925898  0.20559088  0.07821430  1
  Al  Al10  1  0.44593798  0.09356730  0.82644633  1
  Al  Al11  1  0.55661743  0.20651718  0.57789757  1
  Al  Al12  1  0.10957489  0.43119394  0.32964876  1
  Al  Al13  1  0.22286212  0.53822276  0.07821431  1
  Al  Al14  1  0.77826664  0.42740295  0.82853582  1
  Al  Al15  1  0.88720934  0.53934622  0.57789756  1
  Al  Al16  1  0.44535320  0.42808188  0.32685166  1
  Al  Al17  1  0.55587171  0.53860050  0.07695305  1
  Al  Al18  1  0.11083853  0.42866676  0.82644632  1
  Al  Al19  1  0.22378836  0.53934627  0.57789755  1
  Al  Al20  1  0.77690870  0.42808192  0.32685170  1
  Al  Al21  1  0.88925902  0.53822275  0.07821429  1
  Al  Al22  1  0.44467421  0.42740296  0.82853587  1
  Al  Al23  1  0.55587171  0.53860048  0.57888248  1
  Al  Al24  1  0.11062947  0.76122160  0.32723168  1
  Al  Al25  1  0.22286208  0.87198789  0.07821432  1
  Al  Al26  1  0.77814683  0.76087560  0.82832948  1
  Al  Al27  1  0.88920503  0.87193380  0.57858660  1
  Al  Al28  1  0.44535316  0.75963752  0.32685169  1
  Al  Al29  1  0.55549396  0.87198787  0.07821431  1
  Al  Al30  1  0.11132140  0.76087561  0.82832945  1
  Al  Al31  1  0.22378834  0.86993810  0.57789755  1
  Al  Al32  1  0.77849280  0.76122155  0.32723165  1
  Al  Al33  1  0.88920510  0.87193377  0.07709349  1
  Al  Al34  1  0.44467418  0.76099542  0.82853585  1
  Al  Al35  1  0.55661748  0.86993802  0.57789756  1
  N  N36  1  0.11284123  0.09557013  0.13529730  1
  N  N37  1  0.89023505  0.20463143  0.88242810  1
  N  N38  1  0.77797943  0.09438484  0.63236931  1
  N  N39  1  0.55516934  0.20615210  0.38237421  1
  N  N40  1  0.44193230  0.09557010  0.13529737  1
  N  N41  1  0.22253838  0.20526722  0.87853393  1
  N  N42  1  0.11140354  0.09413228  0.62845923  1
  N  N43  1  0.88902251  0.20615211  0.38237421  1
  N  N44  1  0.77809103  0.09416163  0.13223510  1
  N  N45  1  0.55547743  0.20463140  0.88242811  1
  N  N46  1  0.44480797  0.09413223  0.62845918  1
  N  N47  1  0.22342333  0.53789815  0.38237418  1
  N  N48  1  0.11284126  0.42466119  0.13529733  1
  N  N49  1  0.89023510  0.53820620  0.88242809  1
  N  N50  1  0.77815074  0.42746087  0.63284874  1
  N  N51  1  0.55587170  0.53860053  0.38289836  1
  N  N52  1  0.44483608  0.42756475  0.13189857  1
  N  N53  1  0.22190264  0.53820622  0.88242811  1
  N  N54  1  0.11140358  0.42753665  0.62845917  1
  N  N55  1  0.88902246  0.53789817  0.38237421  1
  N  N56  1  0.77794290  0.42756477  0.13189861  1
  N  N57  1  0.55587174  0.53860052  0.88192041  1
  N  N58  1  0.44473212  0.42746089  0.63284877  1
  N  N59  1  0.22342329  0.87175140  0.38237418  1
  N  N60  1  0.11143299  0.76081976  0.13223510  1
  N  N61  1  0.88920510  0.87193381  0.88186843  1
  N  N62  1  0.77797945  0.76070816  0.63236936  1
  N  N63  1  0.55516940  0.87175128  0.38237420  1
  N  N64  1  0.44483605  0.76067166  0.13189860  1
  N  N65  1  0.22190262  0.87296396  0.88242812  1
  N  N66  1  0.11165610  0.76070821  0.63236932  1
  N  N67  1  0.88920508  0.87193381  0.38272713  1
  N  N68  1  0.77809103  0.76081975  0.13223506  1
  N  N69  1  0.55547740  0.87296395  0.88242812  1
  N  N70  1  0.44473211  0.76087946  0.63284875  1
