# generated using pymatgen
data_Al36N35
_symmetry_space_group_name_H-M   'P 1'
_cell_length_a   9.35198366
_cell_length_b   9.35198393
_cell_length_c   9.97575994
_cell_angle_alpha   90.00000153
_cell_angle_beta   89.99999943
_cell_angle_gamma   60.00000336
_symmetry_Int_Tables_number   1
_chemical_formula_structural   Al36N35
_chemical_formula_sum   'Al36 N35'
_cell_volume   755.58639110
_cell_formula_units_Z   1
loop_
 _symmetry_equiv_pos_site_id
 _symmetry_equiv_pos_as_xyz
  1  'x, y, z'
loop_
 _atom_site_type_symbol
 _atom_site_label
 _atom_site_symmetry_multiplicity
 _atom_site_fract_x
 _atom_site_fract_y
 _atom_site_fract_z
 _atom_site_occupancy
  Al  Al0  1  0.10902094  0.09191880  0.30927480  1
  Al  Al1  1  0.22251744  0.20541530  0.05881769  1
  Al  Al2  1  0.77819806  0.09405428  0.81020336  1
  Al  Al3  1  0.88794887  0.20627627  0.56065820  1
  Al  Al4  1  0.44951078  0.09191864  0.30927476  1
  Al  Al5  1  0.55597549  0.20602979  0.05978391  1
  Al  Al6  1  0.11111237  0.09400981  0.81034029  1
  Al  Al7  1  0.22251763  0.20541521  0.56744468  1
  Al  Al8  1  0.77835984  0.09373061  0.30975074  1
  Al  Al9  1  0.88844529  0.20602983  0.05978392  1
  Al  Al10  1  0.44532820  0.09400999  0.81034021  1
  Al  Al11  1  0.55622576  0.20627631  0.56065820  1
  Al  Al12  1  0.10902084  0.43240849  0.30927477  1
  Al  Al13  1  0.22313202  0.53887317  0.05978395  1
  Al  Al14  1  0.77788215  0.42773289  0.81034237  1
  Al  Al15  1  0.88794881  0.53912307  0.56065819  1
  Al  Al16  1  0.44516806  0.42806593  0.30938449  1
  Al  Al17  1  0.55585098  0.53874860  0.05967200  1
  Al  Al18  1  0.11111245  0.42822584  0.81034024  1
  Al  Al19  1  0.22337871  0.53912327  0.56065819  1
  Al  Al20  1  0.77721589  0.42806602  0.30938453  1
  Al  Al21  1  0.88844521  0.53887305  0.05978386  1
  Al  Al22  1  0.44483521  0.42773290  0.81034238  1
  Al  Al23  1  0.55585111  0.53874857  0.56065208  1
  Al  Al24  1  0.11083293  0.76125759  0.30975075  1
  Al  Al25  1  0.22313206  0.87134296  0.05978397  1
  Al  Al26  1  0.77819808  0.76109578  0.81020335  1
  Al  Al27  1  0.88918438  0.87208187  0.56045284  1
  Al  Al28  1  0.44516809  0.76011388  0.30938451  1
  Al  Al29  1  0.55597544  0.87134282  0.05978387  1
  Al  Al30  1  0.11115675  0.76109566  0.81020338  1
  Al  Al31  1  0.22337871  0.87084629  0.56065819  1
  Al  Al32  1  0.77835986  0.76125770  0.30975071  1
  Al  Al33  1  0.88918427  0.87208191  0.05972788  1
  Al  Al34  1  0.44483518  0.76077987  0.81034238  1
  Al  Al35  1  0.55622569  0.87084614  0.56065818  1
  N  N36  1  0.11210887  0.09500660  0.12028961  1
  N  N37  1  0.88960406  0.20514127  0.86896998  1
  N  N38  1  0.77803558  0.09437965  0.61890592  1
  N  N39  1  0.55469202  0.20605865  0.36946999  1
  N  N40  1  0.44333485  0.09500661  0.12028953  1
  N  N41  1  0.22251759  0.20541524  0.86783114  1
  N  N42  1  0.11148859  0.09438600  0.61717057  1
  N  N43  1  0.88969967  0.20605869  0.36946999  1
  N  N44  1  0.77801657  0.09441739  0.11935263  1
  N  N45  1  0.55570515  0.20514131  0.86896998  1
  N  N46  1  0.44457605  0.09438607  0.61717047  1
  N  N47  1  0.22316083  0.53758977  0.36946999  1
  N  N48  1  0.11210885  0.42623262  0.12028958  1
  N  N49  1  0.88960405  0.53860272  0.86896992  1
  N  N50  1  0.77806449  0.42764182  0.61931401  1
  N  N51  1  0.55585068  0.53874862  0.36937659  1
  N  N52  1  0.44475797  0.42765572  0.11904279  1
  N  N53  1  0.22224367  0.53860280  0.86897002  1
  N  N54  1  0.11148860  0.42747354  0.61717051  1
  N  N55  1  0.88969959  0.53758978  0.36946996  1
  N  N56  1  0.77803670  0.42765569  0.11904284  1
  N  N57  1  0.55585087  0.53874856  0.86909656  1
  N  N58  1  0.44474430  0.42764189  0.61931398  1
  N  N59  1  0.22316085  0.87259751  0.36946999  1
  N  N60  1  0.11151968  0.76091424  0.11935265  1
  N  N61  1  0.88918435  0.87208190  0.86900868  1
  N  N62  1  0.77803552  0.76093296  0.61890591  1
  N  N63  1  0.55469201  0.87259738  0.36946996  1
  N  N64  1  0.44475798  0.76093441  0.11904281  1
  N  N65  1  0.22224363  0.87250164  0.86897004  1
  N  N66  1  0.11148210  0.76093307  0.61890592  1
  N  N67  1  0.88918428  0.87208195  0.36924806  1
  N  N68  1  0.77801653  0.76091419  0.11935260  1
  N  N69  1  0.55570508  0.87250165  0.86896993  1
  N  N70  1  0.44474427  0.76096200  0.61931399  1
