# generated using pymatgen
data_Al36N35
_symmetry_space_group_name_H-M   'P 1'
_cell_length_a   9.82327652
_cell_length_b   9.82327522
_cell_length_c   8.52418999
_cell_angle_alpha   89.99999829
_cell_angle_beta   89.99999796
_cell_angle_gamma   60.00005126
_symmetry_Int_Tables_number   1
_chemical_formula_structural   Al36N35
_chemical_formula_sum   'Al36 N35'
_cell_volume   712.35529788
_cell_formula_units_Z   1
loop_
 _symmetry_equiv_pos_site_id
 _symmetry_equiv_pos_as_xyz
  1  'x, y, z'
loop_
 _atom_site_type_symbol
 _atom_site_label
 _atom_site_symmetry_multiplicity
 _atom_site_fract_x
 _atom_site_fract_y
 _atom_site_fract_z
 _atom_site_occupancy
  Al  Al0  1  0.11266805  0.09539731  0.35696652  1
  Al  Al1  1  0.22253805  0.20526742  0.09550950  1
  Al  Al2  1  0.77816747  0.09400867  0.86033101  1
  Al  Al3  1  0.88985601  0.20545595  0.60881042  1
  Al  Al4  1  0.44227809  0.09539729  0.35696657  1
  Al  Al5  1  0.55646385  0.20664029  0.11330106  1
  Al  Al6  1  0.10976235  0.09249092  0.86440116  1
  Al  Al7  1  0.22253807  0.20526740  0.62560744  1
  Al  Al8  1  0.77847523  0.09339308  0.36195834  1
  Al  Al9  1  0.88723950  0.20664041  0.11330099  1
  Al  Al10  1  0.44809010  0.09249116  0.86440109  1
  Al  Al11  1  0.55503177  0.20545604  0.60881034  1
  Al  Al12  1  0.11266799  0.42500750  0.35696646  1
  Al  Al13  1  0.22391211  0.53919234  0.11330105  1
  Al  Al14  1  0.77864893  0.42721167  0.86006317  1
  Al  Al15  1  0.88985594  0.53776070  0.60881044  1
  Al  Al16  1  0.44524386  0.42797250  0.36250322  1
  Al  Al17  1  0.55587186  0.53860037  0.10981376  1
  Al  Al18  1  0.10976223  0.43081945  0.86440125  1
  Al  Al19  1  0.22272746  0.53776064  0.60881036  1
  Al  Al20  1  0.77712749  0.42797247  0.36250330  1
  Al  Al21  1  0.88723942  0.53919257  0.11330097  1
  Al  Al22  1  0.44448331  0.42721162  0.86006324  1
  Al  Al23  1  0.55587183  0.53860040  0.61280931  1
  Al  Al24  1  0.11066468  0.76120396  0.36195819  1
  Al  Al25  1  0.22391194  0.86996848  0.11330111  1
  Al  Al26  1  0.77816736  0.76089625  0.86033107  1
  Al  Al27  1  0.88920519  0.87193366  0.61196117  1
  Al  Al28  1  0.44524384  0.75985612  0.36250315  1
  Al  Al29  1  0.55646365  0.86996862  0.11330110  1
  Al  Al30  1  0.11128031  0.76089613  0.86033115  1
  Al  Al31  1  0.22272751  0.87258463  0.60881028  1
  Al  Al32  1  0.77847512  0.76120410  0.36195827  1
  Al  Al33  1  0.88920527  0.87193358  0.11054030  1
  Al  Al34  1  0.44448321  0.76137754  0.86006328  1
  Al  Al35  1  0.55503173  0.87258478  0.60881028  1
  N  N36  1  0.11248939  0.09521836  0.10446823  1
  N  N37  1  0.89102825  0.20405790  0.84729191  1
  N  N38  1  0.77800605  0.09433149  0.59809883  1
  N  N39  1  0.55526869  0.20561904  0.34875822  1
  N  N40  1  0.44263565  0.09521849  0.10446822  1
  N  N41  1  0.22253808  0.20526740  0.85493949  1
  N  N42  1  0.11424068  0.09696947  0.59222282  1
  N  N43  1  0.88945591  0.20561909  0.34875817  1
  N  N44  1  0.77785003  0.09464355  0.09786843  1
  N  N45  1  0.55525762  0.20405792  0.84729188  1
  N  N46  1  0.43913325  0.09696963  0.59222287  1
  N  N47  1  0.22289049  0.53799741  0.34875813  1
  N  N48  1  0.11248937  0.42536499  0.10446826  1
  N  N49  1  0.89102818  0.53798636  0.84729194  1
  N  N50  1  0.77804624  0.42751311  0.59885681  1
  N  N51  1  0.55587184  0.53860038  0.34731041  1
  N  N52  1  0.44467536  0.42740361  0.09690185  1
  N  N53  1  0.22132958  0.53798627  0.84729192  1
  N  N54  1  0.11424063  0.42186256  0.59222275  1
  N  N55  1  0.88945587  0.53799757  0.34875811  1
  N  N56  1  0.77826492  0.42740368  0.09690177  1
  N  N57  1  0.55587180  0.53860041  0.84835625  1
  N  N58  1  0.44478455  0.42751315  0.59885673  1
  N  N59  1  0.22289039  0.87218497  0.34875817  1
  N  N60  1  0.11191528  0.76057866  0.09786847  1
  N  N61  1  0.88920525  0.87193358  0.84842826  1
  N  N62  1  0.77800597  0.76073491  0.59809881  1
  N  N63  1  0.55526860  0.87218501  0.34875821  1
  N  N64  1  0.44467524  0.76099354  0.09690192  1
  N  N65  1  0.22132953  0.87375689  0.84729189  1
  N  N66  1  0.11160298  0.76073481  0.59809876  1
  N  N67  1  0.88920523  0.87193360  0.34741705  1
  N  N68  1  0.77784990  0.76057882  0.09786842  1
  N  N69  1  0.55525751  0.87375705  0.84729188  1
  N  N70  1  0.44478455  0.76077477  0.59885667  1
