# generated using pymatgen
data_Al36N35
_symmetry_space_group_name_H-M   'P 1'
_cell_length_a   9.35198661
_cell_length_b   9.35198688
_cell_length_c   9.97576256
_cell_angle_alpha   90.00000198
_cell_angle_beta   90.00000371
_cell_angle_gamma   59.99999979
_symmetry_Int_Tables_number   1
_chemical_formula_structural   Al36N35
_chemical_formula_sum   'Al36 N35'
_cell_volume   755.58703923
_cell_formula_units_Z   1
loop_
 _symmetry_equiv_pos_site_id
 _symmetry_equiv_pos_as_xyz
  1  'x, y, z'
loop_
 _atom_site_type_symbol
 _atom_site_label
 _atom_site_symmetry_multiplicity
 _atom_site_fract_x
 _atom_site_fract_y
 _atom_site_fract_z
 _atom_site_occupancy
  Al  Al0  1  0.10906242  0.09162253  0.40016365  1
  Al  Al1  1  0.22255909  0.20511903  0.14199644  1
  Al  Al2  1  0.77823949  0.09375821  0.89923511  1
  Al  Al3  1  0.88848681  0.20573371  0.64965445  1
  Al  Al4  1  0.44955247  0.09162233  0.40016368  1
  Al  Al5  1  0.55626729  0.20598015  0.14878080  1
  Al  Al6  1  0.11115387  0.09371379  0.89909853  1
  Al  Al7  1  0.22255900  0.20511908  0.65062079  1
  Al  Al8  1  0.77840137  0.09343444  0.39968778  1
  Al  Al9  1  0.88799037  0.20598012  0.14878077  1
  Al  Al10  1  0.44536951  0.09371398  0.89909870  1
  Al  Al11  1  0.55601696  0.20573362  0.64965445  1
  Al  Al12  1  0.10906226  0.43211250  0.40016369  1
  Al  Al13  1  0.22342020  0.53882719  0.14878079  1
  Al  Al14  1  0.77792360  0.42743673  0.89909640  1
  Al  Al15  1  0.88848670  0.53857685  0.64965454  1
  Al  Al16  1  0.44520962  0.42776969  0.40005389  1
  Al  Al17  1  0.55589259  0.53845250  0.14878685  1
  Al  Al18  1  0.11115404  0.42792950  0.89909867  1
  Al  Al19  1  0.22317358  0.53857696  0.64965442  1
  Al  Al20  1  0.77725736  0.42776980  0.40005385  1
  Al  Al21  1  0.88799026  0.53882701  0.14878081  1
  Al  Al22  1  0.44487671  0.42743675  0.89909637  1
  Al  Al23  1  0.55589248  0.53845248  0.64976630  1
  Al  Al24  1  0.11087447  0.76096139  0.39968777  1
  Al  Al25  1  0.22342018  0.87055025  0.14878077  1
  Al  Al26  1  0.77823960  0.76079961  0.89923513  1
  Al  Al27  1  0.88922578  0.87178575  0.64971041  1
  Al  Al28  1  0.44520968  0.75981753  0.40005385  1
  Al  Al29  1  0.55626718  0.87055007  0.14878081  1
  Al  Al30  1  0.11119828  0.76079949  0.89923508  1
  Al  Al31  1  0.22317365  0.87104684  0.64965440  1
  Al  Al32  1  0.77840144  0.76096151  0.39968782  1
  Al  Al33  1  0.88922589  0.87178574  0.14898578  1
  Al  Al34  1  0.44487668  0.76048367  0.89909638  1
  Al  Al35  1  0.55601690  0.87104666  0.64965451  1
  N  N36  1  0.11153014  0.09409001  0.09226906  1
  N  N37  1  0.88964559  0.20484511  0.84046888  1
  N  N38  1  0.77805811  0.09412121  0.59008604  1
  N  N39  1  0.55473364  0.20576242  0.33996910  1
  N  N40  1  0.44461731  0.09409007  0.09226930  1
  N  N41  1  0.22255909  0.20511908  0.84160786  1
  N  N42  1  0.11215044  0.09471050  0.58914903  1
  N  N43  1  0.88974114  0.20576248  0.33996908  1
  N  N44  1  0.77807706  0.09408355  0.09053312  1
  N  N45  1  0.55574652  0.20484515  0.84046885  1
  N  N46  1  0.44337631  0.09471044  0.58914908  1
  N  N47  1  0.22320236  0.53729365  0.33996909  1
  N  N48  1  0.11153020  0.42717719  0.09226926  1
  N  N49  1  0.88964564  0.53830646  0.84046896  1
  N  N50  1  0.77807823  0.42735952  0.59039575  1
  N  N51  1  0.55589221  0.53845234  0.34006235  1
  N  N52  1  0.44478581  0.42734575  0.09012523  1
  N  N53  1  0.22228513  0.53830655  0.84046882  1
  N  N54  1  0.11215042  0.42593634  0.58914908  1
  N  N55  1  0.88974100  0.53729365  0.33996913  1
  N  N56  1  0.77810600  0.42734569  0.09012523  1
  N  N57  1  0.55589233  0.53845240  0.84034223  1
  N  N58  1  0.44479950  0.42735951  0.59039579  1
  N  N59  1  0.22320240  0.87230124  0.33996907  1
  N  N60  1  0.11152365  0.76063695  0.09053309  1
  N  N61  1  0.88922584  0.87178578  0.84043002  1
  N  N62  1  0.77805805  0.76061802  0.59008607  1
  N  N63  1  0.55473363  0.87230105  0.33996913  1
  N  N64  1  0.44478575  0.76066592  0.09012523  1
  N  N65  1  0.22228510  0.87220560  0.84046882  1
  N  N66  1  0.11156120  0.76061810  0.59008602  1
  N  N67  1  0.88922582  0.87178577  0.34019079  1
  N  N68  1  0.77807699  0.76063684  0.09053310  1
  N  N69  1  0.55574648  0.87220561  0.84046893  1
  N  N70  1  0.44479949  0.76063826  0.59039575  1
