# generated using pymatgen
data_Al36N35
_symmetry_space_group_name_H-M   'P 1'
_cell_length_a   9.74365211
_cell_length_b   9.74365313
_cell_length_c   8.78147018
_cell_angle_alpha   89.99999707
_cell_angle_beta   90.00000331
_cell_angle_gamma   60.00002690
_symmetry_Int_Tables_number   1
_chemical_formula_structural   Al36N35
_chemical_formula_sum   'Al36 N35'
_cell_volume   722.00726058
_cell_formula_units_Z   1
loop_
 _symmetry_equiv_pos_site_id
 _symmetry_equiv_pos_as_xyz
  1  'x, y, z'
loop_
 _atom_site_type_symbol
 _atom_site_label
 _atom_site_symmetry_multiplicity
 _atom_site_fract_x
 _atom_site_fract_y
 _atom_site_fract_z
 _atom_site_occupancy
  Al  Al0  1  0.11255141  0.09528054  0.36135491  1
  Al  Al1  1  0.22253813  0.20526739  0.09971614  1
  Al  Al2  1  0.77807903  0.09418566  0.86702386  1
  Al  Al3  1  0.89040845  0.20516661  0.61561649  1
  Al  Al4  1  0.44251153  0.09528056  0.36135499  1
  Al  Al5  1  0.55689838  0.20701828  0.12031687  1
  Al  Al6  1  0.10948277  0.09221135  0.87220741  1
  Al  Al7  1  0.22253815  0.20526732  0.62980471  1
  Al  Al8  1  0.77857539  0.09319284  0.36938017  1
  Al  Al9  1  0.88642694  0.20701842  0.12031681  1
  Al  Al10  1  0.44864938  0.09221154  0.87220732  1
  Al  Al11  1  0.55476866  0.20516669  0.61561643  1
  Al  Al12  1  0.11255140  0.42524082  0.36135487  1
  Al  Al13  1  0.22428997  0.53962692  0.12031687  1
  Al  Al14  1  0.77881124  0.42713052  0.86656098  1
  Al  Al15  1  0.89040840  0.53749756  0.61561649  1
  Al  Al16  1  0.44542133  0.42814993  0.37008572  1
  Al  Al17  1  0.55587183  0.53860038  0.11628683  1
  Al  Al18  1  0.10948266  0.43137865  0.87220744  1
  Al  Al19  1  0.22243810  0.53749749  0.61561643  1
  Al  Al20  1  0.77677261  0.42814991  0.37008584  1
  Al  Al21  1  0.88642690  0.53962709  0.12031680  1
  Al  Al22  1  0.44440219  0.42713046  0.86656109  1
  Al  Al23  1  0.55587179  0.53860040  0.62033771  1
  Al  Al24  1  0.11046444  0.76130407  0.36938006  1
  Al  Al25  1  0.22428979  0.86915602  0.12031693  1
  Al  Al26  1  0.77807893  0.76080769  0.86702393  1
  Al  Al27  1  0.88920518  0.87193364  0.61960966  1
  Al  Al28  1  0.44542128  0.75950127  0.37008564  1
  Al  Al29  1  0.55689819  0.86915611  0.12031692  1
  Al  Al30  1  0.11145738  0.76080759  0.86702396  1
  Al  Al31  1  0.22243813  0.87313712  0.61561638  1
  Al  Al32  1  0.77857532  0.76130418  0.36938009  1
  Al  Al33  1  0.88920526  0.87193358  0.11703398  1
  Al  Al34  1  0.44440210  0.76153982  0.86656116  1
  Al  Al35  1  0.55476863  0.87313721  0.61561638  1
  N  N36  1  0.11177663  0.09450568  0.09874830  1
  N  N37  1  0.89112091  0.20402928  0.83983002  1
  N  N38  1  0.77812723  0.09408917  0.59136889  1
  N  N39  1  0.55542901  0.20597051  0.34210246  1
  N  N40  1  0.44406123  0.09450572  0.09874822  1
  N  N41  1  0.22253809  0.20526739  0.85190054  1
  N  N42  1  0.11443286  0.09716171  0.58486271  1
  N  N43  1  0.88894407  0.20597058  0.34210242  1
  N  N44  1  0.77779743  0.09474878  0.09039479  1
  N  N45  1  0.55519358  0.20402931  0.83982999  1
  N  N46  1  0.43874896  0.09716180  0.58486279  1
  N  N47  1  0.22324188  0.53815777  0.34210243  1
  N  N48  1  0.11177661  0.42679050  0.09874830  1
  N  N49  1  0.89112084  0.53792230  0.83983004  1
  N  N50  1  0.77781190  0.42763030  0.59214354  1
  N  N51  1  0.55587176  0.53860042  0.33962738  1
  N  N52  1  0.44461027  0.42733867  0.08940385  1
  N  N53  1  0.22130095  0.53792221  0.83983001  1
  N  N54  1  0.11443284  0.42147813  0.58486268  1
  N  N55  1  0.88894408  0.53815788  0.34210239  1
  N  N56  1  0.77839490  0.42733873  0.08940371  1
  N  N57  1  0.55587176  0.53860042  0.84182570  1
  N  N58  1  0.44490171  0.42763031  0.59214343  1
  N  N59  1  0.22324178  0.87167316  0.34210247  1
  N  N60  1  0.11202045  0.76052610  0.09039486  1
  N  N61  1  0.88920522  0.87193358  0.84180549  1
  N  N62  1  0.77812718  0.76085608  0.59136884  1
  N  N63  1  0.55542893  0.87167321  0.34210248  1
  N  N64  1  0.44461017  0.76112363  0.08940393  1
  N  N65  1  0.22130089  0.87384957  0.83983000  1
  N  N66  1  0.11136062  0.76085601  0.59136882  1
  N  N67  1  0.88920515  0.87193366  0.33981989  1
  N  N68  1  0.77779731  0.76052623  0.09039484  1
  N  N69  1  0.55519348  0.87384968  0.83982999  1
  N  N70  1  0.44490170  0.76054049  0.59214336  1
