# generated using pymatgen
data_Al36N35
_symmetry_space_group_name_H-M   'P 1'
_cell_length_a   9.70029894
_cell_length_b   9.70029929
_cell_length_c   8.92278366
_cell_angle_alpha   90.00000249
_cell_angle_beta   89.99999135
_cell_angle_gamma   60.00004172
_symmetry_Int_Tables_number   1
_chemical_formula_structural   Al36N35
_chemical_formula_sum   'Al36 N35'
_cell_volume   727.11219753
_cell_formula_units_Z   1
loop_
 _symmetry_equiv_pos_site_id
 _symmetry_equiv_pos_as_xyz
  1  'x, y, z'
loop_
 _atom_site_type_symbol
 _atom_site_label
 _atom_site_symmetry_multiplicity
 _atom_site_fract_x
 _atom_site_fract_y
 _atom_site_fract_z
 _atom_site_occupancy
  Al  Al0  1  0.11230407  0.09503319  0.34535079  1
  Al  Al1  1  0.22253821  0.20526738  0.07808004  1
  Al  Al2  1  0.77805662  0.09423056  0.83946686  1
  Al  Al3  1  0.88622312  0.20710061  0.58633515  1
  Al  Al4  1  0.44300645  0.09503314  0.34535084  1
  Al  Al5  1  0.55474811  0.20512191  0.09069247  1
  Al  Al6  1  0.10946944  0.09219822  0.83424977  1
  Al  Al7  1  0.22253813  0.20526744  0.60684867  1
  Al  Al8  1  0.77860448  0.09313480  0.33705278  1
  Al  Al9  1  0.89047380  0.20512192  0.09069243  1
  Al  Al10  1  0.44867590  0.09219837  0.83424971  1
  Al  Al11  1  0.55702010  0.20710051  0.58633510  1
  Al  Al12  1  0.11230399  0.42573573  0.34535089  1
  Al  Al13  1  0.22239327  0.53747697  0.09069248  1
  Al  Al14  1  0.77882178  0.42712534  0.83994768  1
  Al  Al15  1  0.88622306  0.53974895  0.58633517  1
  Al  Al16  1  0.44547117  0.42819984  0.33636507  1
  Al  Al17  1  0.55587179  0.53860049  0.08615437  1
  Al  Al18  1  0.10946935  0.43140528  0.83424967  1
  Al  Al19  1  0.22437198  0.53974878  0.58633511  1
  Al  Al20  1  0.77667289  0.42819986  0.33636504  1
  Al  Al21  1  0.89047378  0.53747702  0.09069242  1
  Al  Al22  1  0.44439689  0.42712529  0.83994764  1
  Al  Al23  1  0.55587177  0.53860048  0.59025253  1
  Al  Al24  1  0.11040627  0.76133324  0.33705291  1
  Al  Al25  1  0.22239330  0.87320262  0.09069251  1
  Al  Al26  1  0.77805652  0.76078536  0.83946686  1
  Al  Al27  1  0.88920522  0.87193368  0.58954565  1
  Al  Al28  1  0.44547112  0.75940168  0.33636518  1
  Al  Al29  1  0.55474805  0.87320272  0.09069250  1
  Al  Al30  1  0.11150219  0.76078527  0.83946674  1
  Al  Al31  1  0.22437181  0.86895233  0.58633508  1
  Al  Al32  1  0.77860442  0.76133331  0.33705279  1
  Al  Al33  1  0.88920521  0.87193372  0.08678581  1
  Al  Al34  1  0.44439680  0.76155046  0.83994755  1
  Al  Al35  1  0.55701996  0.86895232  0.58633507  1
  N  N36  1  0.11436392  0.09709287  0.12746624  1
  N  N37  1  0.89108442  0.20406104  0.87263469  1
  N  N38  1  0.77779473  0.09475423  0.62212205  1
  N  N39  1  0.55547735  0.20610112  0.37037734  1
  N  N40  1  0.43888683  0.09709293  0.12746630  1
  N  N41  1  0.22253810  0.20526749  0.86001923  1
  N  N42  1  0.11149966  0.09422885  0.61373053  1
  N  N43  1  0.88876529  0.20610118  0.37037737  1
  N  N44  1  0.77816092  0.09402185  0.12101418  1
  N  N45  1  0.55519839  0.20406102  0.87263469  1
  N  N46  1  0.44461508  0.09422886  0.61373047  1
  N  N47  1  0.22337238  0.53820620  0.37037737  1
  N  N48  1  0.11436389  0.42161606  0.12746633  1
  N  N49  1  0.89108438  0.53792721  0.87263466  1
  N  N50  1  0.77841045  0.42733104  0.62305423  1
  N  N51  1  0.55587172  0.53860054  0.37289719  1
  N  N52  1  0.44493000  0.42765869  0.12028528  1
  N  N53  1  0.22133252  0.53792717  0.87263468  1
  N  N54  1  0.11149965  0.42734441  0.61373044  1
  N  N55  1  0.88876525  0.53820632  0.37037740  1
  N  N56  1  0.77775522  0.42765870  0.12028525  1
  N  N57  1  0.55587175  0.53860053  0.87051653  1
  N  N58  1  0.44460239  0.42733098  0.62305417  1
  N  N59  1  0.22337228  0.87149444  0.37037734  1
  N  N60  1  0.11129322  0.76088978  0.12101429  1
  N  N61  1  0.88920524  0.87193369  0.87055029  1
  N  N62  1  0.77779462  0.76052365  0.62212207  1
  N  N63  1  0.55547732  0.87149440  0.37037732  1
  N  N64  1  0.44492998  0.76048396  0.12028538  1
  N  N65  1  0.22133248  0.87381324  0.87263469  1
  N  N66  1  0.11202574  0.76052353  0.62212195  1
  N  N67  1  0.88920513  0.87193377  0.37269058  1
  N  N68  1  0.77816088  0.76088984  0.12101417  1
  N  N69  1  0.55519828  0.87381337  0.87263470  1
  N  N70  1  0.44460230  0.76113935  0.62305407  1
