# generated using pymatgen
data_Al36N35
_symmetry_space_group_name_H-M   'P 1'
_cell_length_a   9.44816625
_cell_length_b   9.44816646
_cell_length_c   9.70698501
_cell_angle_alpha   89.99999774
_cell_angle_beta   90.00001275
_cell_angle_gamma   60.00002215
_symmetry_Int_Tables_number   1
_chemical_formula_structural   Al36N35
_chemical_formula_sum   'Al36 N35'
_cell_volume   750.42993569
_cell_formula_units_Z   1
loop_
 _symmetry_equiv_pos_site_id
 _symmetry_equiv_pos_as_xyz
  1  'x, y, z'
loop_
 _atom_site_type_symbol
 _atom_site_label
 _atom_site_symmetry_multiplicity
 _atom_site_fract_x
 _atom_site_fract_y
 _atom_site_fract_z
 _atom_site_occupancy
  Al  Al0  1  0.10957931  0.09230830  0.37978468  1
  Al  Al1  1  0.22253844  0.20526717  0.12418073  1
  Al  Al2  1  0.77814650  0.09405085  0.88110184  1
  Al  Al3  1  0.88925909  0.20559081  0.63121610  1
  Al  Al4  1  0.44845623  0.09230826  0.37978469  1
  Al  Al5  1  0.55661738  0.20651742  0.13153656  1
  Al  Al6  1  0.11083560  0.09356456  0.88298633  1
  Al  Al7  1  0.22253829  0.20526727  0.63466778  1
  Al  Al8  1  0.77849296  0.09335790  0.38219957  1
  Al  Al9  1  0.88720914  0.20651738  0.13153656  1
  Al  Al10  1  0.44594376  0.09356451  0.88298629  1
  Al  Al11  1  0.55549397  0.20559080  0.63121610  1
  Al  Al12  1  0.10957930  0.43118527  0.37978470  1
  Al  Al13  1  0.22378852  0.53934632  0.13153657  1
  Al  Al14  1  0.77826718  0.42740278  0.88089525  1
  Al  Al15  1  0.88925913  0.53822281  0.63121610  1
  Al  Al16  1  0.44535302  0.42808183  0.38258084  1
  Al  Al17  1  0.55587171  0.53860054  0.13054830  1
  Al  Al18  1  0.11083565  0.42867262  0.88298633  1
  Al  Al19  1  0.22286201  0.53822280  0.63121610  1
  Al  Al20  1  0.77690903  0.42808184  0.38258086  1
  Al  Al21  1  0.88720918  0.53934623  0.13153656  1
  Al  Al22  1  0.44467395  0.42740279  0.88089526  1
  Al  Al23  1  0.55587169  0.53860056  0.63247964  1
  Al  Al24  1  0.11062906  0.76122187  0.38219962  1
  Al  Al25  1  0.22378851  0.86993797  0.13153656  1
  Al  Al26  1  0.77814650  0.76087535  0.88110183  1
  Al  Al27  1  0.88920505  0.87193383  0.63233835  1
  Al  Al28  1  0.44535297  0.75963796  0.38258084  1
  Al  Al29  1  0.55661741  0.86993794  0.13153656  1
  Al  Al30  1  0.11132206  0.76087537  0.88110180  1
  Al  Al31  1  0.22286196  0.87198806  0.63121610  1
  Al  Al32  1  0.77849297  0.76122184  0.38219958  1
  Al  Al33  1  0.88920502  0.87193386  0.13084405  1
  Al  Al34  1  0.44467393  0.76099604  0.88089526  1
  Al  Al35  1  0.55549395  0.87198802  0.63121610  1
  N  N36  1  0.11140167  0.09413051  0.08098625  1
  N  N37  1  0.89023372  0.20463170  0.82701533  1
  N  N38  1  0.77809132  0.09416117  0.57720889  1
  N  N39  1  0.55516865  0.20615155  0.32707288  1
  N  N40  1  0.44481176  0.09413046  0.08098620  1
  N  N41  1  0.22253835  0.20526725  0.83092539  1
  N  N42  1  0.11284280  0.09557176  0.57415065  1
  N  N43  1  0.88902367  0.20615156  0.32707289  1
  N  N44  1  0.77797905  0.09438573  0.07707587  1
  N  N45  1  0.55547848  0.20463171  0.82701533  1
  N  N46  1  0.44192923  0.09557175  0.57415066  1
  N  N47  1  0.22342269  0.53789757  0.32707290  1
  N  N48  1  0.11140171  0.42754053  0.08098625  1
  N  N49  1  0.89023376  0.53820732  0.82701533  1
  N  N50  1  0.77794196  0.42756535  0.57754657  1
  N  N51  1  0.55587169  0.53860057  0.32654564  1
  N  N52  1  0.44473195  0.42746082  0.07659596  1
  N  N53  1  0.22190288  0.53820733  0.82701533  1
  N  N54  1  0.11284285  0.42465818  0.57415065  1
  N  N55  1  0.88902369  0.53789753  0.32707289  1
  N  N56  1  0.77815114  0.42746078  0.07659594  1
  N  N57  1  0.55587171  0.53860056  0.82752521  1
  N  N58  1  0.44483657  0.42756535  0.57754655  1
  N  N59  1  0.22342265  0.87175264  0.32707290  1
  N  N60  1  0.11165687  0.76070793  0.07707583  1
  N  N61  1  0.88920505  0.87193385  0.82757705  1
  N  N62  1  0.77809132  0.76082015  0.57720889  1
  N  N63  1  0.55516867  0.87175261  0.32707289  1
  N  N64  1  0.44473193  0.76087996  0.07659596  1
  N  N65  1  0.22190284  0.87296269  0.82701534  1
  N  N66  1  0.11143241  0.76082016  0.57720893  1
  N  N67  1  0.88920505  0.87193386  0.32671611  1
  N  N68  1  0.77797907  0.76070788  0.07707586  1
  N  N69  1  0.55547846  0.87296264  0.82701533  1
  N  N70  1  0.44483653  0.76067082  0.57754656  1
