# generated using pymatgen
data_Al36N35
_symmetry_space_group_name_H-M   'P 1'
_cell_length_a   9.35200540
_cell_length_b   9.35200573
_cell_length_c   9.97571644
_cell_angle_alpha   90.00000026
_cell_angle_beta   89.99999988
_cell_angle_gamma   60.00000509
_symmetry_Int_Tables_number   1
_chemical_formula_structural   Al36N35
_chemical_formula_sum   'Al36 N35'
_cell_volume   755.58662654
_cell_formula_units_Z   1
loop_
 _symmetry_equiv_pos_site_id
 _symmetry_equiv_pos_as_xyz
  1  'x, y, z'
loop_
 _atom_site_type_symbol
 _atom_site_label
 _atom_site_symmetry_multiplicity
 _atom_site_fract_x
 _atom_site_fract_y
 _atom_site_fract_z
 _atom_site_occupancy
  Al  Al0  1  0.10902589  0.09188099  0.31318865  1
  Al  Al1  1  0.22252271  0.20537779  0.06272734  1
  Al  Al2  1  0.77820329  0.09401681  0.81411937  1
  Al  Al3  1  0.88795378  0.20623922  0.56457429  1
  Al  Al4  1  0.44951664  0.09188082  0.31318860  1
  Al  Al5  1  0.55598066  0.20599215  0.06369786  1
  Al  Al6  1  0.11111766  0.09397238  0.81425273  1
  Al  Al7  1  0.22252287  0.20537770  0.57135159  1
  Al  Al8  1  0.77836493  0.09369344  0.31366552  1
  Al  Al9  1  0.88845079  0.20599219  0.06369784  1
  Al  Al10  1  0.44533335  0.09397255  0.81425262  1
  Al  Al11  1  0.55623091  0.20623927  0.56457427  1
  Al  Al12  1  0.10902577  0.43237160  0.31318861  1
  Al  Al13  1  0.22313716  0.53883556  0.06369789  1
  Al  Al14  1  0.77788721  0.42769549  0.81425879  1
  Al  Al15  1  0.88795369  0.53908548  0.56457427  1
  Al  Al16  1  0.44517347  0.42802856  0.31329795  1
  Al  Al17  1  0.55585625  0.53871110  0.06358605  1
  Al  Al18  1  0.11111775  0.42818824  0.81425266  1
  Al  Al19  1  0.22338442  0.53908567  0.56457427  1
  Al  Al20  1  0.77722084  0.42802865  0.31329800  1
  Al  Al21  1  0.88845069  0.53883545  0.06369779  1
  Al  Al22  1  0.44484057  0.42769548  0.81425879  1
  Al  Al23  1  0.55585637  0.53871108  0.56456858  1
  Al  Al24  1  0.11083851  0.76121992  0.31366553  1
  Al  Al25  1  0.22313721  0.87130570  0.06369790  1
  Al  Al26  1  0.77820332  0.76105828  0.81411936  1
  Al  Al27  1  0.88918962  0.87204439  0.56436942  1
  Al  Al28  1  0.44517351  0.76007605  0.31329798  1
  Al  Al29  1  0.55598060  0.87130556  0.06369781  1
  Al  Al30  1  0.11116200  0.76105817  0.81411939  1
  Al  Al31  1  0.22338442  0.87080845  0.56457427  1
  Al  Al32  1  0.77836495  0.76122004  0.31366550  1
  Al  Al33  1  0.88918953  0.87204441  0.06364253  1
  Al  Al34  1  0.44484054  0.76074216  0.81425879  1
  Al  Al35  1  0.55623083  0.87080832  0.56457426  1
  N  N36  1  0.11211459  0.09496956  0.12420232  1
  N  N37  1  0.88961006  0.20510331  0.87288259  1
  N  N38  1  0.77804081  0.09434218  0.62281974  1
  N  N39  1  0.55469727  0.20602140  0.37338364  1
  N  N40  1  0.44333922  0.09496956  0.12420225  1
  N  N41  1  0.22252286  0.20537775  0.87174083  1
  N  N42  1  0.11149427  0.09434892  0.62108140  1
  N  N43  1  0.88970469  0.20602145  0.37338366  1
  N  N44  1  0.77802181  0.09437995  0.12326602  1
  N  N45  1  0.55571011  0.20510334  0.87288260  1
  N  N46  1  0.44458043  0.09434901  0.62108128  1
  N  N47  1  0.22316635  0.53755225  0.37338364  1
  N  N48  1  0.11211455  0.42619421  0.12420228  1
  N  N49  1  0.88961006  0.53856494  0.87288253  1
  N  N50  1  0.77806975  0.42760431  0.62322825  1
  N  N51  1  0.55585595  0.53871109  0.37329047  1
  N  N52  1  0.44476316  0.42761813  0.12295524  1
  N  N53  1  0.22224846  0.53856501  0.87288263  1
  N  N54  1  0.11149428  0.42743519  0.62108133  1
  N  N55  1  0.88970459  0.53755226  0.37338363  1
  N  N56  1  0.77804215  0.42761809  0.12295530  1
  N  N57  1  0.55585612  0.53871105  0.87300998  1
  N  N58  1  0.44474956  0.42760440  0.62322822  1
  N  N59  1  0.22316637  0.87255976  0.37338365  1
  N  N60  1  0.11152501  0.76087671  0.12326602  1
  N  N61  1  0.88918959  0.87204441  0.87292214  1
  N  N62  1  0.77804075  0.76089547  0.62281974  1
  N  N63  1  0.55469726  0.87255962  0.37338362  1
  N  N64  1  0.44476316  0.76089708  0.12295528  1
  N  N65  1  0.22224842  0.87246490  0.87288264  1
  N  N66  1  0.11148737  0.76089556  0.62281976  1
  N  N67  1  0.88918953  0.87204445  0.37316228  1
  N  N68  1  0.77802176  0.76087664  0.12326600  1
  N  N69  1  0.55571004  0.87246491  0.87288255  1
  N  N70  1  0.44474953  0.76092450  0.62322822  1
