# generated using pymatgen
data_Al36N35
_symmetry_space_group_name_H-M   'P 1'
_cell_length_a   9.70019566
_cell_length_b   9.70019935
_cell_length_c   8.92315930
_cell_angle_alpha   89.99999916
_cell_angle_beta   90.00001166
_cell_angle_gamma   60.00008742
_symmetry_Int_Tables_number   1
_chemical_formula_structural   Al36N35
_chemical_formula_sum   'Al36 N35'
_cell_volume   727.12790917
_cell_formula_units_Z   1
loop_
 _symmetry_equiv_pos_site_id
 _symmetry_equiv_pos_as_xyz
  1  'x, y, z'
loop_
 _atom_site_type_symbol
 _atom_site_label
 _atom_site_symmetry_multiplicity
 _atom_site_fract_x
 _atom_site_fract_y
 _atom_site_fract_z
 _atom_site_occupancy
  Al  Al0  1  0.11230181  0.09503078  0.36409964  1
  Al  Al1  1  0.22253819  0.20526740  0.10260293  1
  Al  Al2  1  0.77805807  0.09422754  0.86998409  1
  Al  Al3  1  0.89047286  0.20512249  0.61876387  1
  Al  Al4  1  0.44301093  0.09503077  0.36409974  1
  Al  Al5  1  0.55702028  0.20709993  0.12310935  1
  Al  Al6  1  0.10947044  0.09219908  0.87520225  1
  Al  Al7  1  0.22253819  0.20526733  0.63136152  1
  Al  Al8  1  0.77860305  0.09313750  0.37239386  1
  Al  Al9  1  0.88622347  0.20710007  0.12310931  1
  Al  Al10  1  0.44867392  0.09219923  0.87520216  1
  Al  Al11  1  0.55474847  0.20512253  0.61876383  1
  Al  Al12  1  0.11230172  0.42574015  0.36409962  1
  Al  Al13  1  0.22437148  0.53974891  0.12310935  1
  Al  Al14  1  0.77881813  0.42712704  0.86950560  1
  Al  Al15  1  0.89047282  0.53747734  0.61876387  1
  Al  Al16  1  0.44546949  0.42819803  0.37308189  1
  Al  Al17  1  0.55587183  0.53860043  0.11920710  1
  Al  Al18  1  0.10947035  0.43140316  0.87520227  1
  Al  Al19  1  0.22239397  0.53747725  0.61876383  1
  Al  Al20  1  0.77667628  0.42819803  0.37308200  1
  Al  Al21  1  0.88622343  0.53974905  0.12310930  1
  Al  Al22  1  0.44439873  0.42712700  0.86950571  1
  Al  Al23  1  0.55587181  0.53860044  0.62328725  1
  Al  Al24  1  0.11040910  0.76133170  0.37239379  1
  Al  Al25  1  0.22437133  0.86895260  0.12310939  1
  Al  Al26  1  0.77805797  0.76078667  0.86998415  1
  Al  Al27  1  0.88920520  0.87193367  0.62265548  1
  Al  Al28  1  0.44546943  0.75940494  0.37308181  1
  Al  Al29  1  0.55702011  0.86895265  0.12310939  1
  Al  Al30  1  0.11149930  0.76078658  0.86998416  1
  Al  Al31  1  0.22239397  0.87320160  0.61876379  1
  Al  Al32  1  0.77860299  0.76133177  0.37239379  1
  Al  Al33  1  0.88920525  0.87193363  0.11991046  1
  Al  Al34  1  0.44439865  0.76154666  0.86950579  1
  Al  Al35  1  0.55474843  0.87320166  0.61876379  1
  N  N36  1  0.11149978  0.09422882  0.09570349  1
  N  N37  1  0.89108338  0.20406179  0.83680630  1
  N  N38  1  0.77815974  0.09402410  0.58842066  1
  N  N39  1  0.55547728  0.20610089  0.33905363  1
  N  N40  1  0.44461490  0.09422882  0.09570338  1
  N  N41  1  0.22253810  0.20526745  0.84941370  1
  N  N42  1  0.11436228  0.09709108  0.58197241  1
  N  N43  1  0.88876553  0.20610096  0.33905359  1
  N  N44  1  0.77779596  0.09475161  0.08731399  1
  N  N45  1  0.55519868  0.20406182  0.83680627  1
  N  N46  1  0.43889011  0.09709116  0.58197248  1
  N  N47  1  0.22337221  0.53820612  0.33905360  1
  N  N48  1  0.11149977  0.42734408  0.09570348  1
  N  N49  1  0.89108332  0.53792746  0.83680630  1
  N  N50  1  0.77775743  0.42765746  0.58914926  1
  N  N51  1  0.55587176  0.53860050  0.33654481  1
  N  N52  1  0.44460371  0.42733216  0.08638350  1
  N  N53  1  0.22133338  0.53792737  0.83680629  1
  N  N54  1  0.11436227  0.42161920  0.58197238  1
  N  N55  1  0.88876552  0.53820621  0.33905357  1
  N  N56  1  0.77840785  0.42733221  0.08638337  1
  N  N57  1  0.55587176  0.53860049  0.83891376  1
  N  N58  1  0.44492891  0.42765746  0.58914914  1
  N  N59  1  0.22337212  0.87149461  0.33905363  1
  N  N60  1  0.11202327  0.76052463  0.08731403  1
  N  N61  1  0.88920523  0.87193365  0.83887959  1
  N  N62  1  0.77815968  0.76088851  0.58842062  1
  N  N63  1  0.55547724  0.87149465  0.33905364  1
  N  N64  1  0.44460362  0.76113658  0.08638359  1
  N  N65  1  0.22133332  0.87381213  0.83680630  1
  N  N66  1  0.11129560  0.76088845  0.58842062  1
  N  N67  1  0.88920516  0.87193373  0.33675012  1
  N  N68  1  0.77779585  0.76052474  0.08731402  1
  N  N69  1  0.55519858  0.87381221  0.83680628  1
  N  N70  1  0.44492889  0.76048601  0.58914909  1
