# generated using pymatgen
data_Al36N35
_symmetry_space_group_name_H-M   'P 1'
_cell_length_a   9.35453416
_cell_length_b   9.35453464
_cell_length_c   9.96876675
_cell_angle_alpha   90.00000076
_cell_angle_beta   90.00000315
_cell_angle_gamma   60.00000385
_symmetry_Int_Tables_number   1
_chemical_formula_structural   Al36N35
_chemical_formula_sum   'Al36 N35'
_cell_volume   755.46863061
_cell_formula_units_Z   1
loop_
 _symmetry_equiv_pos_site_id
 _symmetry_equiv_pos_as_xyz
  1  'x, y, z'
loop_
 _atom_site_type_symbol
 _atom_site_label
 _atom_site_symmetry_multiplicity
 _atom_site_fract_x
 _atom_site_fract_y
 _atom_site_fract_z
 _atom_site_occupancy
  Al  Al0  1  0.10903542  0.09172865  0.38785652  1
  Al  Al1  1  0.22254270  0.20523576  0.12993519  1
  Al  Al2  1  0.77822198  0.09387722  0.88698843  1
  Al  Al3  1  0.88849551  0.20584177  0.63741044  1
  Al  Al4  1  0.44955747  0.09172839  0.38785656  1
  Al  Al5  1  0.55626059  0.20610725  0.13654994  1
  Al  Al6  1  0.11114365  0.09383661  0.88693208  1
  Al  Al7  1  0.22254261  0.20523581  0.63841372  1
  Al  Al8  1  0.77838730  0.09354663  0.38746205  1
  Al  Al9  1  0.88795391  0.20610723  0.13654992  1
  Al  Al10  1  0.44534091  0.09383680  0.88693222  1
  Al  Al11  1  0.55598418  0.20584167  0.63741042  1
  Al  Al12  1  0.10903528  0.43225051  0.38785655  1
  Al  Al13  1  0.22341422  0.53895355  0.13654993  1
  Al  Al14  1  0.77791757  0.42754831  0.88684975  1
  Al  Al15  1  0.88849544  0.53867713  0.63741049  1
  Al  Al16  1  0.44519891  0.42789206  0.38782758  1
  Al  Al17  1  0.55587621  0.53856920  0.13653849  1
  Al  Al18  1  0.11114380  0.42803399  0.88693218  1
  Al  Al19  1  0.22314856  0.53867724  0.63741039  1
  Al  Al20  1  0.77722973  0.42789219  0.38782753  1
  Al  Al21  1  0.88795383  0.53895339  0.13654994  1
  Al  Al22  1  0.44485520  0.42754830  0.88684973  1
  Al  Al23  1  0.55587612  0.53856918  0.63754376  1
  Al  Al24  1  0.11085364  0.76108037  0.38746203  1
  Al  Al25  1  0.22341420  0.87064687  0.13654992  1
  Al  Al26  1  0.77822207  0.76091518  0.88698842  1
  Al  Al27  1  0.88920944  0.87190244  0.63748736  1
  Al  Al28  1  0.44519896  0.75992304  0.38782753  1
  Al  Al29  1  0.55626052  0.87064669  0.13654995  1
  Al  Al30  1  0.11118426  0.76091504  0.88698840  1
  Al  Al31  1  0.22314862  0.87118863  0.63741037  1
  Al  Al32  1  0.77838737  0.76108048  0.38746206  1
  Al  Al33  1  0.88920953  0.87190244  0.13673842  1
  Al  Al34  1  0.44485517  0.76061074  0.88684973  1
  Al  Al35  1  0.55598413  0.87118845  0.63741045  1
  N  N36  1  0.11152244  0.09421541  0.08021564  1
  N  N37  1  0.88965571  0.20494793  0.82834418  1
  N  N38  1  0.77804211  0.09423717  0.57797119  1
  N  N39  1  0.55473812  0.20589028  0.32784247  1
  N  N40  1  0.44458352  0.09421547  0.08021586  1
  N  N41  1  0.22254273  0.20523581  0.82951791  1
  N  N42  1  0.11215133  0.09484450  0.57696131  1
  N  N43  1  0.88969286  0.20589036  0.32784245  1
  N  N44  1  0.77805978  0.09420201  0.07839530  1
  N  N45  1  0.55571759  0.20494796  0.82834413  1
  N  N46  1  0.44332539  0.09484442  0.57696135  1
  N  N47  1  0.22319716  0.53743118  0.32784246  1
  N  N48  1  0.11152251  0.42727650  0.08021579  1
  N  N49  1  0.88965577  0.53841063  0.82834422  1
  N  N50  1  0.77806125  0.42747654  0.57827988  1
  N  N51  1  0.55587585  0.53856912  0.32792817  1
  N  N52  1  0.44477006  0.42746305  0.07798795  1
  N  N53  1  0.22225487  0.53841071  0.82834410  1
  N  N54  1  0.11215133  0.42601850  0.57696134  1
  N  N55  1  0.88969274  0.53743119  0.32784248  1
  N  N56  1  0.77808837  0.42746303  0.07798797  1
  N  N57  1  0.55587598  0.53856914  0.82822285  1
  N  N58  1  0.44478344  0.42747651  0.57827991  1
  N  N59  1  0.22319718  0.87238606  0.32784245  1
  N  N60  1  0.11150906  0.76075272  0.07839527  1
  N  N61  1  0.88920951  0.87190247  0.82830915  1
  N  N62  1  0.77804206  0.76073508  0.57797119  1
  N  N63  1  0.55473814  0.87238584  0.32784248  1
  N  N64  1  0.44477000  0.76078139  0.07798795  1
  N  N65  1  0.22225486  0.87234878  0.82834410  1
  N  N66  1  0.11154412  0.76073516  0.57797116  1
  N  N67  1  0.88920951  0.87190248  0.32805868  1
  N  N68  1  0.77805974  0.76075266  0.07839527  1
  N  N69  1  0.55571757  0.87234882  0.82834419  1
  N  N70  1  0.44478343  0.76075437  0.57827986  1
