# generated using pymatgen
data_Al11BN12
_symmetry_space_group_name_H-M   'P 1'
_cell_length_a   9.29530586
_cell_length_b   9.27808280
_cell_length_c   10.12113491
_cell_angle_alpha   90.13689251
_cell_angle_beta   89.65730271
_cell_angle_gamma   59.88241177
_symmetry_Int_Tables_number   1
_chemical_formula_structural   Al11BN12
_chemical_formula_sum   'Al33 B3 N36'
_cell_volume   755.00487817
_cell_formula_units_Z   3
loop_
 _symmetry_equiv_pos_site_id
 _symmetry_equiv_pos_as_xyz
  1  'x, y, z'
loop_
 _atom_site_type_symbol
 _atom_site_label
 _atom_site_symmetry_multiplicity
 _atom_site_fract_x
 _atom_site_fract_y
 _atom_site_fract_z
 _atom_site_occupancy
  Al  Al0  1  0.11554935  0.09426446  0.39412020  1
  Al  Al1  1  0.21167588  0.20643825  0.13298491  1
  Al  Al2  1  0.78315859  0.08012414  0.81387159  1
  Al  Al3  1  0.89002692  0.20327163  0.60566620  1
  Al  Al4  1  0.45519821  0.08050548  0.31857279  1
  Al  Al5  1  0.56616847  0.19724924  0.06538411  1
  Al  Al6  1  0.10082220  0.09844437  0.88170316  1
  Al  Al7  1  0.21510239  0.21224258  0.64094128  1
  Al  Al8  1  0.78392415  0.10164937  0.31263785  1
  Al  Al9  1  0.45090716  0.09080751  0.81318119  1
  Al  Al10  1  0.56329488  0.19381692  0.56093982  1
  Al  Al11  1  0.11091742  0.42587935  0.38823392  1
  Al  Al12  1  0.22204088  0.53848542  0.14262791  1
  Al  Al13  1  0.78092349  0.42122503  0.88050466  1
  Al  Al14  1  0.89079438  0.54860172  0.64290887  1
  Al  Al15  1  0.44626792  0.42847331  0.36226642  1
  Al  Al16  1  0.56182235  0.53582192  0.13452453  1
  Al  Al17  1  0.10967255  0.42995234  0.89045210  1
  Al  Al18  1  0.21656533  0.54336858  0.63308208  1
  Al  Al19  1  0.77588328  0.43346625  0.39568717  1
  Al  Al20  1  0.88258102  0.53575610  0.14006596  1
  Al  Al21  1  0.44274293  0.42633605  0.86024965  1
  Al  Al22  1  0.55473600  0.54191822  0.64315129  1
  Al  Al23  1  0.10187380  0.76956746  0.38085799  1
  Al  Al24  1  0.21943962  0.88001145  0.13972853  1
  Al  Al25  1  0.76925778  0.76298469  0.89051089  1
  Al  Al26  1  0.44122841  0.75990402  0.39420315  1
  Al  Al27  1  0.11413405  0.75910255  0.89591129  1
  Al  Al28  1  0.21363858  0.87505044  0.64202854  1
  Al  Al29  1  0.78390903  0.76381688  0.38376703  1
  Al  Al30  1  0.88865637  0.87597926  0.10508665  1
  Al  Al31  1  0.44455555  0.76719925  0.88370545  1
  Al  Al32  1  0.55782389  0.87277200  0.60220474  1
  B  B33  1  0.88597652  0.20905315  0.09540162  1
  B  B34  1  0.89031183  0.87007067  0.59637197  1
  B  B35  1  0.55450337  0.86864992  0.09912551  1
  N  N36  1  0.21993529  0.20630322  0.32130807  1
  N  N37  1  0.07776259  0.11070433  0.07753853  1
  N  N38  1  0.88741631  0.20695069  0.81160646  1
  N  N39  1  0.79224266  0.05617247  0.62063105  1
  N  N40  1  0.56150581  0.19763970  0.37052168  1
  N  N41  1  0.46514380  0.05847958  0.12041368  1
  N  N42  1  0.21723417  0.20756773  0.83462073  1
  N  N43  1  0.12206433  0.09084901  0.58103120  1
  N  N44  1  0.88615305  0.20433137  0.38805569  1
  N  N45  1  0.79190478  0.11935666  0.12030317  1
  N  N46  1  0.56158930  0.19662830  0.87753148  1
  N  N47  1  0.44296095  0.10339637  0.62465806  1
  N  N48  1  0.21861020  0.54160085  0.33221239  1
  N  N49  1  0.10769779  0.43202426  0.07855733  1
  N  N50  1  0.88879375  0.54040686  0.83176670  1
  N  N51  1  0.77334106  0.44500515  0.58365604  1
  N  N52  1  0.55962894  0.54154450  0.32311990  1
  N  N53  1  0.44472483  0.42534703  0.09608128  1
  N  N54  1  0.21652963  0.54211045  0.82350878  1
  N  N55  1  0.10936555  0.42907789  0.57617205  1
  N  N56  1  0.88885607  0.53854903  0.32689996  1
  N  N57  1  0.79304699  0.39887901  0.07623794  1
  N  N58  1  0.55534264  0.54078150  0.83428119  1
  N  N59  1  0.44808867  0.42558370  0.59367497  1
  N  N60  1  0.22229194  0.87456318  0.32682201  1
  N  N61  1  0.12590331  0.75510273  0.08232942  1
  N  N62  1  0.88497906  0.87580036  0.89465047  1
  N  N63  1  0.80276757  0.77231361  0.58016671  1
  N  N64  1  0.55625739  0.87256999  0.38888168  1
  N  N65  1  0.45424354  0.77922490  0.07945084  1
  N  N66  1  0.21947949  0.87255533  0.83102055  1
  N  N67  1  0.08120998  0.77890723  0.57747961  1
  N  N68  1  0.88917273  0.86921874  0.30788112  1
  N  N69  1  0.74142678  0.76792541  0.08520327  1
  N  N70  1  0.56208446  0.86145423  0.81440727  1
  N  N71  1  0.43329298  0.75750972  0.58194417  1
