# generated using pymatgen
data_Al11BN12
_symmetry_space_group_name_H-M   'P 1'
_cell_length_a   9.23586696
_cell_length_b   9.28549711
_cell_length_c   10.28260733
_cell_angle_alpha   90.37297245
_cell_angle_beta   89.73780638
_cell_angle_gamma   59.83972896
_symmetry_Int_Tables_number   1
_chemical_formula_structural   Al11BN12
_chemical_formula_sum   'Al33 B3 N36'
_cell_volume   762.40541348
_cell_formula_units_Z   3
loop_
 _symmetry_equiv_pos_site_id
 _symmetry_equiv_pos_as_xyz
  1  'x, y, z'
loop_
 _atom_site_type_symbol
 _atom_site_label
 _atom_site_symmetry_multiplicity
 _atom_site_fract_x
 _atom_site_fract_y
 _atom_site_fract_z
 _atom_site_occupancy
  Al  Al0  1  0.11447738  0.09452617  0.39770535  1
  Al  Al1  1  0.21113986  0.20673465  0.13620057  1
  Al  Al2  1  0.78018063  0.08480669  0.82041917  1
  Al  Al3  1  0.88952587  0.20106105  0.60260532  1
  Al  Al4  1  0.45445449  0.08409221  0.31693161  1
  Al  Al5  1  0.56222988  0.20076169  0.06550352  1
  Al  Al6  1  0.09784633  0.10077166  0.88734284  1
  Al  Al7  1  0.21510167  0.21043353  0.64566925  1
  Al  Al8  1  0.78245534  0.09844549  0.31826338  1
  Al  Al9  1  0.45104063  0.09004258  0.82059784  1
  Al  Al10  1  0.55990727  0.19632907  0.56520128  1
  Al  Al11  1  0.12128877  0.42208534  0.38884604  1
  Al  Al12  1  0.21667590  0.54241767  0.14572238  1
  Al  Al13  1  0.77461106  0.43414295  0.81246557  1
  Al  Al14  1  0.88465518  0.54966273  0.56516395  1
  Al  Al15  1  0.45278972  0.42246743  0.32024355  1
  Al  Al16  1  0.56257418  0.52834596  0.07343908  1
  Al  Al17  1  0.11827814  0.42615145  0.89204221  1
  Al  Al18  1  0.21019986  0.54619989  0.63859457  1
  Al  Al19  1  0.78489928  0.42030792  0.32485149  1
  Al  Al20  1  0.87643857  0.53898898  0.06676871  1
  Al  Al21  1  0.45174556  0.42500255  0.81809192  1
  Al  Al22  1  0.55863636  0.53242397  0.56605618  1
  Al  Al23  1  0.09918991  0.76844883  0.38672571  1
  Al  Al24  1  0.21962116  0.87891063  0.14439008  1
  Al  Al25  1  0.78324585  0.76231498  0.82644279  1
  Al  Al26  1  0.43686521  0.76661030  0.39207231  1
  Al  Al27  1  0.11568630  0.75937126  0.89767384  1
  Al  Al28  1  0.21693694  0.87507363  0.64648260  1
  Al  Al29  1  0.77154696  0.76040772  0.31095256  1
  Al  Al30  1  0.88657374  0.87753302  0.09889828  1
  Al  Al31  1  0.44236715  0.77002672  0.89306743  1
  Al  Al32  1  0.56096480  0.87701738  0.57929418  1
  B  B33  1  0.88684890  0.20774522  0.10772889  1
  B  B34  1  0.88875345  0.87044224  0.60828697  1
  B  B35  1  0.55500460  0.87002641  0.09160116  1
  N  N36  1  0.21770586  0.20562551  0.32172020  1
  N  N37  1  0.07785041  0.11039585  0.08109515  1
  N  N38  1  0.88737939  0.20485837  0.81822377  1
  N  N39  1  0.79100375  0.05678946  0.62490768  1
  N  N40  1  0.55676983  0.20209168  0.37888377  1
  N  N41  1  0.46462823  0.06179402  0.12406336  1
  N  N42  1  0.21489704  0.20798107  0.83411865  1
  N  N43  1  0.12295257  0.08934691  0.58133405  1
  N  N44  1  0.88160637  0.20789685  0.39450955  1
  N  N45  1  0.79075515  0.11821967  0.12469951  1
  N  N46  1  0.55482509  0.20669411  0.88195890  1
  N  N47  1  0.44792167  0.09653575  0.63316616  1
  N  N48  1  0.21809440  0.54394231  0.33314230  1
  N  N49  1  0.11527086  0.42761658  0.07978610  1
  N  N50  1  0.88323689  0.54062055  0.88140638  1
  N  N51  1  0.77471841  0.44165981  0.62765106  1
  N  N52  1  0.55933568  0.53434675  0.37698046  1
  N  N53  1  0.45147983  0.41932515  0.13319583  1
  N  N54  1  0.21433308  0.54496445  0.82465843  1
  N  N55  1  0.11874269  0.42265876  0.57518225  1
  N  N56  1  0.88477305  0.54375685  0.37644558  1
  N  N57  1  0.79555444  0.39760385  0.13119398  1
  N  N58  1  0.55652449  0.53517498  0.88745037  1
  N  N59  1  0.45402435  0.42034792  0.62932565  1
  N  N60  1  0.21829170  0.87586943  0.32917194  1
  N  N61  1  0.12698331  0.75465469  0.08119737  1
  N  N62  1  0.88253892  0.87675397  0.89733691  1
  N  N63  1  0.79947734  0.77181692  0.63034265  1
  N  N64  1  0.56033908  0.87505293  0.38947674  1
  N  N65  1  0.45210223  0.77925766  0.08831490  1
  N  N66  1  0.21988990  0.87387858  0.83248704  1
  N  N67  1  0.08000398  0.77803192  0.58117618  1
  N  N68  1  0.89096420  0.86999735  0.31132728  1
  N  N69  1  0.74274278  0.76766556  0.12289136  1
  N  N70  1  0.56021818  0.87238814  0.86331631  1
  N  N71  1  0.43644095  0.76295077  0.58280610  1
