# generated using pymatgen
data_Al11BN12
_symmetry_space_group_name_H-M   'P 1'
_cell_length_a   9.26951877
_cell_length_b   9.26865917
_cell_length_c   10.02277768
_cell_angle_alpha   89.94885815
_cell_angle_beta   89.64478358
_cell_angle_gamma   59.93498923
_symmetry_Int_Tables_number   1
_chemical_formula_structural   Al11BN12
_chemical_formula_sum   'Al33 B3 N36'
_cell_volume   745.24348390
_cell_formula_units_Z   3
loop_
 _symmetry_equiv_pos_site_id
 _symmetry_equiv_pos_as_xyz
  1  'x, y, z'
loop_
 _atom_site_type_symbol
 _atom_site_label
 _atom_site_symmetry_multiplicity
 _atom_site_fract_x
 _atom_site_fract_y
 _atom_site_fract_z
 _atom_site_occupancy
  Al  Al0  1  0.11222603  0.09642907  0.40048325  1
  Al  Al1  1  0.21829215  0.20370165  0.14946671  1
  Al  Al2  1  0.78360242  0.08053830  0.84198228  1
  Al  Al3  1  0.89256212  0.20199965  0.64110760  1
  Al  Al4  1  0.44642897  0.09247995  0.39071792  1
  Al  Al5  1  0.55481888  0.20553665  0.14359367  1
  Al  Al6  1  0.10428408  0.09629947  0.90045854  1
  Al  Al7  1  0.22398805  0.20410823  0.65165659  1
  Al  Al8  1  0.78692611  0.09771657  0.32325345  1
  Al  Al9  1  0.44667854  0.08808408  0.90369395  1
  Al  Al10  1  0.55419928  0.20014686  0.64558519  1
  Al  Al11  1  0.11101301  0.42721290  0.40068871  1
  Al  Al12  1  0.22405921  0.53789349  0.15424463  1
  Al  Al13  1  0.77953301  0.42172034  0.89965773  1
  Al  Al14  1  0.88936124  0.54579559  0.65024894  1
  Al  Al15  1  0.44713197  0.42666023  0.39995729  1
  Al  Al16  1  0.56057589  0.53590921  0.14924436  1
  Al  Al17  1  0.10982813  0.42941433  0.90027163  1
  Al  Al18  1  0.21479664  0.54400428  0.64814309  1
  Al  Al19  1  0.77778863  0.42916043  0.40118291  1
  Al  Al20  1  0.88492499  0.53488500  0.15325957  1
  Al  Al21  1  0.44334154  0.42748559  0.89831060  1
  Al  Al22  1  0.55495951  0.54139988  0.65213302  1
  Al  Al23  1  0.10454452  0.76569294  0.39282500  1
  Al  Al24  1  0.22061869  0.87854038  0.15350602  1
  Al  Al25  1  0.76853713  0.75999046  0.91027173  1
  Al  Al26  1  0.44577585  0.76195038  0.39390918  1
  Al  Al27  1  0.11564048  0.75787060  0.90627721  1
  Al  Al28  1  0.21688533  0.87451153  0.64929284  1
  Al  Al29  1  0.77756760  0.76748703  0.38445297  1
  Al  Al30  1  0.88809105  0.87493807  0.11537413  1
  Al  Al31  1  0.44525539  0.76485617  0.90389545  1
  Al  Al32  1  0.56011176  0.87429387  0.64644780  1
  B  B33  1  0.88787176  0.20868839  0.12918532  1
  B  B34  1  0.88679423  0.87337196  0.60578062  1
  B  B35  1  0.55671198  0.86634540  0.15381278  1
  N  N36  1  0.22297639  0.20637383  0.33756034  1
  N  N37  1  0.08250619  0.10899437  0.09371018  1
  N  N38  1  0.88895425  0.20597509  0.83203492  1
  N  N39  1  0.79468077  0.05750830  0.63176211  1
  N  N40  1  0.55441234  0.20692490  0.33651322  1
  N  N41  1  0.45586307  0.06958216  0.09576143  1
  N  N42  1  0.22272332  0.20368425  0.84383600  1
  N  N43  1  0.11521125  0.09361725  0.58977072  1
  N  N44  1  0.89460192  0.21136959  0.34903527  1
  N  N45  1  0.79015060  0.11582372  0.12401422  1
  N  N46  1  0.55042987  0.20530625  0.83896096  1
  N  N47  1  0.44397050  0.09289151  0.58237349  1
  N  N48  1  0.22348267  0.53864645  0.34420188  1
  N  N49  1  0.11004181  0.42990806  0.09065190  1
  N  N50  1  0.88614061  0.54048085  0.84166048  1
  N  N51  1  0.77661297  0.43215295  0.59171631  1
  N  N52  1  0.55683341  0.53830860  0.33801756  1
  N  N53  1  0.44395700  0.42802936  0.08761796  1
  N  N54  1  0.22097799  0.54017395  0.83702058  1
  N  N55  1  0.11124480  0.42643193  0.59099130  1
  N  N56  1  0.88884286  0.54008673  0.34187741  1
  N  N57  1  0.79228038  0.40027831  0.09320883  1
  N  N58  1  0.55480780  0.54084637  0.84376958  1
  N  N59  1  0.44487413  0.42824935  0.59083736  1
  N  N60  1  0.22184003  0.87385141  0.34224382  1
  N  N61  1  0.12601395  0.75503665  0.09448585  1
  N  N62  1  0.88653551  0.86993875  0.90427334  1
  N  N63  1  0.79161956  0.77683475  0.58535711  1
  N  N64  1  0.55426988  0.87228462  0.31978535  1
  N  N65  1  0.45452883  0.77431697  0.09780047  1
  N  N66  1  0.22213180  0.87192224  0.84069276  1
  N  N67  1  0.07990567  0.77719244  0.59045467  1
  N  N68  1  0.89195551  0.86898257  0.32247627  1
  N  N69  1  0.74618450  0.76544727  0.10124064  1
  N  N70  1  0.55635285  0.87118177  0.83396369  1
  N  N71  1  0.44509474  0.76234980  0.58645352  1
