# generated using pymatgen
data_Al11BN12
_symmetry_space_group_name_H-M   'P 1'
_cell_length_a   9.29534501
_cell_length_b   9.28909475
_cell_length_c   9.96062486
_cell_angle_alpha   90.01339926
_cell_angle_beta   89.75916253
_cell_angle_gamma   59.93906005
_symmetry_Int_Tables_number   1
_chemical_formula_structural   Al11BN12
_chemical_formula_sum   'Al33 B3 N36'
_cell_volume   744.36112442
_cell_formula_units_Z   3
loop_
 _symmetry_equiv_pos_site_id
 _symmetry_equiv_pos_as_xyz
  1  'x, y, z'
loop_
 _atom_site_type_symbol
 _atom_site_label
 _atom_site_symmetry_multiplicity
 _atom_site_fract_x
 _atom_site_fract_y
 _atom_site_fract_z
 _atom_site_occupancy
  Al  Al0  1  0.11281735  0.09000765  0.38343768  1
  Al  Al1  1  0.22194137  0.20492255  0.06590475  1
  Al  Al2  1  0.77730152  0.08644027  0.80194814  1
  Al  Al3  1  0.88855965  0.20292492  0.59207547  1
  Al  Al4  1  0.44791769  0.08879084  0.30691214  1
  Al  Al5  1  0.56361578  0.20247645  0.06295768  1
  Al  Al6  1  0.09528729  0.09815247  0.87598047  1
  Al  Al7  1  0.23040777  0.20817336  0.56394400  1
  Al  Al8  1  0.78260379  0.09426381  0.32545016  1
  Al  Al9  1  0.44506892  0.09159265  0.82090467  1
  Al  Al10  1  0.55911117  0.19875838  0.55973518  1
  Al  Al11  1  0.11235880  0.42873740  0.31140637  1
  Al  Al12  1  0.22125720  0.53864472  0.05994370  1
  Al  Al13  1  0.77601953  0.43112483  0.80462303  1
  Al  Al14  1  0.89010312  0.54682852  0.55890384  1
  Al  Al15  1  0.44382607  0.42856292  0.31238156  1
  Al  Al16  1  0.56327849  0.53284236  0.06261094  1
  Al  Al17  1  0.11025940  0.42489620  0.81237685  1
  Al  Al18  1  0.21806566  0.54414493  0.56330756  1
  Al  Al19  1  0.78140742  0.42255157  0.31884412  1
  Al  Al20  1  0.88574327  0.53661020  0.06342356  1
  Al  Al21  1  0.44695012  0.42579339  0.81179577  1
  Al  Al22  1  0.55418296  0.54392391  0.55907470  1
  Al  Al23  1  0.10676667  0.76098484  0.31778941  1
  Al  Al24  1  0.21623071  0.87871569  0.11133709  1
  Al  Al25  1  0.77790989  0.76347373  0.81475839  1
  Al  Al26  1  0.45237530  0.76334745  0.30526644  1
  Al  Al27  1  0.10184024  0.75971050  0.81426018  1
  Al  Al28  1  0.21903902  0.87460761  0.62584949  1
  Al  Al29  1  0.77394159  0.76597701  0.31341712  1
  Al  Al30  1  0.88373645  0.87864432  0.06358922  1
  Al  Al31  1  0.44966903  0.75971107  0.82707326  1
  Al  Al32  1  0.55979271  0.87372500  0.56521376  1
  B  B33  1  0.88789572  0.20509963  0.10547369  1
  B  B34  1  0.88336937  0.87415817  0.55969302  1
  B  B35  1  0.55902639  0.87006846  0.05803855  1
  N  N36  1  0.22785116  0.20814832  0.36741159  1
  N  N37  1  0.07301748  0.11272293  0.07821437  1
  N  N38  1  0.88684843  0.20377644  0.80928226  1
  N  N39  1  0.78588758  0.06331412  0.60970279  1
  N  N40  1  0.55456972  0.20425024  0.36783966  1
  N  N41  1  0.45817530  0.06903230  0.11382770  1
  N  N42  1  0.22204973  0.20497566  0.87478146  1
  N  N43  1  0.12096014  0.08935979  0.57730065  1
  N  N44  1  0.88310887  0.20939542  0.38411301  1
  N  N45  1  0.79333818  0.10811877  0.12548218  1
  N  N46  1  0.55884268  0.20348140  0.87267529  1
  N  N47  1  0.44698815  0.09342603  0.62910618  1
  N  N48  1  0.22271275  0.53951795  0.37357769  1
  N  N49  1  0.11043055  0.42807356  0.12146712  1
  N  N50  1  0.88706935  0.53907849  0.87267859  1
  N  N51  1  0.77356322  0.44173529  0.61455760  1
  N  N52  1  0.55384072  0.54289468  0.36678982  1
  N  N53  1  0.44346617  0.42798886  0.12122768  1
  N  N54  1  0.22230621  0.53681010  0.86938256  1
  N  N55  1  0.11097550  0.42885794  0.62205173  1
  N  N56  1  0.88876654  0.54168599  0.36664549  1
  N  N57  1  0.79331094  0.39636408  0.12112951  1
  N  N58  1  0.55866112  0.53469700  0.87435663  1
  N  N59  1  0.44699666  0.42695812  0.61964684  1
  N  N60  1  0.22259715  0.87622079  0.31821522  1
  N  N61  1  0.10291346  0.75725887  0.12304791  1
  N  N62  1  0.88514231  0.87444372  0.87717865  1
  N  N63  1  0.78960930  0.77397944  0.61814363  1
  N  N64  1  0.55524368  0.87335337  0.37698726  1
  N  N65  1  0.46394163  0.76971675  0.10982595  1
  N  N66  1  0.21943468  0.87008961  0.84819362  1
  N  N67  1  0.08496268  0.77301461  0.61703115  1
  N  N68  1  0.88811253  0.87058590  0.39055426  1
  N  N69  1  0.75373005  0.77458547  0.11784993  1
  N  N70  1  0.55910101  0.87131315  0.89285073  1
  N  N71  1  0.45124968  0.76055961  0.63036676  1
