# generated using pymatgen
data_Al11BN12
_symmetry_space_group_name_H-M   'P 1'
_cell_length_a   9.30174587
_cell_length_b   9.33221182
_cell_length_c   10.16560222
_cell_angle_alpha   90.18194312
_cell_angle_beta   89.72325160
_cell_angle_gamma   59.86409018
_symmetry_Int_Tables_number   1
_chemical_formula_structural   Al11BN12
_chemical_formula_sum   'Al33 B3 N36'
_cell_volume   763.13649719
_cell_formula_units_Z   3
loop_
 _symmetry_equiv_pos_site_id
 _symmetry_equiv_pos_as_xyz
  1  'x, y, z'
loop_
 _atom_site_type_symbol
 _atom_site_label
 _atom_site_symmetry_multiplicity
 _atom_site_fract_x
 _atom_site_fract_y
 _atom_site_fract_z
 _atom_site_occupancy
  Al  Al0  1  0.11663552  0.09366141  0.39569161  1
  Al  Al1  1  0.21365189  0.20441160  0.13550647  1
  Al  Al2  1  0.78154791  0.08359015  0.81935007  1
  Al  Al3  1  0.88925875  0.19998982  0.59722953  1
  Al  Al4  1  0.45303515  0.08526346  0.32411324  1
  Al  Al5  1  0.56438121  0.19872814  0.06541564  1
  Al  Al6  1  0.10149236  0.09790527  0.88709470  1
  Al  Al7  1  0.21517267  0.21084687  0.64219842  1
  Al  Al8  1  0.78332344  0.09908286  0.31648153  1
  Al  Al9  1  0.44908045  0.09110886  0.81542410  1
  Al  Al10  1  0.56098421  0.19776439  0.56353436  1
  Al  Al11  1  0.11181069  0.42789561  0.38831710  1
  Al  Al12  1  0.21654290  0.54130512  0.14265984  1
  Al  Al13  1  0.77770475  0.42522144  0.82180352  1
  Al  Al14  1  0.89716535  0.54331502  0.63699000  1
  Al  Al15  1  0.44960770  0.42309872  0.31815247  1
  Al  Al16  1  0.56069205  0.53712711  0.11381687  1
  Al  Al17  1  0.11156194  0.42833957  0.89079253  1
  Al  Al18  1  0.21064049  0.54698805  0.63672516  1
  Al  Al19  1  0.78322994  0.41854283  0.33174143  1
  Al  Al20  1  0.88886357  0.53249865  0.13138039  1
  Al  Al21  1  0.44660369  0.42168326  0.82517647  1
  Al  Al22  1  0.55079611  0.54383129  0.62210964  1
  Al  Al23  1  0.10159479  0.76836669  0.38517840  1
  Al  Al24  1  0.21889472  0.88018411  0.14302675  1
  Al  Al25  1  0.77996793  0.76875720  0.82901341  1
  Al  Al26  1  0.44159816  0.76119005  0.39245903  1
  Al  Al27  1  0.11526692  0.75893369  0.89716047  1
  Al  Al28  1  0.21313988  0.87667591  0.64554003  1
  Al  Al29  1  0.76857380  0.76768949  0.31953046  1
  Al  Al30  1  0.88673514  0.87820637  0.09999054  1
  Al  Al31  1  0.44523019  0.76737787  0.89000018  1
  Al  Al32  1  0.56016419  0.87501267  0.59603695  1
  B  B33  1  0.88745749  0.20693104  0.10267488  1
  B  B34  1  0.88920180  0.87142609  0.60480961  1
  B  B35  1  0.55408431  0.87093682  0.10422898  1
  N  N36  1  0.21839058  0.20762692  0.32366042  1
  N  N37  1  0.08011525  0.10850751  0.08147153  1
  N  N38  1  0.89045638  0.20026913  0.82153196  1
  N  N39  1  0.79129539  0.05829967  0.62325741  1
  N  N40  1  0.55902293  0.20363376  0.37609329  1
  N  N41  1  0.46467100  0.06055176  0.12523419  1
  N  N42  1  0.21578435  0.20759612  0.83435977  1
  N  N43  1  0.12214301  0.09020846  0.58142499  1
  N  N44  1  0.88370205  0.20581656  0.39400904  1
  N  N45  1  0.79172618  0.11701863  0.12307995  1
  N  N46  1  0.55707574  0.20051854  0.88020425  1
  N  N47  1  0.44350051  0.10324166  0.62577085  1
  N  N48  1  0.21750173  0.54354163  0.33370296  1
  N  N49  1  0.11251051  0.42774548  0.07717229  1
  N  N50  1  0.89363664  0.53880766  0.83219926  1
  N  N51  1  0.77529743  0.43600419  0.62041908  1
  N  N52  1  0.55502449  0.54680560  0.32523498  1
  N  N53  1  0.44674995  0.41713621  0.12505784  1
  N  N54  1  0.21296911  0.54437154  0.82619415  1
  N  N55  1  0.11308178  0.42665390  0.57457543  1
  N  N56  1  0.89411393  0.53717170  0.32451470  1
  N  N57  1  0.79839002  0.39121655  0.12014226  1
  N  N58  1  0.55318978  0.53887723  0.86466538  1
  N  N59  1  0.44949894  0.41967823  0.62824239  1
  N  N60  1  0.22078520  0.87564914  0.32934489  1
  N  N61  1  0.12634390  0.75516603  0.08251250  1
  N  N62  1  0.88218366  0.87673185  0.89874977  1
  N  N63  1  0.80211044  0.77579858  0.62412296  1
  N  N64  1  0.55974863  0.87485632  0.39499437  1
  N  N65  1  0.45272876  0.78363864  0.08400742  1
  N  N66  1  0.22013888  0.87257977  0.83316923  1
  N  N67  1  0.08058162  0.77948609  0.58077254  1
  N  N68  1  0.89155509  0.87129742  0.31253746  1
  N  N69  1  0.73955927  0.77176927  0.12002601  1
  N  N70  1  0.55544375  0.86581033  0.82271550  1
  N  N71  1  0.43241404  0.76072552  0.58076071  1
