# generated using pymatgen
data_Al11BN12
_symmetry_space_group_name_H-M   'P 1'
_cell_length_a   9.28113563
_cell_length_b   9.29611533
_cell_length_c   10.19165442
_cell_angle_alpha   90.06462107
_cell_angle_beta   89.70351778
_cell_angle_gamma   59.91247473
_symmetry_Int_Tables_number   1
_chemical_formula_structural   Al11BN12
_chemical_formula_sum   'Al33 B3 N36'
_cell_volume   760.82434907
_cell_formula_units_Z   3
loop_
 _symmetry_equiv_pos_site_id
 _symmetry_equiv_pos_as_xyz
  1  'x, y, z'
loop_
 _atom_site_type_symbol
 _atom_site_label
 _atom_site_symmetry_multiplicity
 _atom_site_fract_x
 _atom_site_fract_y
 _atom_site_fract_z
 _atom_site_occupancy
  Al  Al0  1  0.11619976  0.09337974  0.39513641  1
  Al  Al1  1  0.21382057  0.20404567  0.13505318  1
  Al  Al2  1  0.78095285  0.08433486  0.81742465  1
  Al  Al3  1  0.89041606  0.20053896  0.60357755  1
  Al  Al4  1  0.45412252  0.08356819  0.32298010  1
  Al  Al5  1  0.56312229  0.20112465  0.06529889  1
  Al  Al6  1  0.10162512  0.09807767  0.88348291  1
  Al  Al7  1  0.21625906  0.21076176  0.64163801  1
  Al  Al8  1  0.78419569  0.10099754  0.31424608  1
  Al  Al9  1  0.44961785  0.09119763  0.81547147  1
  Al  Al10  1  0.56115951  0.19858501  0.56251735  1
  Al  Al11  1  0.11184236  0.42674298  0.38791606  1
  Al  Al12  1  0.21660751  0.54139249  0.14297020  1
  Al  Al13  1  0.78008820  0.42173377  0.87585638  1
  Al  Al14  1  0.89541879  0.53971946  0.63898095  1
  Al  Al15  1  0.44956496  0.42241682  0.32117898  1
  Al  Al16  1  0.56436612  0.53837973  0.13440332  1
  Al  Al17  1  0.11016630  0.42916404  0.89046403  1
  Al  Al18  1  0.21103533  0.54684922  0.63444849  1
  Al  Al19  1  0.77657059  0.43223388  0.39482568  1
  Al  Al20  1  0.88710833  0.52697974  0.13574418  1
  Al  Al21  1  0.44495657  0.42054730  0.82028691  1
  Al  Al22  1  0.55570547  0.54567112  0.64357181  1
  Al  Al23  1  0.10051190  0.76928335  0.38488930  1
  Al  Al24  1  0.21886088  0.87946702  0.14226204  1
  Al  Al25  1  0.78019309  0.76802176  0.82708158  1
  Al  Al26  1  0.44156946  0.75926004  0.39533785  1
  Al  Al27  1  0.11448813  0.75906248  0.89700939  1
  Al  Al28  1  0.21452379  0.87558349  0.64452941  1
  Al  Al29  1  0.76913762  0.76620728  0.31806219  1
  Al  Al30  1  0.88616056  0.87761279  0.10003681  1
  Al  Al31  1  0.44526650  0.76621857  0.88889438  1
  Al  Al32  1  0.56059522  0.87456846  0.59382014  1
  B  B33  1  0.88553773  0.20824601  0.09591733  1
  B  B34  1  0.88900262  0.87107747  0.60477058  1
  B  B35  1  0.55533236  0.86873578  0.10246430  1
  N  N36  1  0.21982072  0.20640476  0.32262592  1
  N  N37  1  0.07827350  0.10980431  0.07891193  1
  N  N38  1  0.88865751  0.20613425  0.81216994  1
  N  N39  1  0.79106949  0.05817587  0.62355665  1
  N  N40  1  0.56014392  0.20197549  0.37530598  1
  N  N41  1  0.46491939  0.05911209  0.12430702  1
  N  N42  1  0.21616006  0.20819858  0.83369402  1
  N  N43  1  0.12304878  0.08999013  0.58107818  1
  N  N44  1  0.88649666  0.20317192  0.38978180  1
  N  N45  1  0.79071465  0.11932361  0.12096991  1
  N  N46  1  0.55714838  0.20221393  0.88061312  1
  N  N47  1  0.44480726  0.10248449  0.62624790  1
  N  N48  1  0.21704379  0.54371054  0.33363617  1
  N  N49  1  0.11088984  0.42837554  0.07730392  1
  N  N50  1  0.89124273  0.53560953  0.82887038  1
  N  N51  1  0.77335689  0.44216682  0.58262900  1
  N  N52  1  0.56116822  0.54375381  0.32419413  1
  N  N53  1  0.44761635  0.41977842  0.12639902  1
  N  N54  1  0.21176199  0.54495730  0.82494510  1
  N  N55  1  0.11215410  0.42679584  0.57398157  1
  N  N56  1  0.89236257  0.53277365  0.32401913  1
  N  N57  1  0.79300155  0.39689725  0.07586720  1
  N  N58  1  0.55401510  0.54247205  0.83610736  1
  N  N59  1  0.44973429  0.42048931  0.62530949  1
  N  N60  1  0.22242603  0.87416590  0.32836739  1
  N  N61  1  0.12540353  0.75542635  0.08174225  1
  N  N62  1  0.88134675  0.87744921  0.89844158  1
  N  N63  1  0.80228814  0.77457151  0.62494392  1
  N  N64  1  0.56082289  0.87293082  0.39476813  1
  N  N65  1  0.45439771  0.77877522  0.08236933  1
  N  N66  1  0.21956012  0.87261301  0.83245802  1
  N  N67  1  0.08014310  0.77989407  0.57967724  1
  N  N68  1  0.89113749  0.87157026  0.31055894  1
  N  N69  1  0.74024676  0.76916060  0.12053936  1
  N  N70  1  0.55571818  0.86669547  0.82676066  1
  N  N71  1  0.43393288  0.75888644  0.58158597  1
