# generated using pymatgen
data_Al11BN12
_symmetry_space_group_name_H-M   'P 1'
_cell_length_a   9.29474545
_cell_length_b   9.31270543
_cell_length_c   10.18166125
_cell_angle_alpha   90.11282334
_cell_angle_beta   89.69415159
_cell_angle_gamma   59.88032177
_symmetry_Int_Tables_number   1
_chemical_formula_structural   Al11BN12
_chemical_formula_sum   'Al33 B3 N36'
_cell_volume   762.29870065
_cell_formula_units_Z   3
loop_
 _symmetry_equiv_pos_site_id
 _symmetry_equiv_pos_as_xyz
  1  'x, y, z'
loop_
 _atom_site_type_symbol
 _atom_site_label
 _atom_site_symmetry_multiplicity
 _atom_site_fract_x
 _atom_site_fract_y
 _atom_site_fract_z
 _atom_site_occupancy
  Al  Al0  1  0.11684533  0.09306013  0.39511671  1
  Al  Al1  1  0.21344920  0.20412696  0.13528303  1
  Al  Al2  1  0.78098821  0.08360873  0.81795502  1
  Al  Al3  1  0.89058213  0.19862405  0.60004940  1
  Al  Al4  1  0.45370222  0.08391859  0.32313981  1
  Al  Al5  1  0.56406358  0.20057251  0.06571448  1
  Al  Al6  1  0.10189799  0.09773909  0.88602503  1
  Al  Al7  1  0.21574429  0.21076299  0.64189401  1
  Al  Al8  1  0.78378275  0.10030236  0.31453533  1
  Al  Al9  1  0.44922274  0.09107851  0.81560841  1
  Al  Al10  1  0.56055329  0.19842668  0.56270009  1
  Al  Al11  1  0.11254631  0.42701006  0.38798303  1
  Al  Al12  1  0.21679924  0.54146813  0.14267300  1
  Al  Al13  1  0.78061520  0.42278680  0.84960380  1
  Al  Al14  1  0.89639790  0.54189828  0.63619146  1
  Al  Al15  1  0.44917830  0.42237496  0.32081636  1
  Al  Al16  1  0.56521261  0.53733132  0.13355040  1
  Al  Al17  1  0.11094869  0.42867354  0.89097255  1
  Al  Al18  1  0.21081997  0.54700192  0.63505803  1
  Al  Al19  1  0.77758486  0.43044378  0.38663338  1
  Al  Al20  1  0.88735112  0.52765286  0.13533004  1
  Al  Al21  1  0.44475113  0.42005282  0.82108028  1
  Al  Al22  1  0.55169837  0.54680249  0.64068107  1
  Al  Al23  1  0.10091336  0.76902438  0.38506399  1
  Al  Al24  1  0.21894213  0.87962157  0.14236139  1
  Al  Al25  1  0.78004569  0.76880418  0.82720108  1
  Al  Al26  1  0.44106133  0.76019353  0.39521500  1
  Al  Al27  1  0.11481626  0.75907523  0.89720059  1
  Al  Al28  1  0.21385070  0.87634827  0.64517917  1
  Al  Al29  1  0.76894400  0.76718856  0.31860370  1
  Al  Al30  1  0.88632594  0.87794628  0.10010769  1
  Al  Al31  1  0.44550349  0.76637062  0.88929003  1
  Al  Al32  1  0.56004927  0.87494116  0.59445644  1
  B  B33  1  0.88487874  0.21006113  0.09947800  1
  B  B34  1  0.88875302  0.87158389  0.60453051  1
  B  B35  1  0.55539102  0.86896800  0.10301888  1
  N  N36  1  0.21937101  0.20682351  0.32307059  1
  N  N37  1  0.07924171  0.10903133  0.08008332  1
  N  N38  1  0.89087051  0.20183537  0.81344359  1
  N  N39  1  0.79057147  0.05829631  0.62335765  1
  N  N40  1  0.55967025  0.20223651  0.37545744  1
  N  N41  1  0.46477333  0.05921163  0.12455496  1
  N  N42  1  0.21575575  0.20800923  0.83404549  1
  N  N43  1  0.12311964  0.08991667  0.58098360  1
  N  N44  1  0.88607050  0.20242716  0.39201261  1
  N  N45  1  0.79104007  0.11814428  0.12207899  1
  N  N46  1  0.55715474  0.20158684  0.88057083  1
  N  N47  1  0.44417805  0.10272762  0.62632570  1
  N  N48  1  0.21718085  0.54379791  0.33354291  1
  N  N49  1  0.11141553  0.42835481  0.07749904  1
  N  N50  1  0.89323632  0.53711143  0.82777399  1
  N  N51  1  0.77397990  0.44011134  0.59012137  1
  N  N52  1  0.55886904  0.54479854  0.32525165  1
  N  N53  1  0.44757205  0.41957275  0.12590175  1
  N  N54  1  0.21202569  0.54476962  0.82554210  1
  N  N55  1  0.11308990  0.42654407  0.57397199  1
  N  N56  1  0.89301045  0.53462210  0.32551152  1
  N  N57  1  0.79488576  0.39487391  0.09127270  1
  N  N58  1  0.55219811  0.54304522  0.83577263  1
  N  N59  1  0.44871990  0.42012244  0.62533781  1
  N  N60  1  0.22213509  0.87433994  0.32862991  1
  N  N61  1  0.12553933  0.75546615  0.08203518  1
  N  N62  1  0.88181041  0.87696896  0.89835380  1
  N  N63  1  0.80183391  0.77556950  0.62424458  1
  N  N64  1  0.56031417  0.87347006  0.39485694  1
  N  N65  1  0.45484092  0.77883335  0.08258204  1
  N  N66  1  0.21993279  0.87255745  0.83309783  1
  N  N67  1  0.08005354  0.78003174  0.58026292  1
  N  N68  1  0.89144820  0.87140607  0.31173163  1
  N  N69  1  0.74031558  0.76989925  0.12071091  1
  N  N70  1  0.55579209  0.86629541  0.82558417  1
  N  N71  1  0.43290605  0.76004221  0.58141116  1
