# generated using pymatgen
data_Al11BN12
_symmetry_space_group_name_H-M   'P 1'
_cell_length_a   9.25607905
_cell_length_b   9.25578055
_cell_length_c   9.89708909
_cell_angle_alpha   89.97050174
_cell_angle_beta   89.96780466
_cell_angle_gamma   60.01826656
_symmetry_Int_Tables_number   1
_chemical_formula_structural   Al11BN12
_chemical_formula_sum   'Al33 B3 N36'
_cell_volume   734.44290593
_cell_formula_units_Z   3
loop_
 _symmetry_equiv_pos_site_id
 _symmetry_equiv_pos_as_xyz
  1  'x, y, z'
loop_
 _atom_site_type_symbol
 _atom_site_label
 _atom_site_symmetry_multiplicity
 _atom_site_fract_x
 _atom_site_fract_y
 _atom_site_fract_z
 _atom_site_occupancy
  Al  Al0  1  0.10602434  0.09677863  0.30559185  1
  Al  Al1  1  0.21984466  0.20267102  0.05996929  1
  Al  Al2  1  0.78177508  0.09065447  0.81191488  1
  Al  Al3  1  0.89050067  0.19999572  0.56148936  1
  Al  Al4  1  0.44732595  0.08864293  0.30517920  1
  Al  Al5  1  0.56251484  0.20196068  0.05976619  1
  Al  Al6  1  0.10836485  0.09553595  0.81657490  1
  Al  Al7  1  0.22323483  0.20332884  0.56030604  1
  Al  Al8  1  0.78158959  0.09411165  0.31218654  1
  Al  Al9  1  0.44583111  0.09214827  0.81712554  1
  Al  Al10  1  0.56023372  0.19827057  0.56011117  1
  Al  Al11  1  0.11110090  0.42769343  0.30967447  1
  Al  Al12  1  0.22070853  0.54103092  0.05913184  1
  Al  Al13  1  0.77903510  0.42483043  0.81624312  1
  Al  Al14  1  0.88884617  0.54287708  0.56025347  1
  Al  Al15  1  0.44431076  0.42751551  0.31016801  1
  Al  Al16  1  0.56073577  0.53679752  0.06005390  1
  Al  Al17  1  0.11061340  0.42783828  0.80962713  1
  Al  Al18  1  0.21724758  0.54217535  0.55995947  1
  Al  Al19  1  0.78068959  0.42244987  0.30579462  1
  Al  Al20  1  0.88458530  0.53899200  0.05988353  1
  Al  Al21  1  0.44476458  0.42788757  0.80931665  1
  Al  Al22  1  0.55692673  0.53936897  0.55976355  1
  Al  Al23  1  0.10824490  0.76262695  0.31716351  1
  Al  Al24  1  0.21863676  0.87672901  0.06029464  1
  Al  Al25  1  0.77779831  0.76503919  0.81264920  1
  Al  Al26  1  0.44724304  0.76415029  0.30586984  1
  Al  Al27  1  0.10544016  0.76420352  0.80552833  1
  Al  Al28  1  0.21850458  0.87456465  0.56061265  1
  Al  Al29  1  0.77388745  0.76522809  0.31230061  1
  Al  Al30  1  0.88508745  0.87794343  0.06146491  1
  Al  Al31  1  0.44576773  0.76220630  0.81727742  1
  Al  Al32  1  0.55974109  0.87349295  0.56181571  1
  B  B33  1  0.88884425  0.20463834  0.05751578  1
  B  B34  1  0.88808049  0.87312893  0.55860248  1
  B  B35  1  0.55615892  0.87279212  0.05690795  1
  N  N36  1  0.22353373  0.20303294  0.36568720  1
  N  N37  1  0.08534078  0.10698190  0.11179175  1
  N  N38  1  0.88800778  0.20430835  0.88953434  1
  N  N39  1  0.79095856  0.06970585  0.61550812  1
  N  N40  1  0.55620192  0.20300591  0.36650751  1
  N  N41  1  0.45689073  0.07001709  0.11085858  1
  N  N42  1  0.22165801  0.20624404  0.87040974  1
  N  N43  1  0.11002482  0.09510013  0.62417511  1
  N  N44  1  0.88938217  0.20567125  0.37336258  1
  N  N45  1  0.79101823  0.10596482  0.11643467  1
  N  N46  1  0.55793200  0.20528081  0.86846901  1
  N  N47  1  0.44470407  0.09310878  0.62433814  1
  N  N48  1  0.22232799  0.53827581  0.36985308  1
  N  N49  1  0.11051413  0.42830260  0.11836320  1
  N  N50  1  0.88782382  0.54089259  0.86856339  1
  N  N51  1  0.77934127  0.42519607  0.62285710  1
  N  N52  1  0.55677063  0.54002029  0.36568584  1
  N  N53  1  0.44378848  0.42788560  0.11854832  1
  N  N54  1  0.22097575  0.54131270  0.86647543  1
  N  N55  1  0.11111494  0.42643282  0.61827020  1
  N  N56  1  0.88697709  0.53967607  0.36665700  1
  N  N57  1  0.79082414  0.40216557  0.11184350  1
  N  N58  1  0.55548826  0.53836858  0.87028528  1
  N  N59  1  0.44503322  0.42684105  0.61703117  1
  N  N60  1  0.22370255  0.87362513  0.36713759  1
  N  N61  1  0.10837254  0.76231692  0.12438915  1
  N  N62  1  0.88949492  0.87213266  0.87377400  1
  N  N63  1  0.78951297  0.77389539  0.61592087  1
  N  N64  1  0.55504454  0.87262984  0.37362306  1
  N  N65  1  0.45630825  0.77398933  0.11132627  1
  N  N66  1  0.22064887  0.87067434  0.86911885  1
  N  N67  1  0.08599830  0.77418404  0.61091958  1
  N  N68  1  0.88678400  0.87342502  0.38872342  1
  N  N69  1  0.75366506  0.77478410  0.11584782  1
  N  N70  1  0.55757187  0.87148367  0.88970199  1
  N  N71  1  0.44563361  0.76206524  0.62337051  1
