# generated using pymatgen
data_Al11BN12
_symmetry_space_group_name_H-M   'P 1'
_cell_length_a   9.28949280
_cell_length_b   9.29139614
_cell_length_c   9.94587301
_cell_angle_alpha   90.00096427
_cell_angle_beta   89.76140007
_cell_angle_gamma   59.96362001
_symmetry_Int_Tables_number   1
_chemical_formula_structural   Al11BN12
_chemical_formula_sum   'Al33 B3 N36'
_cell_volume   743.15970185
_cell_formula_units_Z   3
loop_
 _symmetry_equiv_pos_site_id
 _symmetry_equiv_pos_as_xyz
  1  'x, y, z'
loop_
 _atom_site_type_symbol
 _atom_site_label
 _atom_site_symmetry_multiplicity
 _atom_site_fract_x
 _atom_site_fract_y
 _atom_site_fract_z
 _atom_site_occupancy
  Al  Al0  1  0.11046113  0.09423658  0.38183863  1
  Al  Al1  1  0.22141866  0.20477884  0.06665795  1
  Al  Al2  1  0.77735771  0.08604956  0.80236300  1
  Al  Al3  1  0.88836205  0.20317174  0.59305810  1
  Al  Al4  1  0.44825825  0.08836372  0.30702589  1
  Al  Al5  1  0.56375993  0.20243162  0.06312963  1
  Al  Al6  1  0.09598857  0.09901126  0.87226157  1
  Al  Al7  1  0.23018749  0.20840199  0.56478291  1
  Al  Al8  1  0.78257248  0.09406393  0.32542485  1
  Al  Al9  1  0.44518001  0.09148491  0.82113296  1
  Al  Al10  1  0.55915839  0.19866198  0.55977213  1
  Al  Al11  1  0.11228893  0.42909067  0.31144769  1
  Al  Al12  1  0.22118443  0.53906076  0.06028272  1
  Al  Al13  1  0.77562786  0.43159629  0.80516616  1
  Al  Al14  1  0.89010166  0.54687703  0.55902727  1
  Al  Al15  1  0.44377782  0.42854142  0.31257886  1
  Al  Al16  1  0.56331401  0.53286306  0.06297755  1
  Al  Al17  1  0.11022984  0.42583644  0.81273899  1
  Al  Al18  1  0.21831529  0.54324978  0.56353642  1
  Al  Al19  1  0.78084213  0.42306223  0.31877421  1
  Al  Al20  1  0.88564845  0.53656608  0.06354808  1
  Al  Al21  1  0.44692759  0.42592764  0.81213335  1
  Al  Al22  1  0.55451535  0.54333557  0.55921665  1
  Al  Al23  1  0.10772222  0.76126303  0.31801885  1
  Al  Al24  1  0.21864176  0.87338615  0.07909337  1
  Al  Al25  1  0.77834965  0.76344837  0.81531198  1
  Al  Al26  1  0.44964202  0.76419874  0.30565182  1
  Al  Al27  1  0.10472768  0.76256258  0.81293274  1
  Al  Al28  1  0.22237936  0.86819218  0.58314146  1
  Al  Al29  1  0.77364974  0.76590393  0.31365614  1
  Al  Al30  1  0.88427957  0.87871163  0.06409613  1
  Al  Al31  1  0.44608106  0.76148038  0.82558803  1
  Al  Al32  1  0.55953492  0.87383339  0.56550889  1
  B  B33  1  0.88876897  0.20473068  0.10621928  1
  B  B34  1  0.88224545  0.87476213  0.55939238  1
  B  B35  1  0.55847692  0.87072766  0.05839211  1
  N  N36  1  0.22797833  0.20841163  0.36729237  1
  N  N37  1  0.07359120  0.11280045  0.08193001  1
  N  N38  1  0.88604483  0.20412882  0.80986922  1
  N  N39  1  0.78591088  0.06314135  0.60985411  1
  N  N40  1  0.55453699  0.20413955  0.36780986  1
  N  N41  1  0.45832771  0.06893405  0.11376076  1
  N  N42  1  0.22199081  0.20556203  0.87489331  1
  N  N43  1  0.11964652  0.09197191  0.58120143  1
  N  N44  1  0.88205649  0.21012514  0.38449152  1
  N  N45  1  0.79333604  0.10806443  0.12559825  1
  N  N46  1  0.55881425  0.20348112  0.87269773  1
  N  N47  1  0.44712527  0.09333068  0.62917846  1
  N  N48  1  0.22257625  0.53906907  0.37364267  1
  N  N49  1  0.11036524  0.42851274  0.12135222  1
  N  N50  1  0.88709228  0.53914058  0.87278936  1
  N  N51  1  0.77330405  0.44220115  0.61496210  1
  N  N52  1  0.55403952  0.54264694  0.36680337  1
  N  N53  1  0.44349782  0.42784893  0.12117086  1
  N  N54  1  0.22198928  0.53820640  0.86923657  1
  N  N55  1  0.11084277  0.42911724  0.62226344  1
  N  N56  1  0.88875031  0.54161577  0.36670102  1
  N  N57  1  0.79317843  0.39657066  0.12115984  1
  N  N58  1  0.55807613  0.53576214  0.87424989  1
  N  N59  1  0.44723768  0.42655253  0.61971163  1
  N  N60  1  0.22558618  0.86966217  0.34954800  1
  N  N61  1  0.10473441  0.75869522  0.12563499  1
  N  N62  1  0.88669968  0.87384901  0.87717753  1
  N  N63  1  0.78955971  0.77399253  0.61834174  1
  N  N64  1  0.55502614  0.87304950  0.37711836  1
  N  N65  1  0.46170135  0.77065831  0.11212568  1
  N  N66  1  0.22115884  0.86735638  0.87496383  1
  N  N67  1  0.08671920  0.77304432  0.61768313  1
  N  N68  1  0.88795064  0.87043047  0.39074031  1
  N  N69  1  0.75373546  0.77457993  0.11784133  1
  N  N70  1  0.55864801  0.87095042  0.89272647  1
  N  N71  1  0.44764666  0.76170510  0.63079533  1
