# generated using pymatgen
data_Al11BN12
_symmetry_space_group_name_H-M   'P 1'
_cell_length_a   9.27856540
_cell_length_b   9.28856035
_cell_length_c   9.94862202
_cell_angle_alpha   90.00593340
_cell_angle_beta   89.79996390
_cell_angle_gamma   59.96426311
_symmetry_Int_Tables_number   1
_chemical_formula_structural   Al11BN12
_chemical_formula_sum   'Al33 B3 N36'
_cell_volume   742.27128045
_cell_formula_units_Z   3
loop_
 _symmetry_equiv_pos_site_id
 _symmetry_equiv_pos_as_xyz
  1  'x, y, z'
loop_
 _atom_site_type_symbol
 _atom_site_label
 _atom_site_symmetry_multiplicity
 _atom_site_fract_x
 _atom_site_fract_y
 _atom_site_fract_z
 _atom_site_occupancy
  Al  Al0  1  0.10894905  0.09612338  0.38085257  1
  Al  Al1  1  0.21930447  0.20411745  0.06583467  1
  Al  Al2  1  0.77729553  0.08589707  0.80335775  1
  Al  Al3  1  0.88752459  0.20323920  0.59374466  1
  Al  Al4  1  0.44813266  0.08802437  0.30695754  1
  Al  Al5  1  0.56402526  0.20229921  0.06338242  1
  Al  Al6  1  0.10113376  0.09818414  0.85238532  1
  Al  Al7  1  0.22997365  0.20788756  0.56640271  1
  Al  Al8  1  0.78242924  0.09358783  0.32522766  1
  Al  Al9  1  0.44599029  0.09155821  0.82128447  1
  Al  Al10  1  0.55955218  0.19801291  0.56013645  1
  Al  Al11  1  0.11216324  0.42863822  0.31131746  1
  Al  Al12  1  0.22133739  0.54030075  0.06096623  1
  Al  Al13  1  0.77483675  0.43263011  0.80613704  1
  Al  Al14  1  0.88998527  0.54676385  0.55949307  1
  Al  Al15  1  0.44404783  0.42766498  0.31247812  1
  Al  Al16  1  0.56251394  0.53394229  0.06361795  1
  Al  Al17  1  0.11000736  0.42799448  0.81317566  1
  Al  Al18  1  0.21834898  0.54249695  0.56340948  1
  Al  Al19  1  0.78074485  0.42285283  0.31844481  1
  Al  Al20  1  0.88550138  0.53656346  0.06373931  1
  Al  Al21  1  0.44686888  0.42642875  0.81247277  1
  Al  Al22  1  0.55493693  0.54262730  0.55924623  1
  Al  Al23  1  0.10845493  0.76105498  0.31954552  1
  Al  Al24  1  0.21786595  0.87485112  0.06715011  1
  Al  Al25  1  0.77834169  0.76383723  0.81604898  1
  Al  Al26  1  0.44736577  0.76450015  0.30735504  1
  Al  Al27  1  0.10505360  0.76385973  0.80915361  1
  Al  Al28  1  0.22387494  0.86506730  0.56701752  1
  Al  Al29  1  0.77327436  0.76560297  0.31371577  1
  Al  Al30  1  0.88572686  0.87866535  0.06494627  1
  Al  Al31  1  0.44571075  0.76178270  0.82155219  1
  Al  Al32  1  0.55949573  0.87329587  0.56552977  1
  B  B33  1  0.89126105  0.20324768  0.10620750  1
  B  B34  1  0.88345931  0.87373710  0.55987058  1
  B  B35  1  0.55670915  0.87217805  0.05908383  1
  N  N36  1  0.22777695  0.20778380  0.36877579  1
  N  N37  1  0.07576409  0.11123665  0.08817515  1
  N  N38  1  0.88358867  0.20574345  0.81233163  1
  N  N39  1  0.78636251  0.06251654  0.61071695  1
  N  N40  1  0.55446449  0.20359840  0.36812867  1
  N  N41  1  0.45764827  0.06934647  0.11362204  1
  N  N42  1  0.22207303  0.20685082  0.87405744  1
  N  N43  1  0.11975391  0.09139829  0.58919336  1
  N  N44  1  0.88148084  0.21000807  0.38627349  1
  N  N45  1  0.79367108  0.10777074  0.12604327  1
  N  N46  1  0.55866468  0.20389386  0.87311831  1
  N  N47  1  0.44761670  0.09271546  0.62956886  1
  N  N48  1  0.22278008  0.53807754  0.37346893  1
  N  N49  1  0.11069164  0.42879993  0.12114312  1
  N  N50  1  0.88698635  0.53968517  0.87318324  1
  N  N51  1  0.77341529  0.44198928  0.61580955  1
  N  N52  1  0.55404508  0.54199370  0.36670202  1
  N  N53  1  0.44385498  0.42749882  0.12130216  1
  N  N54  1  0.22166719  0.54049025  0.86954815  1
  N  N55  1  0.11086894  0.42902923  0.62283024  1
  N  N56  1  0.88870423  0.54122796  0.36712505  1
  N  N57  1  0.79343721  0.39653268  0.12136499  1
  N  N58  1  0.55689655  0.53757847  0.87464008  1
  N  N59  1  0.44743493  0.42600920  0.62000089  1
  N  N60  1  0.22723831  0.86544879  0.36997939  1
  N  N61  1  0.10784725  0.76086683  0.12758018  1
  N  N62  1  0.88819957  0.87330120  0.87770009  1
  N  N63  1  0.78955025  0.77370169  0.61883306  1
  N  N64  1  0.55444457  0.87284585  0.37704594  1
  N  N65  1  0.45716048  0.77315789  0.11394156  1
  N  N66  1  0.22120385  0.86833734  0.87365370  1
  N  N67  1  0.08661974  0.77282980  0.61592049  1
  N  N68  1  0.88776630  0.87016665  0.39043936  1
  N  N69  1  0.75350257  0.77465595  0.11804527  1
  N  N70  1  0.55758672  0.87099817  0.89292249  1
  N  N71  1  0.44648786  0.76157210  0.62876950  1
