# generated using pymatgen
data_Al11BN12
_symmetry_space_group_name_H-M   'P 1'
_cell_length_a   9.28794982
_cell_length_b   9.27524748
_cell_length_c   10.01357943
_cell_angle_alpha   90.04914772
_cell_angle_beta   89.75508572
_cell_angle_gamma   59.90655088
_symmetry_Int_Tables_number   1
_chemical_formula_structural   Al11BN12
_chemical_formula_sum   'Al33 B3 N36'
_cell_volume   746.36117270
_cell_formula_units_Z   3
loop_
 _symmetry_equiv_pos_site_id
 _symmetry_equiv_pos_as_xyz
  1  'x, y, z'
loop_
 _atom_site_type_symbol
 _atom_site_label
 _atom_site_symmetry_multiplicity
 _atom_site_fract_x
 _atom_site_fract_y
 _atom_site_fract_z
 _atom_site_occupancy
  Al  Al0  1  0.11365336  0.08895147  0.38819563  1
  Al  Al1  1  0.22228953  0.20485907  0.06676898  1
  Al  Al2  1  0.77694258  0.08676463  0.80363522  1
  Al  Al3  1  0.88901466  0.20241888  0.59380463  1
  Al  Al4  1  0.44800347  0.08914649  0.30870457  1
  Al  Al5  1  0.56330294  0.20278263  0.06428804  1
  Al  Al6  1  0.09536517  0.09661533  0.87885895  1
  Al  Al7  1  0.23076336  0.20811571  0.56577694  1
  Al  Al8  1  0.78264745  0.09406762  0.32712243  1
  Al  Al9  1  0.44490364  0.09160629  0.82234621  1
  Al  Al10  1  0.55927247  0.19909366  0.56156141  1
  Al  Al11  1  0.11262786  0.42800224  0.31306170  1
  Al  Al12  1  0.22100257  0.53945183  0.06199113  1
  Al  Al13  1  0.77590351  0.43093508  0.80624017  1
  Al  Al14  1  0.89027391  0.54644230  0.56082233  1
  Al  Al15  1  0.44416322  0.42837670  0.31395186  1
  Al  Al16  1  0.56231260  0.53390660  0.06430743  1
  Al  Al17  1  0.11014406  0.42435837  0.81395341  1
  Al  Al18  1  0.21773920  0.54470902  0.56478582  1
  Al  Al19  1  0.78227366  0.42169740  0.32031585  1
  Al  Al20  1  0.88579128  0.53643707  0.06477348  1
  Al  Al21  1  0.44640044  0.42624424  0.81341251  1
  Al  Al22  1  0.55440673  0.54412182  0.56081483  1
  Al  Al23  1  0.10626196  0.76029704  0.32118159  1
  Al  Al24  1  0.21457549  0.88187462  0.12552985  1
  Al  Al25  1  0.77722336  0.76348565  0.81657860  1
  Al  Al26  1  0.45433447  0.76239718  0.30855889  1
  Al  Al27  1  0.10005904  0.75871578  0.81415028  1
  Al  Al28  1  0.21830445  0.87720169  0.63704894  1
  Al  Al29  1  0.77459867  0.76566768  0.31508735  1
  Al  Al30  1  0.88395876  0.87849334  0.06532580  1
  Al  Al31  1  0.45078958  0.75928557  0.82716210  1
  Al  Al32  1  0.56045655  0.87372416  0.56670074  1
  B  B33  1  0.88731167  0.20495867  0.10667947  1
  B  B34  1  0.88487627  0.87328617  0.56260901  1
  B  B35  1  0.55824090  0.87059946  0.06059079  1
  N  N36  1  0.22822546  0.20765114  0.36995873  1
  N  N37  1  0.07344633  0.11122634  0.07857543  1
  N  N38  1  0.88695000  0.20360571  0.81207009  1
  N  N39  1  0.78602376  0.06355317  0.61212036  1
  N  N40  1  0.55474728  0.20435987  0.37026821  1
  N  N41  1  0.45800750  0.06941045  0.11612900  1
  N  N42  1  0.22194551  0.20441155  0.87692511  1
  N  N43  1  0.12136674  0.08901370  0.57848078  1
  N  N44  1  0.88384289  0.20853926  0.38566057  1
  N  N45  1  0.79293127  0.10818658  0.12740415  1
  N  N46  1  0.55836282  0.20379684  0.87478791  1
  N  N47  1  0.44727090  0.09363955  0.63132865  1
  N  N48  1  0.22315499  0.53879902  0.37577954  1
  N  N49  1  0.11047703  0.42799418  0.12369057  1
  N  N50  1  0.88690666  0.53890988  0.87477342  1
  N  N51  1  0.77398634  0.44092184  0.61687650  1
  N  N52  1  0.55461792  0.54211921  0.36912714  1
  N  N53  1  0.44331884  0.42830412  0.12350895  1
  N  N54  1  0.22174827  0.53696425  0.87203362  1
  N  N55  1  0.11121084  0.42883000  0.62442255  1
  N  N56  1  0.88908180  0.54126441  0.36907326  1
  N  N57  1  0.79331795  0.39627915  0.12298382  1
  N  N58  1  0.55819325  0.53505977  0.87677727  1
  N  N59  1  0.44659943  0.42770256  0.62200176  1
  N  N60  1  0.22291626  0.87630842  0.31973636  1
  N  N61  1  0.10293340  0.75813929  0.12609581  1
  N  N62  1  0.88457486  0.87456023  0.87953641  1
  N  N63  1  0.78980510  0.77375470  0.62053611  1
  N  N64  1  0.55596426  0.87367399  0.37903963  1
  N  N65  1  0.46250394  0.77094329  0.11281976  1
  N  N66  1  0.21813955  0.87178167  0.83553634  1
  N  N67  1  0.08354300  0.77341364  0.61805938  1
  N  N68  1  0.88795060  0.87063141  0.39265882  1
  N  N69  1  0.75370490  0.77434198  0.11998998  1
  N  N70  1  0.55840606  0.87147709  0.89555853  1
  N  N71  1  0.45304763  0.76040084  0.63138013  1
