# generated using pymatgen
data_Al11BN12
_symmetry_space_group_name_H-M   'P 1'
_cell_length_a   9.25607768
_cell_length_b   9.25577890
_cell_length_c   9.89709677
_cell_angle_alpha   89.97050901
_cell_angle_beta   89.96782039
_cell_angle_gamma   60.01828602
_symmetry_Int_Tables_number   1
_chemical_formula_structural   Al11BN12
_chemical_formula_sum   'Al33 B3 N36'
_cell_volume   734.44338124
_cell_formula_units_Z   3
loop_
 _symmetry_equiv_pos_site_id
 _symmetry_equiv_pos_as_xyz
  1  'x, y, z'
loop_
 _atom_site_type_symbol
 _atom_site_label
 _atom_site_symmetry_multiplicity
 _atom_site_fract_x
 _atom_site_fract_y
 _atom_site_fract_z
 _atom_site_occupancy
  Al  Al0  1  0.10602504  0.09678220  0.30036122  1
  Al  Al1  1  0.21984682  0.20267392  0.05473948  1
  Al  Al2  1  0.78177672  0.09065753  0.80668777  1
  Al  Al3  1  0.89050191  0.19999901  0.55626124  1
  Al  Al4  1  0.44732848  0.08864532  0.29994965  1
  Al  Al5  1  0.56251604  0.20196403  0.05453585  1
  Al  Al6  1  0.10836739  0.09553939  0.81133930  1
  Al  Al7  1  0.22323634  0.20333307  0.55507180  1
  Al  Al8  1  0.78159156  0.09411531  0.30695854  1
  Al  Al9  1  0.44583223  0.09215231  0.81189090  1
  Al  Al10  1  0.56023635  0.19827365  0.55487949  1
  Al  Al11  1  0.11110296  0.42769772  0.30444221  1
  Al  Al12  1  0.22071131  0.54103330  0.05389577  1
  Al  Al13  1  0.77903592  0.42483478  0.81100743  1
  Al  Al14  1  0.88884826  0.54288107  0.55502197  1
  Al  Al15  1  0.44431135  0.42751912  0.30493717  1
  Al  Al16  1  0.56073769  0.53680074  0.05482397  1
  Al  Al17  1  0.11061493  0.42784078  0.80439531  1
  Al  Al18  1  0.21724841  0.54217985  0.55472990  1
  Al  Al19  1  0.78069238  0.42245206  0.30056318  1
  Al  Al20  1  0.88458693  0.53899492  0.05465300  1
  Al  Al21  1  0.44476766  0.42789081  0.80408241  1
  Al  Al22  1  0.55692835  0.53937248  0.55452748  1
  Al  Al23  1  0.10824743  0.76262940  0.31192798  1
  Al  Al24  1  0.21863897  0.87673338  0.05506353  1
  Al  Al25  1  0.77780037  0.76504267  0.80742241  1
  Al  Al26  1  0.44724486  0.76415466  0.30063812  1
  Al  Al27  1  0.10544072  0.76420842  0.80029904  1
  Al  Al28  1  0.21850555  0.87456737  0.55538050  1
  Al  Al29  1  0.77388884  0.76523146  0.30707270  1
  Al  Al30  1  0.88508848  0.87794699  0.05623861  1
  Al  Al31  1  0.44576939  0.76220904  0.81204254  1
  Al  Al32  1  0.55974362  0.87349574  0.55658758  1
  B  B33  1  0.88884656  0.20464241  0.05228444  1
  B  B34  1  0.88808337  0.87313184  0.55337289  1
  B  B35  1  0.55615940  0.87279607  0.05167713  1
  N  N36  1  0.22353524  0.20303683  0.36045360  1
  N  N37  1  0.08534201  0.10698567  0.10656093  1
  N  N38  1  0.88801012  0.20431253  0.88430120  1
  N  N39  1  0.79096035  0.06970885  0.61027888  1
  N  N40  1  0.55620364  0.20300942  0.36127598  1
  N  N41  1  0.45689261  0.07001998  0.10562862  1
  N  N42  1  0.22166011  0.20624685  0.86517835  1
  N  N43  1  0.11002771  0.09510335  0.61894046  1
  N  N44  1  0.88938381  0.20567475  0.36813385  1
  N  N45  1  0.79101971  0.10596891  0.11120490  1
  N  N46  1  0.55793265  0.20528472  0.86323749  1
  N  N47  1  0.44470505  0.09311309  0.61910425  1
  N  N48  1  0.22232913  0.53828010  0.36462248  1
  N  N49  1  0.11051634  0.42830660  0.11313052  1
  N  N50  1  0.88782554  0.54089519  0.86333203  1
  N  N51  1  0.77934207  0.42520077  0.61762269  1
  N  N52  1  0.55677252  0.54002376  0.36045095  1
  N  N53  1  0.44378941  0.42788912  0.11331681  1
  N  N54  1  0.22097821  0.54131557  0.86123984  1
  N  N55  1  0.11111665  0.42643566  0.61303807  1
  N  N56  1  0.88697940  0.53967897  0.36142514  1
  N  N57  1  0.79082645  0.40216831  0.10661233  1
  N  N58  1  0.55549017  0.53837210  0.86505367  1
  N  N59  1  0.44503583  0.42684446  0.61179685  1
  N  N60  1  0.22370400  0.87362797  0.36190472  1
  N  N61  1  0.10837602  0.76231891  0.11915460  1
  N  N62  1  0.88949654  0.87213617  0.86854696  1
  N  N63  1  0.78951537  0.77389856  0.61069174  1
  N  N64  1  0.55504638  0.87263291  0.36839441  1
  N  N65  1  0.45630985  0.77399329  0.10609496  1
  N  N66  1  0.22065105  0.87067855  0.86388663  1
  N  N67  1  0.08599935  0.77418824  0.60568998  1
  N  N68  1  0.88678703  0.87342774  0.38349222  1
  N  N69  1  0.75366639  0.77478694  0.11061832  1
  N  N70  1  0.55757243  0.87148773  0.88446957  1
  N  N71  1  0.44563491  0.76206780  0.61813629  1
