# generated using pymatgen
data_Al11BN12
_symmetry_space_group_name_H-M   'P 1'
_cell_length_a   9.29540118
_cell_length_b   9.29683472
_cell_length_c   10.05933450
_cell_angle_alpha   89.98570507
_cell_angle_beta   89.69751555
_cell_angle_gamma   59.80306827
_symmetry_Int_Tables_number   1
_chemical_formula_structural   Al11BN12
_chemical_formula_sum   'Al33 B3 N36'
_cell_volume   751.32899555
_cell_formula_units_Z   3
loop_
 _symmetry_equiv_pos_site_id
 _symmetry_equiv_pos_as_xyz
  1  'x, y, z'
loop_
 _atom_site_type_symbol
 _atom_site_label
 _atom_site_symmetry_multiplicity
 _atom_site_fract_x
 _atom_site_fract_y
 _atom_site_fract_z
 _atom_site_occupancy
  Al  Al0  1  0.11269727  0.08622001  0.39785751  1
  Al  Al1  1  0.22406487  0.20608201  0.07537136  1
  Al  Al2  1  0.77845713  0.08765654  0.82327737  1
  Al  Al3  1  0.88953847  0.20083840  0.60461638  1
  Al  Al4  1  0.44899531  0.08836572  0.31803925  1
  Al  Al5  1  0.56348543  0.20358580  0.07029596  1
  Al  Al6  1  0.09550763  0.10238959  0.88780100  1
  Al  Al7  1  0.23043347  0.20625638  0.57408316  1
  Al  Al8  1  0.78031990  0.09891422  0.32339405  1
  Al  Al9  1  0.44536492  0.09176493  0.83003076  1
  Al  Al10  1  0.56131303  0.19596136  0.57123856  1
  Al  Al11  1  0.11136401  0.42782451  0.32351293  1
  Al  Al12  1  0.23015273  0.52766141  0.07147281  1
  Al  Al13  1  0.77553066  0.43226247  0.81391500  1
  Al  Al14  1  0.89027655  0.54729748  0.57114498  1
  Al  Al15  1  0.44504339  0.42720190  0.32436684  1
  Al  Al16  1  0.56268904  0.53417245  0.07324715  1
  Al  Al17  1  0.11160491  0.42585423  0.82043575  1
  Al  Al18  1  0.21319506  0.54900035  0.57338954  1
  Al  Al19  1  0.78259033  0.42112581  0.33051194  1
  Al  Al20  1  0.88648407  0.53325830  0.07118030  1
  Al  Al21  1  0.44679411  0.42662369  0.81953272  1
  Al  Al22  1  0.55283476  0.54494956  0.56896972  1
  Al  Al23  1  0.10962416  0.75775499  0.31375641  1
  Al  Al24  1  0.21871315  0.88664537  0.12846245  1
  Al  Al25  1  0.77886045  0.76347419  0.83662625  1
  Al  Al26  1  0.45265444  0.76263526  0.31597106  1
  Al  Al27  1  0.10670829  0.76287653  0.88286123  1
  Al  Al28  1  0.21001787  0.87565562  0.65325283  1
  Al  Al29  1  0.76941946  0.76104362  0.31235091  1
  Al  Al30  1  0.87936203  0.87975330  0.10032928  1
  Al  Al31  1  0.45163828  0.75908180  0.83441089  1
  Al  Al32  1  0.55964176  0.87296607  0.57686805  1
  B  B33  1  0.88538128  0.21068120  0.11100079  1
  B  B34  1  0.88987750  0.86847142  0.62148346  1
  B  B35  1  0.55990182  0.86390234  0.06650271  1
  N  N36  1  0.22754194  0.20629352  0.37943821  1
  N  N37  1  0.07340889  0.11606272  0.08475565  1
  N  N38  1  0.88775884  0.20490484  0.81961764  1
  N  N39  1  0.78873177  0.05791898  0.62852095  1
  N  N40  1  0.55622386  0.20310289  0.38083488  1
  N  N41  1  0.45981701  0.06974549  0.12545868  1
  N  N42  1  0.22324568  0.20702283  0.88544851  1
  N  N43  1  0.12207322  0.08550485  0.58775373  1
  N  N44  1  0.88152026  0.20692356  0.39657901  1
  N  N45  1  0.78966219  0.12054406  0.12641383  1
  N  N46  1  0.55634861  0.20570178  0.88214844  1
  N  N47  1  0.44728192  0.09270555  0.63970815  1
  N  N48  1  0.22092988  0.54200110  0.38198225  1
  N  N49  1  0.11018043  0.42890916  0.13449799  1
  N  N50  1  0.88956779  0.53599102  0.88259713  1
  N  N51  1  0.77292963  0.44174461  0.62551355  1
  N  N52  1  0.55373263  0.54280003  0.37793928  1
  N  N53  1  0.44742646  0.42549845  0.13469933  1
  N  N54  1  0.22598311  0.53162813  0.88250088  1
  N  N55  1  0.11189135  0.42791825  0.63177796  1
  N  N56  1  0.88769850  0.54214670  0.38036975  1
  N  N57  1  0.79347615  0.39978657  0.13281575  1
  N  N58  1  0.55790150  0.53522446  0.88559361  1
  N  N59  1  0.44552674  0.42773638  0.62893789  1
  N  N60  1  0.22029580  0.87739947  0.32118759  1
  N  N61  1  0.11953533  0.75536723  0.10544294  1
  N  N62  1  0.87923943  0.87861883  0.90260396  1
  N  N63  1  0.79114690  0.77419569  0.63838008  1
  N  N64  1  0.55604911  0.87175055  0.38885250  1
  N  N65  1  0.46136344  0.77148122  0.11996486  1
  N  N66  1  0.21834741  0.87596475  0.84785751  1
  N  N67  1  0.07572772  0.77637502  0.62510115  1
  N  N68  1  0.88425961  0.87208034  0.31599143  1
  N  N69  1  0.74730856  0.76433926  0.12085851  1
  N  N70  1  0.55590407  0.87222554  0.90296929  1
  N  N71  1  0.44855970  0.76087236  0.64061223  1
