# generated using pymatgen
data_Al11BN12
_symmetry_space_group_name_H-M   'P 1'
_cell_length_a   9.27514867
_cell_length_b   9.26142452
_cell_length_c   10.15830209
_cell_angle_alpha   90.19399746
_cell_angle_beta   89.65797314
_cell_angle_gamma   59.90285588
_symmetry_Int_Tables_number   1
_chemical_formula_structural   Al11BN12
_chemical_formula_sum   'Al33 B3 N36'
_cell_volume   754.92693905
_cell_formula_units_Z   3
loop_
 _symmetry_equiv_pos_site_id
 _symmetry_equiv_pos_as_xyz
  1  'x, y, z'
loop_
 _atom_site_type_symbol
 _atom_site_label
 _atom_site_symmetry_multiplicity
 _atom_site_fract_x
 _atom_site_fract_y
 _atom_site_fract_z
 _atom_site_occupancy
  Al  Al0  1  0.11526135  0.09427565  0.39872594  1
  Al  Al1  1  0.21107536  0.20663573  0.13791574  1
  Al  Al2  1  0.78233037  0.08123481  0.81860374  1
  Al  Al3  1  0.89018916  0.20331390  0.61019598  1
  Al  Al4  1  0.45463959  0.08127348  0.32306331  1
  Al  Al5  1  0.56796199  0.19286441  0.07016544  1
  Al  Al6  1  0.10103011  0.09861766  0.88614697  1
  Al  Al7  1  0.21475205  0.21244394  0.64573283  1
  Al  Al8  1  0.78257630  0.10270191  0.31700991  1
  Al  Al9  1  0.45117762  0.09246100  0.81746224  1
  Al  Al10  1  0.56574229  0.18965020  0.56412112  1
  Al  Al11  1  0.11120064  0.42626976  0.39257539  1
  Al  Al12  1  0.22484719  0.53740402  0.14854328  1
  Al  Al13  1  0.78027689  0.42177206  0.88431763  1
  Al  Al14  1  0.89040869  0.54838951  0.64731032  1
  Al  Al15  1  0.44357275  0.43323976  0.39115325  1
  Al  Al16  1  0.56125505  0.53478825  0.14120883  1
  Al  Al17  1  0.11062310  0.43020443  0.89473594  1
  Al  Al18  1  0.21859155  0.54190249  0.63991403  1
  Al  Al19  1  0.77475836  0.43372875  0.40020226  1
  Al  Al20  1  0.88300552  0.53578332  0.14454950  1
  Al  Al21  1  0.44055453  0.43183988  0.89292596  1
  Al  Al22  1  0.55262450  0.54010702  0.64892051  1
  Al  Al23  1  0.10214206  0.76886996  0.38500748  1
  Al  Al24  1  0.21969102  0.87987918  0.14426874  1
  Al  Al25  1  0.76940035  0.76345216  0.89490453  1
  Al  Al26  1  0.44104427  0.75977473  0.39861842  1
  Al  Al27  1  0.11450242  0.75895313  0.90008069  1
  Al  Al28  1  0.21355526  0.87490079  0.64659804  1
  Al  Al29  1  0.78341768  0.76414287  0.38848467  1
  Al  Al30  1  0.88962749  0.87508422  0.11012679  1
  Al  Al31  1  0.44510867  0.76675160  0.88749964  1
  Al  Al32  1  0.55750611  0.87203540  0.60777282  1
  B  B33  1  0.88582812  0.20933310  0.09967935  1
  B  B34  1  0.89097931  0.86912533  0.60095383  1
  B  B35  1  0.55473183  0.86792447  0.10360174  1
  N  N36  1  0.21904834  0.20661777  0.32545201  1
  N  N37  1  0.07769292  0.11063749  0.08158274  1
  N  N38  1  0.88786106  0.20720430  0.81572466  1
  N  N39  1  0.79282751  0.05575914  0.62548716  1
  N  N40  1  0.56028597  0.19894671  0.37403638  1
  N  N41  1  0.46473476  0.05815114  0.12543772  1
  N  N42  1  0.21714413  0.20790397  0.83854559  1
  N  N43  1  0.12236215  0.09055280  0.58503054  1
  N  N44  1  0.88570640  0.20439212  0.39288860  1
  N  N45  1  0.79163401  0.11951414  0.12550948  1
  N  N46  1  0.56173837  0.19726179  0.88283406  1
  N  N47  1  0.44305362  0.10354233  0.62964242  1
  N  N48  1  0.22157188  0.54004723  0.33567300  1
  N  N49  1  0.10892872  0.43200112  0.08294362  1
  N  N50  1  0.88919876  0.54066517  0.83586614  1
  N  N51  1  0.77184084  0.44509846  0.58821905  1
  N  N52  1  0.55721412  0.53990096  0.32767046  1
  N  N53  1  0.44333747  0.42901247  0.08402924  1
  N  N54  1  0.22133462  0.54007728  0.82849046  1
  N  N55  1  0.10969404  0.42934637  0.58061001  1
  N  N56  1  0.88840992  0.53865309  0.33115594  1
  N  N57  1  0.79242834  0.39927139  0.08059524  1
  N  N58  1  0.55394543  0.53950531  0.83764918  1
  N  N59  1  0.44596568  0.42884391  0.58178522  1
  N  N60  1  0.22207708  0.87466849  0.33089045  1
  N  N61  1  0.12676210  0.75418765  0.08653639  1
  N  N62  1  0.88538700  0.87624575  0.89900363  1
  N  N63  1  0.80237127  0.77215892  0.58435971  1
  N  N64  1  0.55552096  0.87305257  0.39334334  1
  N  N65  1  0.45476495  0.77815668  0.08368370  1
  N  N66  1  0.21965873  0.87274499  0.83510524  1
  N  N67  1  0.08191980  0.77766910  0.58198973  1
  N  N68  1  0.88912136  0.86920018  0.31227292  1
  N  N69  1  0.74192514  0.76802584  0.08927711  1
  N  N70  1  0.56206779  0.86201174  0.81863232  1
  N  N71  1  0.43343787  0.75634986  0.58633538  1
