# generated using pymatgen
data_Al11BN12
_symmetry_space_group_name_H-M   'P 1'
_cell_length_a   9.26504172
_cell_length_b   9.27225780
_cell_length_c   9.93722187
_cell_angle_alpha   89.99842179
_cell_angle_beta   89.91788239
_cell_angle_gamma   59.96529826
_symmetry_Int_Tables_number   1
_chemical_formula_structural   Al11BN12
_chemical_formula_sum   'Al33 B3 N36'
_cell_volume   739.05360887
_cell_formula_units_Z   3
loop_
 _symmetry_equiv_pos_site_id
 _symmetry_equiv_pos_as_xyz
  1  'x, y, z'
loop_
 _atom_site_type_symbol
 _atom_site_label
 _atom_site_symmetry_multiplicity
 _atom_site_fract_x
 _atom_site_fract_y
 _atom_site_fract_z
 _atom_site_occupancy
  Al  Al0  1  0.10677167  0.09666873  0.32758056  1
  Al  Al1  1  0.21744937  0.20276366  0.06389985  1
  Al  Al2  1  0.77907725  0.08772768  0.80572208  1
  Al  Al3  1  0.88927291  0.20214991  0.58470405  1
  Al  Al4  1  0.44778363  0.08807930  0.30742825  1
  Al  Al5  1  0.56352573  0.20235329  0.06358268  1
  Al  Al6  1  0.11039188  0.09426281  0.80910856  1
  Al  Al7  1  0.22692866  0.20487955  0.56328165  1
  Al  Al8  1  0.78207184  0.09321791  0.32698604  1
  Al  Al9  1  0.44535879  0.09209975  0.82177905  1
  Al  Al10  1  0.55880523  0.19814278  0.56173035  1
  Al  Al11  1  0.11233076  0.42810727  0.31180952  1
  Al  Al12  1  0.22124625  0.54052409  0.06111991  1
  Al  Al13  1  0.77658487  0.42945722  0.80853080  1
  Al  Al14  1  0.89008437  0.54632816  0.56063739  1
  Al  Al15  1  0.44389987  0.42760807  0.31272880  1
  Al  Al16  1  0.56194093  0.53456719  0.06381447  1
  Al  Al17  1  0.10996524  0.42740824  0.81356807  1
  Al  Al18  1  0.21807363  0.54236148  0.56404568  1
  Al  Al19  1  0.78044636  0.42328773  0.32014594  1
  Al  Al20  1  0.88555603  0.53679735  0.06383363  1
  Al  Al21  1  0.44686545  0.42655884  0.81288570  1
  Al  Al22  1  0.55450756  0.54269725  0.56070760  1
  Al  Al23  1  0.10869602  0.76117050  0.31983254  1
  Al  Al24  1  0.21602919  0.87846729  0.06449239  1
  Al  Al25  1  0.77800757  0.76423293  0.81653314  1
  Al  Al26  1  0.44703270  0.76457224  0.30778519  1
  Al  Al27  1  0.10485784  0.76503279  0.80941933  1
  Al  Al28  1  0.22103638  0.87060013  0.56356133  1
  Al  Al29  1  0.77324640  0.76551844  0.31398849  1
  Al  Al30  1  0.88589437  0.87849609  0.06516240  1
  Al  Al31  1  0.44516329  0.76209787  0.82182945  1
  Al  Al32  1  0.55938536  0.87332961  0.56587341  1
  B  B33  1  0.88988597  0.20401217  0.10886024  1
  B  B34  1  0.88482945  0.87316484  0.56075949  1
  B  B35  1  0.55605648  0.87256165  0.05928115  1
  N  N36  1  0.22570957  0.20517397  0.36970677  1
  N  N37  1  0.08063446  0.10915782  0.12397860  1
  N  N38  1  0.88535084  0.20508141  0.82955457  1
  N  N39  1  0.78729495  0.06390071  0.61161888  1
  N  N40  1  0.55425932  0.20369456  0.36907459  1
  N  N41  1  0.45669405  0.06979529  0.11385602  1
  N  N42  1  0.22008930  0.20499424  0.87455411  1
  N  N43  1  0.12030588  0.09072041  0.61688639  1
  N  N44  1  0.88720325  0.20697692  0.38755682  1
  N  N45  1  0.79377883  0.10782266  0.12744960  1
  N  N46  1  0.55851604  0.20392194  0.87339406  1
  N  N47  1  0.44603786  0.09302886  0.62927391  1
  N  N48  1  0.22286700  0.53792249  0.37364872  1
  N  N49  1  0.11116677  0.42790704  0.12116843  1
  N  N50  1  0.88676548  0.54021401  0.87338583  1
  N  N51  1  0.77462394  0.43890991  0.61689894  1
  N  N52  1  0.55394741  0.54179080  0.36760758  1
  N  N53  1  0.44399536  0.42747732  0.12175792  1
  N  N54  1  0.22152078  0.54087118  0.86955399  1
  N  N55  1  0.11143412  0.42733380  0.62243266  1
  N  N56  1  0.88882751  0.54105148  0.36793238  1
  N  N57  1  0.79352447  0.39650527  0.12276319  1
  N  N58  1  0.55677479  0.53795995  0.87488216  1
  N  N59  1  0.44705187  0.42613236  0.62047246  1
  N  N60  1  0.22529504  0.86967098  0.37096458  1
  N  N61  1  0.10861054  0.76162659  0.12744513  1
  N  N62  1  0.88806464  0.87322311  0.87804163  1
  N  N63  1  0.78961203  0.77378645  0.61924504  1
  N  N64  1  0.55462007  0.87261262  0.37719934  1
  N  N65  1  0.45609204  0.77389031  0.11412122  1
  N  N66  1  0.21918973  0.87291036  0.87360452  1
  N  N67  1  0.08642729  0.77373223  0.61524083  1
  N  N68  1  0.88794377  0.86992918  0.39085954  1
  N  N69  1  0.75347430  0.77471216  0.11852553  1
  N  N70  1  0.55737693  0.87119524  0.89326165  1
  N  N71  1  0.44531315  0.76223413  0.62826864  1
