# generated using pymatgen
data_Al11BN12
_symmetry_space_group_name_H-M   'P 1'
_cell_length_a   9.26876947
_cell_length_b   9.31519592
_cell_length_c   10.19756044
_cell_angle_alpha   90.29578141
_cell_angle_beta   89.68625288
_cell_angle_gamma   59.85069171
_symmetry_Int_Tables_number   1
_chemical_formula_structural   Al11BN12
_chemical_formula_sum   'Al33 B3 N36'
_cell_volume   761.30892672
_cell_formula_units_Z   3
loop_
 _symmetry_equiv_pos_site_id
 _symmetry_equiv_pos_as_xyz
  1  'x, y, z'
loop_
 _atom_site_type_symbol
 _atom_site_label
 _atom_site_symmetry_multiplicity
 _atom_site_fract_x
 _atom_site_fract_y
 _atom_site_fract_z
 _atom_site_occupancy
  Al  Al0  1  0.11513375  0.09411115  0.39704446  1
  Al  Al1  1  0.21284539  0.20491530  0.13759483  1
  Al  Al2  1  0.77986844  0.08437411  0.82052646  1
  Al  Al3  1  0.88927326  0.20047985  0.60157978  1
  Al  Al4  1  0.45413151  0.08402789  0.32451526  1
  Al  Al5  1  0.56257082  0.20028033  0.06711122  1
  Al  Al6  1  0.09740738  0.10099204  0.88719045  1
  Al  Al7  1  0.21382719  0.21157671  0.64324573  1
  Al  Al8  1  0.78365322  0.09823442  0.31830832  1
  Al  Al9  1  0.44847101  0.09287499  0.81635357  1
  Al  Al10  1  0.56119003  0.19594643  0.56366664  1
  Al  Al11  1  0.11684260  0.42491803  0.38581276  1
  Al  Al12  1  0.21865083  0.54185014  0.14569762  1
  Al  Al13  1  0.77381163  0.43304221  0.81620158  1
  Al  Al14  1  0.88803330  0.54866830  0.58298041  1
  Al  Al15  1  0.45326344  0.42321243  0.32079021  1
  Al  Al16  1  0.56318704  0.52829779  0.07164576  1
  Al  Al17  1  0.11529181  0.42714041  0.89272060  1
  Al  Al18  1  0.21180137  0.54628652  0.63640686  1
  Al  Al19  1  0.78395622  0.41898522  0.32391526  1
  Al  Al20  1  0.88078086  0.53730583  0.08405079  1
  Al  Al21  1  0.45030334  0.42408422  0.81818039  1
  Al  Al22  1  0.55768421  0.53257162  0.56639163  1
  Al  Al23  1  0.10171133  0.76824020  0.38567819  1
  Al  Al24  1  0.22026381  0.87925104  0.14265593  1
  Al  Al25  1  0.78355544  0.76229998  0.82849591  1
  Al  Al26  1  0.43869692  0.76813805  0.39520169  1
  Al  Al27  1  0.11479826  0.75888243  0.89719579  1
  Al  Al28  1  0.21486037  0.87544790  0.64648032  1
  Al  Al29  1  0.77049458  0.76397618  0.31567005  1
  Al  Al30  1  0.88715477  0.87829683  0.10047118  1
  Al  Al31  1  0.44337620  0.77043564  0.88695326  1
  Al  Al32  1  0.55797235  0.87439286  0.60218129  1
  B  B33  1  0.88631089  0.20697118  0.10596446  1
  B  B34  1  0.89081066  0.87012315  0.60683877  1
  B  B35  1  0.55368173  0.87106595  0.10536541  1
  N  N36  1  0.21904624  0.20536889  0.32413944  1
  N  N37  1  0.07780185  0.11052463  0.08191080  1
  N  N38  1  0.88620057  0.20458273  0.82000075  1
  N  N39  1  0.79154833  0.05647375  0.62441990  1
  N  N40  1  0.55884859  0.20251354  0.37691846  1
  N  N41  1  0.46403903  0.06103128  0.12551833  1
  N  N42  1  0.21394180  0.20846290  0.83422876  1
  N  N43  1  0.12192235  0.08965802  0.58210920  1
  N  N44  1  0.88247887  0.20740853  0.39467931  1
  N  N45  1  0.79098688  0.11740543  0.12394280  1
  N  N46  1  0.55437930  0.20460944  0.88190208  1
  N  N47  1  0.44302372  0.10357544  0.62755706  1
  N  N48  1  0.21968434  0.54348077  0.33457394  1
  N  N49  1  0.11826385  0.42571956  0.08114425  1
  N  N50  1  0.88270964  0.54119328  0.88093848  1
  N  N51  1  0.77390984  0.44096470  0.62804447  1
  N  N52  1  0.55966345  0.53538045  0.37619370  1
  N  N53  1  0.45204261  0.41979499  0.13202089  1
  N  N54  1  0.21358548  0.54439761  0.82446170  1
  N  N55  1  0.11665325  0.42475736  0.57428936  1
  N  N56  1  0.88954380  0.53989178  0.35303658  1
  N  N57  1  0.79394821  0.39514413  0.12810769  1
  N  N58  1  0.55398128  0.53595670  0.88570331  1
  N  N59  1  0.45436840  0.41934923  0.62820751  1
  N  N60  1  0.22102935  0.87553757  0.32848429  1
  N  N61  1  0.12745549  0.75431973  0.08184740  1
  N  N62  1  0.88114952  0.87707488  0.89881094  1
  N  N63  1  0.80420940  0.77189869  0.62887436  1
  N  N64  1  0.56180782  0.87471964  0.39525094  1
  N  N65  1  0.45432081  0.78221550  0.08466114  1
  N  N66  1  0.21803538  0.87448381  0.83376124  1
  N  N67  1  0.08123334  0.77870841  0.58077444  1
  N  N68  1  0.89254829  0.87040975  0.31177650  1
  N  N69  1  0.74000702  0.77251864  0.12225117  1
  N  N70  1  0.55616435  0.86640514  0.82139939  1
  N  N71  1  0.43293457  0.76106084  0.58426306  1
