# generated using pymatgen
data_Al11BN12
_symmetry_space_group_name_H-M   'P 1'
_cell_length_a   9.26112607
_cell_length_b   9.30212667
_cell_length_c   10.21937408
_cell_angle_alpha   90.30505637
_cell_angle_beta   89.70411579
_cell_angle_gamma   59.84629400
_symmetry_Int_Tables_number   1
_chemical_formula_structural   Al11BN12
_chemical_formula_sum   'Al33 B3 N36'
_cell_volume   761.20605164
_cell_formula_units_Z   3
loop_
 _symmetry_equiv_pos_site_id
 _symmetry_equiv_pos_as_xyz
  1  'x, y, z'
loop_
 _atom_site_type_symbol
 _atom_site_label
 _atom_site_symmetry_multiplicity
 _atom_site_fract_x
 _atom_site_fract_y
 _atom_site_fract_z
 _atom_site_occupancy
  Al  Al0  1  0.11496158  0.09411831  0.39748884  1
  Al  Al1  1  0.21223647  0.20557402  0.13756241  1
  Al  Al2  1  0.77988760  0.08417176  0.82054966  1
  Al  Al3  1  0.88894076  0.20138752  0.60211128  1
  Al  Al4  1  0.45440301  0.08377592  0.32429683  1
  Al  Al5  1  0.56275504  0.20014407  0.06694561  1
  Al  Al6  1  0.09716699  0.10101860  0.88725292  1
  Al  Al7  1  0.21326732  0.21233463  0.64356800  1
  Al  Al8  1  0.78355215  0.09834978  0.31841832  1
  Al  Al9  1  0.44896140  0.09226342  0.81617895  1
  Al  Al10  1  0.56103983  0.19593539  0.56388133  1
  Al  Al11  1  0.12049816  0.42312268  0.38729709  1
  Al  Al12  1  0.21817111  0.54204023  0.14562107  1
  Al  Al13  1  0.77416827  0.43400268  0.81423322  1
  Al  Al14  1  0.88515646  0.54994626  0.56602324  1
  Al  Al15  1  0.45358091  0.42330571  0.32056625  1
  Al  Al16  1  0.56313214  0.52830346  0.07201930  1
  Al  Al17  1  0.11668510  0.42646002  0.89265315  1
  Al  Al18  1  0.21090963  0.54614078  0.63701740  1
  Al  Al19  1  0.78441545  0.42005295  0.32445903  1
  Al  Al20  1  0.87776179  0.53860664  0.07241410  1
  Al  Al21  1  0.45072991  0.42406477  0.81809898  1
  Al  Al22  1  0.55811933  0.53227395  0.56671683  1
  Al  Al23  1  0.10162691  0.76841706  0.38595096  1
  Al  Al24  1  0.22021694  0.87938871  0.14290507  1
  Al  Al25  1  0.78520656  0.76043358  0.82479082  1
  Al  Al26  1  0.43845225  0.76830792  0.39568843  1
  Al  Al27  1  0.11456700  0.75912669  0.89747618  1
  Al  Al28  1  0.21472564  0.87544597  0.64653932  1
  Al  Al29  1  0.77087330  0.76289213  0.31599954  1
  Al  Al30  1  0.88723017  0.87788046  0.10082828  1
  Al  Al31  1  0.44353167  0.77031994  0.88701839  1
  Al  Al32  1  0.55825748  0.87400662  0.60275344  1
  B  B33  1  0.88671459  0.20752395  0.10684218  1
  B  B34  1  0.89067024  0.86955863  0.60687090  1
  B  B35  1  0.55392024  0.87029548  0.10624416  1
  N  N36  1  0.21877355  0.20533451  0.32356002  1
  N  N37  1  0.07777483  0.11078141  0.08186609  1
  N  N38  1  0.88594239  0.20507940  0.81996734  1
  N  N39  1  0.79154349  0.05632549  0.62469776  1
  N  N40  1  0.55864412  0.20263699  0.37722988  1
  N  N41  1  0.46472187  0.06050001  0.12578238  1
  N  N42  1  0.21414847  0.20812734  0.83445356  1
  N  N43  1  0.12175420  0.08982909  0.58213246  1
  N  N44  1  0.88237926  0.20777101  0.39441586  1
  N  N45  1  0.79109650  0.11798882  0.12412830  1
  N  N46  1  0.55431341  0.20452149  0.88217553  1
  N  N47  1  0.44300349  0.10337030  0.62796104  1
  N  N48  1  0.21961560  0.54372474  0.33387526  1
  N  N49  1  0.11649113  0.42681667  0.08160056  1
  N  N50  1  0.88187924  0.54123692  0.88427092  1
  N  N51  1  0.77451727  0.44231913  0.62794525  1
  N  N52  1  0.55978986  0.53546452  0.37635758  1
  N  N53  1  0.45199152  0.41969782  0.13217537  1
  N  N54  1  0.21359718  0.54453076  0.82473967  1
  N  N55  1  0.11715943  0.42449171  0.57460839  1
  N  N56  1  0.88654986  0.54226322  0.37091730  1
  N  N57  1  0.79487282  0.39688308  0.12995507  1
  N  N58  1  0.55480333  0.53555408  0.88617934  1
  N  N59  1  0.45435976  0.41946106  0.62867999  1
  N  N60  1  0.22094678  0.87563480  0.32841716  1
  N  N61  1  0.12742601  0.75459976  0.08172650  1
  N  N62  1  0.88070391  0.87628189  0.89877293  1
  N  N63  1  0.80510600  0.77010088  0.62837639  1
  N  N64  1  0.56179231  0.87470964  0.39511912  1
  N  N65  1  0.45422797  0.78213402  0.08469150  1
  N  N66  1  0.21803722  0.87442302  0.83367179  1
  N  N67  1  0.08128377  0.77857074  0.58057919  1
  N  N68  1  0.89260620  0.87000941  0.31135855  1
  N  N69  1  0.74091137  0.76995992  0.12418976  1
  N  N70  1  0.55711239  0.86540601  0.82124305  1
  N  N71  1  0.43276304  0.76116474  0.58418416  1
