# generated using pymatgen
data_Al11BN12
_symmetry_space_group_name_H-M   'P 1'
_cell_length_a   9.23808699
_cell_length_b   9.28467462
_cell_length_c   10.28637650
_cell_angle_alpha   90.38295801
_cell_angle_beta   89.75012697
_cell_angle_gamma   59.84080660
_symmetry_Int_Tables_number   1
_chemical_formula_structural   Al11BN12
_chemical_formula_sum   'Al33 B3 N36'
_cell_volume   762.80910591
_cell_formula_units_Z   3
loop_
 _symmetry_equiv_pos_site_id
 _symmetry_equiv_pos_as_xyz
  1  'x, y, z'
loop_
 _atom_site_type_symbol
 _atom_site_label
 _atom_site_symmetry_multiplicity
 _atom_site_fract_x
 _atom_site_fract_y
 _atom_site_fract_z
 _atom_site_occupancy
  Al  Al0  1  0.11448738  0.09450307  0.39791684  1
  Al  Al1  1  0.21094041  0.20669694  0.13684628  1
  Al  Al2  1  0.78010289  0.08450403  0.82040625  1
  Al  Al3  1  0.88936921  0.20121158  0.60279570  1
  Al  Al4  1  0.45428130  0.08430246  0.31922179  1
  Al  Al5  1  0.56244751  0.20032462  0.06567856  1
  Al  Al6  1  0.09773850  0.10085386  0.88724361  1
  Al  Al7  1  0.21451886  0.21113654  0.64521463  1
  Al  Al8  1  0.78265313  0.09852842  0.31826055  1
  Al  Al9  1  0.45085634  0.09013474  0.81856360  1
  Al  Al10  1  0.56014329  0.19666149  0.56475997  1
  Al  Al11  1  0.12143126  0.42227920  0.38895351  1
  Al  Al12  1  0.21678530  0.54232194  0.14576785  1
  Al  Al13  1  0.77435150  0.43441604  0.81256556  1
  Al  Al14  1  0.88472245  0.54973497  0.56475255  1
  Al  Al15  1  0.45295823  0.42275815  0.32012407  1
  Al  Al16  1  0.56279775  0.52796248  0.07317259  1
  Al  Al17  1  0.11832617  0.42593845  0.89214867  1
  Al  Al18  1  0.21033482  0.54633151  0.63858680  1
  Al  Al19  1  0.78484647  0.42038888  0.32485760  1
  Al  Al20  1  0.87634870  0.53890738  0.06698318  1
  Al  Al21  1  0.45168406  0.42475231  0.81819875  1
  Al  Al22  1  0.55849124  0.53251330  0.56611224  1
  Al  Al23  1  0.09978575  0.76847448  0.38669670  1
  Al  Al24  1  0.21932218  0.87925349  0.14424448  1
  Al  Al25  1  0.78406313  0.76151745  0.82481346  1
  Al  Al26  1  0.43699446  0.76713083  0.39322823  1
  Al  Al27  1  0.11541377  0.75934451  0.89778601  1
  Al  Al28  1  0.21664413  0.87519947  0.64677147  1
  Al  Al29  1  0.77173422  0.76072242  0.31277626  1
  Al  Al30  1  0.88659652  0.87760396  0.09929630  1
  Al  Al31  1  0.44315539  0.77028225  0.89163846  1
  Al  Al32  1  0.56036250  0.87651991  0.58453709  1
  B  B33  1  0.88681073  0.20777806  0.10771439  1
  B  B34  1  0.88940305  0.87021427  0.60763686  1
  B  B35  1  0.55428474  0.86951351  0.09967833  1
  N  N36  1  0.21773100  0.20571206  0.32210209  1
  N  N37  1  0.07776933  0.11053475  0.08118040  1
  N  N38  1  0.88699655  0.20499114  0.81847621  1
  N  N39  1  0.79113561  0.05678014  0.62493169  1
  N  N40  1  0.55719118  0.20248357  0.37861753  1
  N  N41  1  0.46486959  0.06079501  0.12521006  1
  N  N42  1  0.21486162  0.20789160  0.83391273  1
  N  N43  1  0.12263039  0.08952894  0.58147741  1
  N  N44  1  0.88172519  0.20797057  0.39444078  1
  N  N45  1  0.79079232  0.11817496  0.12470658  1
  N  N46  1  0.55459184  0.20601871  0.88216142  1
  N  N47  1  0.44637571  0.09904965  0.63123452  1
  N  N48  1  0.21831426  0.54395475  0.33303102  1
  N  N49  1  0.11535334  0.42744524  0.07997062  1
  N  N50  1  0.88325271  0.54059148  0.88182315  1
  N  N51  1  0.77463723  0.44200721  0.62775323  1
  N  N52  1  0.55942757  0.53463678  0.37689234  1
  N  N53  1  0.45154278  0.41916676  0.13308484  1
  N  N54  1  0.21422614  0.54488927  0.82471119  1
  N  N55  1  0.11846558  0.42323826  0.57505473  1
  N  N56  1  0.88512438  0.54340921  0.37619651  1
  N  N57  1  0.79546303  0.39761590  0.13119231  1
  N  N58  1  0.55625983  0.53512735  0.88776772  1
  N  N59  1  0.45421155  0.42040708  0.62954068  1
  N  N60  1  0.21881444  0.87594135  0.32885481  1
  N  N61  1  0.12702292  0.75462229  0.08125841  1
  N  N62  1  0.88195977  0.87643644  0.89776722  1
  N  N63  1  0.80133321  0.77128856  0.62900160  1
  N  N64  1  0.56072481  0.87506127  0.39118402  1
  N  N65  1  0.45274887  0.78010948  0.08802341  1
  N  N66  1  0.21950348  0.87386931  0.83291022  1
  N  N67  1  0.08062555  0.77819356  0.58092706  1
  N  N68  1  0.89143473  0.86997179  0.31119794  1
  N  N69  1  0.74199689  0.76783038  0.12386051  1
  N  N70  1  0.55948290  0.86950192  0.84825766  1
  N  N71  1  0.43534932  0.76273131  0.58262471  1
