# generated using pymatgen
data_Al11BN12
_symmetry_space_group_name_H-M   'P 1'
_cell_length_a   9.25607662
_cell_length_b   9.25577804
_cell_length_c   9.89710158
_cell_angle_alpha   89.97050867
_cell_angle_beta   89.96781487
_cell_angle_gamma   60.01828884
_symmetry_Int_Tables_number   1
_chemical_formula_structural   Al11BN12
_chemical_formula_sum   'Al33 B3 N36'
_cell_volume   734.44360603
_cell_formula_units_Z   3
loop_
 _symmetry_equiv_pos_site_id
 _symmetry_equiv_pos_as_xyz
  1  'x, y, z'
loop_
 _atom_site_type_symbol
 _atom_site_label
 _atom_site_symmetry_multiplicity
 _atom_site_fract_x
 _atom_site_fract_y
 _atom_site_fract_z
 _atom_site_occupancy
  Al  Al0  1  0.10602503  0.09678082  0.30207330  1
  Al  Al1  1  0.21984590  0.20267347  0.05645603  1
  Al  Al2  1  0.78177594  0.09065687  0.80840162  1
  Al  Al3  1  0.89050170  0.19999787  0.55797271  1
  Al  Al4  1  0.44732735  0.08864497  0.30166236  1
  Al  Al5  1  0.56251556  0.20196327  0.05625312  1
  Al  Al6  1  0.10836657  0.09553828  0.81305573  1
  Al  Al7  1  0.22323600  0.20333159  0.55679009  1
  Al  Al8  1  0.78159069  0.09411403  0.30867218  1
  Al  Al9  1  0.44583181  0.09215105  0.81360863  1
  Al  Al10  1  0.56023546  0.19827248  0.55659723  1
  Al  Al11  1  0.11110230  0.42769629  0.30616149  1
  Al  Al12  1  0.22071018  0.54103282  0.05561552  1
  Al  Al13  1  0.77903556  0.42483349  0.81272290  1
  Al  Al14  1  0.88884758  0.54287964  0.55673901  1
  Al  Al15  1  0.44431100  0.42751798  0.30665605  1
  Al  Al16  1  0.56073692  0.53679927  0.05654003  1
  Al  Al17  1  0.11061438  0.42783998  0.80611447  1
  Al  Al18  1  0.21724850  0.54217781  0.55644812  1
  Al  Al19  1  0.78069146  0.42245139  0.30227585  1
  Al  Al20  1  0.88458640  0.53899433  0.05636960  1
  Al  Al21  1  0.44476670  0.42788977  0.80580182  1
  Al  Al22  1  0.55692777  0.53937164  0.55624533  1
  Al  Al23  1  0.10824671  0.76262846  0.31364637  1
  Al  Al24  1  0.21863773  0.87673144  0.05677889  1
  Al  Al25  1  0.77779962  0.76504145  0.80913494  1
  Al  Al26  1  0.44724403  0.76415313  0.30235017  1
  Al  Al27  1  0.10544072  0.76420685  0.80201108  1
  Al  Al28  1  0.21850598  0.87456673  0.55709636  1
  Al  Al29  1  0.77388863  0.76523009  0.30878641  1
  Al  Al30  1  0.88508847  0.87794543  0.05794997  1
  Al  Al31  1  0.44576886  0.76220807  0.81375942  1
  Al  Al32  1  0.55974228  0.87349514  0.55829869  1
  B  B33  1  0.88884560  0.20464102  0.05399765  1
  B  B34  1  0.88808174  0.87313131  0.55508593  1
  B  B35  1  0.55615981  0.87279440  0.05339024  1
  N  N36  1  0.22353493  0.20303488  0.36217037  1
  N  N37  1  0.08534154  0.10698425  0.10827415  1
  N  N38  1  0.88800916  0.20431130  0.88601601  1
  N  N39  1  0.79096000  0.06970813  0.61199290  1
  N  N40  1  0.55620314  0.20300771  0.36299272  1
  N  N41  1  0.45689190  0.07001909  0.10734240  1
  N  N42  1  0.22165936  0.20624571  0.86689540  1
  N  N43  1  0.11002622  0.09510251  0.62065658  1
  N  N44  1  0.88938357  0.20567356  0.36984579  1
  N  N45  1  0.79101950  0.10596699  0.11291885  1
  N  N46  1  0.55793260  0.20528330  0.86495469  1
  N  N47  1  0.44470506  0.09311089  0.62082131  1
  N  N48  1  0.22232865  0.53827875  0.36634086  1
  N  N49  1  0.11051540  0.42830543  0.11484896  1
  N  N50  1  0.88782439  0.54089470  0.86504834  1
  N  N51  1  0.77934199  0.42519871  0.61933804  1
  N  N52  1  0.55677222  0.54002309  0.36216752  1
  N  N53  1  0.44378897  0.42788809  0.11503500  1
  N  N54  1  0.22097707  0.54131546  0.86295863  1
  N  N55  1  0.11111590  0.42643462  0.61475648  1
  N  N56  1  0.88697810  0.53967801  0.36314158  1
  N  N57  1  0.79082579  0.40216724  0.10832614  1
  N  N58  1  0.55548993  0.53837091  0.86677020  1
  N  N59  1  0.44503540  0.42684328  0.61351559  1
  N  N60  1  0.22370390  0.87362735  0.36362006  1
  N  N61  1  0.10837415  0.76231863  0.12087215  1
  N  N62  1  0.88949639  0.87213474  0.87025878  1
  N  N63  1  0.78951395  0.77389791  0.61240506  1
  N  N64  1  0.55504527  0.87263209  0.37010603  1
  N  N65  1  0.45630916  0.77399192  0.10780809  1
  N  N66  1  0.22064999  0.87067705  0.86560200  1
  N  N67  1  0.08599914  0.77418712  0.60740321  1
  N  N68  1  0.88678553  0.87342715  0.38520688  1
  N  N69  1  0.75366607  0.77478616  0.11233228  1
  N  N70  1  0.55757272  0.87148621  0.88618461  1
  N  N71  1  0.44563488  0.76206722  0.61985242  1
