# generated using pymatgen
data_Al11BN12
_symmetry_space_group_name_H-M   'P 1'
_cell_length_a   9.27117784
_cell_length_b   9.27145515
_cell_length_c   9.95578566
_cell_angle_alpha   90.01238565
_cell_angle_beta   89.86160336
_cell_angle_gamma   59.92402324
_symmetry_Int_Tables_number   1
_chemical_formula_structural   Al11BN12
_chemical_formula_sum   'Al33 B3 N36'
_cell_volume   740.54955318
_cell_formula_units_Z   3
loop_
 _symmetry_equiv_pos_site_id
 _symmetry_equiv_pos_as_xyz
  1  'x, y, z'
loop_
 _atom_site_type_symbol
 _atom_site_label
 _atom_site_symmetry_multiplicity
 _atom_site_fract_x
 _atom_site_fract_y
 _atom_site_fract_z
 _atom_site_occupancy
  Al  Al0  1  0.11004193  0.09739509  0.39464677  1
  Al  Al1  1  0.21992768  0.20327245  0.14831571  1
  Al  Al2  1  0.77854313  0.09749515  0.90519443  1
  Al  Al3  1  0.88985325  0.19717272  0.64706709  1
  Al  Al4  1  0.44577796  0.09241702  0.39195563  1
  Al  Al5  1  0.55633620  0.20465165  0.14608177  1
  Al  Al6  1  0.10504375  0.09634588  0.90283679  1
  Al  Al7  1  0.22269393  0.20392266  0.64990142  1
  Al  Al8  1  0.78377324  0.09234638  0.35692243  1
  Al  Al9  1  0.44719250  0.08800982  0.90271089  1
  Al  Al10  1  0.56199454  0.19554482  0.64784217  1
  Al  Al11  1  0.11152554  0.42740981  0.40029020  1
  Al  Al12  1  0.22463705  0.53798355  0.15262147  1
  Al  Al13  1  0.78028620  0.42247378  0.90219402  1
  Al  Al14  1  0.88911784  0.54398181  0.64806028  1
  Al  Al15  1  0.44637925  0.42711228  0.40090567  1
  Al  Al16  1  0.56049778  0.53677887  0.14839490  1
  Al  Al17  1  0.10957858  0.42963272  0.89905373  1
  Al  Al18  1  0.21510642  0.54354519  0.64781946  1
  Al  Al19  1  0.77856621  0.42678313  0.39552865  1
  Al  Al20  1  0.88473497  0.53613215  0.15177276  1
  Al  Al21  1  0.44287326  0.42816641  0.89739979  1
  Al  Al22  1  0.55646538  0.53928168  0.65064563  1
  Al  Al23  1  0.10626476  0.76419807  0.39200978  1
  Al  Al24  1  0.22183672  0.87839116  0.15206982  1
  Al  Al25  1  0.76926590  0.76140015  0.90782747  1
  Al  Al26  1  0.44597512  0.76187738  0.39371729  1
  Al  Al27  1  0.11322341  0.75990600  0.90390286  1
  Al  Al28  1  0.21592524  0.87545195  0.64740466  1
  Al  Al29  1  0.77735851  0.76618980  0.38423246  1
  Al  Al30  1  0.88872872  0.87283221  0.12043909  1
  Al  Al31  1  0.44537550  0.76473958  0.90269904  1
  Al  Al32  1  0.56025697  0.87423201  0.64624691  1
  B  B33  1  0.88892841  0.21018049  0.15086806  1
  B  B34  1  0.88619006  0.87581001  0.60017766  1
  B  B35  1  0.55668393  0.86703902  0.15316393  1
  N  N36  1  0.22262654  0.20691586  0.33785013  1
  N  N37  1  0.08602802  0.10780806  0.09588622  1
  N  N38  1  0.88749888  0.20449164  0.83553639  1
  N  N39  1  0.79344489  0.06343442  0.59270743  1
  N  N40  1  0.55434147  0.20709301  0.33701447  1
  N  N41  1  0.45656423  0.06960749  0.09605557  1
  N  N42  1  0.22243990  0.20365716  0.84304167  1
  N  N43  1  0.10967761  0.09605445  0.58565165  1
  N  N44  1  0.89310495  0.21016910  0.31819485  1
  N  N45  1  0.78744719  0.11529231  0.10452338  1
  N  N46  1  0.55595207  0.20305001  0.84156941  1
  N  N47  1  0.44406129  0.09345484  0.58413132  1
  N  N48  1  0.22372651  0.53826109  0.34383754  1
  N  N49  1  0.11017737  0.43014205  0.09031719  1
  N  N50  1  0.88553283  0.54035131  0.84038212  1
  N  N51  1  0.77906926  0.42511947  0.58744511  1
  N  N52  1  0.55600925  0.53816112  0.33838884  1
  N  N53  1  0.44439247  0.42771977  0.08803952  1
  N  N54  1  0.22060269  0.54053837  0.83708353  1
  N  N55  1  0.11102934  0.42649249  0.59065764  1
  N  N56  1  0.88937101  0.53915744  0.34183178  1
  N  N57  1  0.79139304  0.40305134  0.09573143  1
  N  N58  1  0.55595126  0.54026942  0.84335125  1
  N  N59  1  0.44545473  0.42632300  0.59218721  1
  N  N60  1  0.22175510  0.87354804  0.34211490  1
  N  N61  1  0.12556522  0.75564602  0.09391224  1
  N  N62  1  0.88570264  0.87106506  0.89696952  1
  N  N63  1  0.79139220  0.77701006  0.58459685  1
  N  N64  1  0.55423654  0.87252487  0.32006723  1
  N  N65  1  0.45505848  0.77430996  0.09754063  1
  N  N66  1  0.22192895  0.87286363  0.83979059  1
  N  N67  1  0.08001667  0.77694600  0.58956090  1
  N  N68  1  0.89234199  0.86819616  0.32048996  1
  N  N69  1  0.74656904  0.76633768  0.10074811  1
  N  N70  1  0.55577272  0.87116767  0.83390164  1
  N  N71  1  0.44553972  0.76176902  0.58647526  1
