# generated using pymatgen
data_Al11BN12
_symmetry_space_group_name_H-M   'P 1'
_cell_length_a   9.28709504
_cell_length_b   9.29665889
_cell_length_c   10.07253443
_cell_angle_alpha   89.98584416
_cell_angle_beta   89.63994260
_cell_angle_gamma   59.82553134
_symmetry_Int_Tables_number   1
_chemical_formula_structural   Al11BN12
_chemical_formula_sum   'Al33 B3 N36'
_cell_volume   751.79413894
_cell_formula_units_Z   3
loop_
 _symmetry_equiv_pos_site_id
 _symmetry_equiv_pos_as_xyz
  1  'x, y, z'
loop_
 _atom_site_type_symbol
 _atom_site_label
 _atom_site_symmetry_multiplicity
 _atom_site_fract_x
 _atom_site_fract_y
 _atom_site_fract_z
 _atom_site_occupancy
  Al  Al0  1  0.11248443  0.08788332  0.39874829  1
  Al  Al1  1  0.22415621  0.20518252  0.07472665  1
  Al  Al2  1  0.77917204  0.08670791  0.82265021  1
  Al  Al3  1  0.88945188  0.20145786  0.60517611  1
  Al  Al4  1  0.44918774  0.08832212  0.31776447  1
  Al  Al5  1  0.56395516  0.20305452  0.06945222  1
  Al  Al6  1  0.09575843  0.10134157  0.88680347  1
  Al  Al7  1  0.23072030  0.20623448  0.57472525  1
  Al  Al8  1  0.77969125  0.09997936  0.32246327  1
  Al  Al9  1  0.44550820  0.09158554  0.82995854  1
  Al  Al10  1  0.56168446  0.19586566  0.57116320  1
  Al  Al11  1  0.11151922  0.42713621  0.32270717  1
  Al  Al12  1  0.23043118  0.52713616  0.07356125  1
  Al  Al13  1  0.77518589  0.43274531  0.81396416  1
  Al  Al14  1  0.89060956  0.54730411  0.57109550  1
  Al  Al15  1  0.44596080  0.42648823  0.32348704  1
  Al  Al16  1  0.56207266  0.53493291  0.07294307  1
  Al  Al17  1  0.11173511  0.42647507  0.82111553  1
  Al  Al18  1  0.21542322  0.54538837  0.57293016  1
  Al  Al19  1  0.78282084  0.42109630  0.32999519  1
  Al  Al20  1  0.88638176  0.53329153  0.07057788  1
  Al  Al21  1  0.44620622  0.42705353  0.81994606  1
  Al  Al22  1  0.55321298  0.54471028  0.56883042  1
  Al  Al23  1  0.10570823  0.76276956  0.34165066  1
  Al  Al24  1  0.21632517  0.88591113  0.13338425  1
  Al  Al25  1  0.77948398  0.76391612  0.83615203  1
  Al  Al26  1  0.45314783  0.76217487  0.31652477  1
  Al  Al27  1  0.10924255  0.76423618  0.89915034  1
  Al  Al28  1  0.20873935  0.87490601  0.65074572  1
  Al  Al29  1  0.76918136  0.76048910  0.31167734  1
  Al  Al30  1  0.88062513  0.87894543  0.10258655  1
  Al  Al31  1  0.45026554  0.75972908  0.83285396  1
  Al  Al32  1  0.55977084  0.87292035  0.57654262  1
  B  B33  1  0.88553842  0.21042065  0.11072364  1
  B  B34  1  0.88970451  0.86916556  0.61619653  1
  B  B35  1  0.55915931  0.86414915  0.06658780  1
  N  N36  1  0.22794557  0.20632218  0.37978942  1
  N  N37  1  0.07392415  0.11475157  0.08483876  1
  N  N38  1  0.88726566  0.20544422  0.81951860  1
  N  N39  1  0.78918010  0.05809404  0.62779565  1
  N  N40  1  0.55641926  0.20290988  0.38088072  1
  N  N41  1  0.45992229  0.06954944  0.12529772  1
  N  N42  1  0.22303058  0.20683087  0.88521038  1
  N  N43  1  0.12184014  0.08627052  0.58792225  1
  N  N44  1  0.88153238  0.20703577  0.39622490  1
  N  N45  1  0.78961757  0.12046779  0.12646241  1
  N  N46  1  0.55657619  0.20560330  0.88170314  1
  N  N47  1  0.44772889  0.09247995  0.63969315  1
  N  N48  1  0.22302566  0.53822146  0.38174941  1
  N  N49  1  0.11008066  0.42803989  0.13436739  1
  N  N50  1  0.88923628  0.53645478  0.88235767  1
  N  N51  1  0.77304494  0.44200678  0.62558025  1
  N  N52  1  0.55393054  0.54247121  0.37796038  1
  N  N53  1  0.44829128  0.42470077  0.13457115  1
  N  N54  1  0.22562591  0.53231299  0.88277143  1
  N  N55  1  0.11196180  0.42784760  0.63249949  1
  N  N56  1  0.88801933  0.54214610  0.38036628  1
  N  N57  1  0.79349082  0.39971420  0.13247853  1
  N  N58  1  0.55716341  0.53621208  0.88547784  1
  N  N59  1  0.44616200  0.42730114  0.62923364  1
  N  N60  1  0.21986454  0.87718528  0.32415192  1
  N  N61  1  0.12005152  0.75663751  0.09773646  1
  N  N62  1  0.87971087  0.87851970  0.90155066  1
  N  N63  1  0.79199987  0.77437777  0.63727343  1
  N  N64  1  0.55616646  0.87186182  0.38870700  1
  N  N65  1  0.45983835  0.77225198  0.12105503  1
  N  N66  1  0.21613018  0.87560850  0.84309002  1
  N  N67  1  0.07539376  0.77864022  0.60275086  1
  N  N68  1  0.88392379  0.87239979  0.31373538  1
  N  N69  1  0.74702207  0.76411169  0.12086777  1
  N  N70  1  0.55541739  0.87192670  0.90275256  1
  N  N71  1  0.44837700  0.76087954  0.63930351  1
