# generated using pymatgen
data_Al11BN12
_symmetry_space_group_name_H-M   'P 1'
_cell_length_a   9.29830464
_cell_length_b   9.31695407
_cell_length_c   10.18177875
_cell_angle_alpha   90.12630643
_cell_angle_beta   89.69358975
_cell_angle_gamma   59.87259529
_symmetry_Int_Tables_number   1
_chemical_formula_structural   Al11BN12
_chemical_formula_sum   'Al33 B3 N36'
_cell_volume   762.88641053
_cell_formula_units_Z   3
loop_
 _symmetry_equiv_pos_site_id
 _symmetry_equiv_pos_as_xyz
  1  'x, y, z'
loop_
 _atom_site_type_symbol
 _atom_site_label
 _atom_site_symmetry_multiplicity
 _atom_site_fract_x
 _atom_site_fract_y
 _atom_site_fract_z
 _atom_site_occupancy
  Al  Al0  1  0.11714037  0.09290876  0.39522887  1
  Al  Al1  1  0.21338058  0.20413049  0.13533502  1
  Al  Al2  1  0.78105458  0.08352666  0.81826918  1
  Al  Al3  1  0.89043328  0.19851342  0.59916819  1
  Al  Al4  1  0.45359214  0.08401750  0.32321576  1
  Al  Al5  1  0.56427217  0.20037671  0.06571565  1
  Al  Al6  1  0.10186775  0.09775007  0.88661421  1
  Al  Al7  1  0.21563279  0.21075221  0.64197764  1
  Al  Al8  1  0.78363183  0.09995920  0.31461418  1
  Al  Al9  1  0.44914413  0.09107138  0.81557734  1
  Al  Al10  1  0.56047133  0.19843981  0.56282707  1
  Al  Al11  1  0.11273917  0.42706692  0.38810623  1
  Al  Al12  1  0.21680814  0.54147883  0.14259479  1
  Al  Al13  1  0.78057411  0.42330701  0.83865119  1
  Al  Al14  1  0.89683902  0.54249667  0.63587061  1
  Al  Al15  1  0.44899102  0.42234048  0.32064867  1
  Al  Al16  1  0.56479966  0.53741459  0.13267496  1
  Al  Al17  1  0.11110138  0.42856441  0.89106096  1
  Al  Al18  1  0.21081183  0.54700043  0.63527769  1
  Al  Al19  1  0.77862424  0.42861772  0.37805572  1
  Al  Al20  1  0.88758317  0.52824888  0.13459886  1
  Al  Al21  1  0.44472858  0.42002843  0.82149128  1
  Al  Al22  1  0.55043755  0.54721400  0.64017960  1
  Al  Al23  1  0.10103718  0.76891548  0.38512933  1
  Al  Al24  1  0.21889564  0.87973983  0.14240524  1
  Al  Al25  1  0.78000496  0.76893032  0.82749300  1
  Al  Al26  1  0.44102459  0.76038566  0.39527827  1
  Al  Al27  1  0.11488016  0.75909571  0.89720219  1
  Al  Al28  1  0.21366778  0.87652182  0.64534666  1
  Al  Al29  1  0.76884048  0.76752851  0.31869573  1
  Al  Al30  1  0.88635941  0.87807037  0.09997546  1
  Al  Al31  1  0.44554200  0.76638314  0.88935402  1
  Al  Al32  1  0.56002981  0.87497400  0.59467188  1
  B  B33  1  0.88490857  0.21023984  0.10053265  1
  B  B34  1  0.88874887  0.87170190  0.60455430  1
  B  B35  1  0.55528954  0.86913976  0.10312056  1
  N  N36  1  0.21919719  0.20695654  0.32320177  1
  N  N37  1  0.07957554  0.10881243  0.08040826  1
  N  N38  1  0.89122030  0.20078010  0.81503192  1
  N  N39  1  0.79058437  0.05839356  0.62334733  1
  N  N40  1  0.55958298  0.20233178  0.37554575  1
  N  N41  1  0.46471156  0.05929780  0.12467550  1
  N  N42  1  0.21569176  0.20796142  0.83405054  1
  N  N43  1  0.12297563  0.08996629  0.58098874  1
  N  N44  1  0.88586759  0.20240096  0.39267299  1
  N  N45  1  0.79109688  0.11774492  0.12238705  1
  N  N46  1  0.55709122  0.20141249  0.88055022  1
  N  N47  1  0.44406005  0.10277118  0.62626384  1
  N  N48  1  0.21719952  0.54378972  0.33351063  1
  N  N49  1  0.11171364  0.42824246  0.07748424  1
  N  N50  1  0.89366937  0.53767543  0.82837574  1
  N  N51  1  0.77448730  0.43894277  0.59656252  1
  N  N52  1  0.55774278  0.54540875  0.32522309  1
  N  N53  1  0.44749545  0.41942016  0.12577052  1
  N  N54  1  0.21207240  0.54473383  0.82564458  1
  N  N55  1  0.11325496  0.42650453  0.57398557  1
  N  N56  1  0.89348733  0.53534695  0.32558952  1
  N  N57  1  0.79556098  0.39401820  0.09855761  1
  N  N58  1  0.55164472  0.54311274  0.83667917  1
  N  N59  1  0.44849646  0.42006891  0.62543244  1
  N  N60  1  0.22206906  0.87439129  0.32874651  1
  N  N61  1  0.12560810  0.75545076  0.08209622  1
  N  N62  1  0.88188951  0.87687762  0.89839680  1
  N  N63  1  0.80178055  0.77578734  0.62417428  1
  N  N64  1  0.56022179  0.87358784  0.39487906  1
  N  N65  1  0.45478882  0.77907086  0.08263315  1
  N  N66  1  0.21999008  0.87257215  0.83317458  1
  N  N67  1  0.08007131  0.78001715  0.58035003  1
  N  N68  1  0.89158062  0.87131101  0.31198270  1
  N  N69  1  0.74023972  0.77018693  0.12071691  1
  N  N70  1  0.55577692  0.86623642  0.82530700  1
  N  N71  1  0.43274869  0.76026086  0.58137674  1
