# generated using pymatgen
data_Al11BN12
_symmetry_space_group_name_H-M   'P 1'
_cell_length_a   9.25304315
_cell_length_b   9.25462233
_cell_length_c   9.92956614
_cell_angle_alpha   89.98059373
_cell_angle_beta   89.96701961
_cell_angle_gamma   59.98861697
_symmetry_Int_Tables_number   1
_chemical_formula_structural   Al11BN12
_chemical_formula_sum   'Al33 B3 N36'
_cell_volume   736.29914025
_cell_formula_units_Z   3
loop_
 _symmetry_equiv_pos_site_id
 _symmetry_equiv_pos_as_xyz
  1  'x, y, z'
loop_
 _atom_site_type_symbol
 _atom_site_label
 _atom_site_symmetry_multiplicity
 _atom_site_fract_x
 _atom_site_fract_y
 _atom_site_fract_z
 _atom_site_occupancy
  Al  Al0  1  0.10669246  0.09652984  0.31435152  1
  Al  Al1  1  0.21865631  0.20265609  0.06336793  1
  Al  Al2  1  0.78129419  0.09034681  0.81137240  1
  Al  Al3  1  0.89053737  0.20070832  0.56897811  1
  Al  Al4  1  0.44765952  0.08836009  0.30799698  1
  Al  Al5  1  0.56327120  0.20196598  0.06315012  1
  Al  Al6  1  0.10803181  0.09559893  0.81535354  1
  Al  Al7  1  0.22460591  0.20388493  0.56296007  1
  Al  Al8  1  0.78172311  0.09351808  0.32093462  1
  Al  Al9  1  0.44542894  0.09212322  0.82109928  1
  Al  Al10  1  0.55924754  0.19855145  0.56307630  1
  Al  Al11  1  0.11174611  0.42786893  0.31236625  1
  Al  Al12  1  0.22088544  0.54077550  0.06160369  1
  Al  Al13  1  0.77872280  0.42527257  0.81479812  1
  Al  Al14  1  0.88956965  0.54449243  0.56247709  1
  Al  Al15  1  0.44415213  0.42753409  0.31309899  1
  Al  Al16  1  0.56163841  0.53549923  0.06337451  1
  Al  Al17  1  0.11024202  0.42742428  0.81325120  1
  Al  Al18  1  0.21759097  0.54231025  0.56378047  1
  Al  Al19  1  0.78051530  0.42305632  0.31431718  1
  Al  Al20  1  0.88488348  0.53762437  0.06327392  1
  Al  Al21  1  0.44568806  0.42729013  0.81301382  1
  Al  Al22  1  0.55561093  0.54090451  0.56232955  1
  Al  Al23  1  0.10853193  0.76187181  0.32001048  1
  Al  Al24  1  0.21733289  0.87762248  0.06375280  1
  Al  Al25  1  0.77772824  0.76479071  0.81655608  1
  Al  Al26  1  0.44724346  0.76423914  0.30846642  1
  Al  Al27  1  0.10503747  0.76489781  0.80923173  1
  Al  Al28  1  0.21936332  0.87326917  0.56322592  1
  Al  Al29  1  0.77369662  0.76531662  0.31480626  1
  Al  Al30  1  0.88531843  0.87855603  0.06480269  1
  Al  Al31  1  0.44535373  0.76226079  0.82122709  1
  Al  Al32  1  0.55959188  0.87349990  0.56546904  1
  B  B33  1  0.88860294  0.20461252  0.08075342  1
  B  B34  1  0.88724915  0.87294480  0.56177386  1
  B  B35  1  0.55610406  0.87264050  0.05994320  1
  N  N36  1  0.22446414  0.20369300  0.36916118  1
  N  N37  1  0.08295153  0.10806928  0.11995197  1
  N  N38  1  0.88713393  0.20452017  0.87467662  1
  N  N39  1  0.78986887  0.06822597  0.61593375  1
  N  N40  1  0.55521890  0.20338588  0.37020730  1
  N  N41  1  0.45683013  0.06991676  0.11426339  1
  N  N42  1  0.22096287  0.20548166  0.87434870  1
  N  N43  1  0.11344561  0.09376366  0.62369812  1
  N  N44  1  0.88931185  0.20577413  0.38054186  1
  N  N45  1  0.79218010  0.10685279  0.12433041  1
  N  N46  1  0.55821209  0.20447852  0.87256730  1
  N  N47  1  0.44501802  0.09312422  0.62849814  1
  N  N48  1  0.22267409  0.53805362  0.37371553  1
  N  N49  1  0.11073742  0.42811914  0.12160754  1
  N  N50  1  0.88714474  0.54052047  0.87254754  1
  N  N51  1  0.77800385  0.42965770  0.62223265  1
  N  N52  1  0.55541759  0.54082891  0.36906089  1
  N  N53  1  0.44391318  0.42765020  0.12198040  1
  N  N54  1  0.22104711  0.54117951  0.86972202  1
  N  N55  1  0.11139913  0.42661141  0.62211312  1
  N  N56  1  0.88796454  0.54036407  0.36965912  1
  N  N57  1  0.79193659  0.39959116  0.11981101  1
  N  N58  1  0.55625590  0.53817487  0.87417600  1
  N  N59  1  0.44575418  0.42671951  0.62091807  1
  N  N60  1  0.22434977  0.87213340  0.37050448  1
  N  N61  1  0.10846103  0.76198727  0.12767184  1
  N  N62  1  0.88861140  0.87290027  0.87756600  1
  N  N63  1  0.78951757  0.77408987  0.61964725  1
  N  N64  1  0.55498851  0.87250769  0.37724899  1
  N  N65  1  0.45623013  0.77382086  0.11457569  1
  N  N66  1  0.22001668  0.87181070  0.87316387  1
  N  N67  1  0.08609004  0.77427643  0.61480156  1
  N  N68  1  0.88746080  0.87168144  0.39205572  1
  N  N69  1  0.75370247  0.77462082  0.11898176  1
  N  N70  1  0.55734433  0.87138079  0.89341848  1
  N  N71  1  0.44528581  0.76238781  0.62749247  1
