# generated using pymatgen
data_Al11BN12
_symmetry_space_group_name_H-M   'P 1'
_cell_length_a   9.25979598
_cell_length_b   9.26501809
_cell_length_c   9.94214595
_cell_angle_alpha   89.99234239
_cell_angle_beta   89.94384257
_cell_angle_gamma   59.97216878
_symmetry_Int_Tables_number   1
_chemical_formula_structural   Al11BN12
_chemical_formula_sum   'Al33 B3 N36'
_cell_volume   738.47593244
_cell_formula_units_Z   3
loop_
 _symmetry_equiv_pos_site_id
 _symmetry_equiv_pos_as_xyz
  1  'x, y, z'
loop_
 _atom_site_type_symbol
 _atom_site_label
 _atom_site_symmetry_multiplicity
 _atom_site_fract_x
 _atom_site_fract_y
 _atom_site_fract_z
 _atom_site_occupancy
  Al  Al0  1  0.10699213  0.09647772  0.32155115  1
  Al  Al1  1  0.21787549  0.20288533  0.06368238  1
  Al  Al2  1  0.77986803  0.08870229  0.80689623  1
  Al  Al3  1  0.89010044  0.20152754  0.57927133  1
  Al  Al4  1  0.44780757  0.08812507  0.30760071  1
  Al  Al5  1  0.56344598  0.20231538  0.06334575  1
  Al  Al6  1  0.10957017  0.09473735  0.81035064  1
  Al  Al7  1  0.22608951  0.20434024  0.56259543  1
  Al  Al8  1  0.78192054  0.09313822  0.32610014  1
  Al  Al9  1  0.44521922  0.09215675  0.82153089  1
  Al  Al10  1  0.55873522  0.19833343  0.56224800  1
  Al  Al11  1  0.11221359  0.42804291  0.31196264  1
  Al  Al12  1  0.22110144  0.54061848  0.06108928  1
  Al  Al13  1  0.77736171  0.42788259  0.80980823  1
  Al  Al14  1  0.88996351  0.54587372  0.56117777  1
  Al  Al15  1  0.44392492  0.42759799  0.31284070  1
  Al  Al16  1  0.56185221  0.53475972  0.06358851  1
  Al  Al17  1  0.11000120  0.42722829  0.81339753  1
  Al  Al18  1  0.21790089  0.54235483  0.56406252  1
  Al  Al19  1  0.78038481  0.42343167  0.31929512  1
  Al  Al20  1  0.88544280  0.53694489  0.06356091  1
  Al  Al21  1  0.44660635  0.42672982  0.81297243  1
  Al  Al22  1  0.55464260  0.54230267  0.56126048  1
  Al  Al23  1  0.10870363  0.76129394  0.31983849  1
  Al  Al24  1  0.21646877  0.87803397  0.06417251  1
  Al  Al25  1  0.77788683  0.76442471  0.81661603  1
  Al  Al26  1  0.44713426  0.76445050  0.30797148  1
  Al  Al27  1  0.10484835  0.76526441  0.80932352  1
  Al  Al28  1  0.22037970  0.87178253  0.56284882  1
  Al  Al29  1  0.77339392  0.76544804  0.31419647  1
  Al  Al30  1  0.88580711  0.87853565  0.06496105  1
  Al  Al31  1  0.44507552  0.76224249  0.82161067  1
  Al  Al32  1  0.55940933  0.87338841  0.56579663  1
  B  B33  1  0.88908571  0.20441722  0.10502973  1
  B  B34  1  0.88559801  0.87309584  0.56110719  1
  B  B35  1  0.55609015  0.87257622  0.05943653  1
  N  N36  1  0.22525989  0.20454836  0.36907019  1
  N  N37  1  0.08099848  0.10900592  0.12379183  1
  N  N38  1  0.88596399  0.20486245  0.84091132  1
  N  N39  1  0.78804912  0.06513713  0.61240847  1
  N  N40  1  0.55440912  0.20368884  0.36959357  1
  N  N41  1  0.45680095  0.06980744  0.11407176  1
  N  N42  1  0.22032255  0.20500972  0.87476880  1
  N  N43  1  0.11866476  0.09142729  0.61897449  1
  N  N44  1  0.88854772  0.20623967  0.38532568  1
  N  N45  1  0.79340693  0.10769991  0.12729053  1
  N  N46  1  0.55841592  0.20396663  0.87320976  1
  N  N47  1  0.44550781  0.09312596  0.62899640  1
  N  N48  1  0.22285453  0.53792739  0.37378047  1
  N  N49  1  0.11101692  0.42800697  0.12136259  1
  N  N50  1  0.88677959  0.54029745  0.87318669  1
  N  N51  1  0.77559233  0.43626660  0.61789199  1
  N  N52  1  0.55421812  0.54155719  0.36818730  1
  N  N53  1  0.44396400  0.42752762  0.12188736  1
  N  N54  1  0.22130605  0.54100602  0.86954225  1
  N  N55  1  0.11151673  0.42687382  0.62225344  1
  N  N56  1  0.88869586  0.54093340  0.36852471  1
  N  N57  1  0.79315377  0.39712187  0.12266439  1
  N  N58  1  0.55668410  0.53809791  0.87472338  1
  N  N59  1  0.44663750  0.42632756  0.62074300  1
  N  N60  1  0.22491733  0.87063977  0.37034595  1
  N  N61  1  0.10856645  0.76172886  0.12753253  1
  N  N62  1  0.88811402  0.87324795  0.87794258  1
  N  N63  1  0.78958435  0.77389768  0.61946725  1
  N  N64  1  0.55478745  0.87253432  0.37728554  1
  N  N65  1  0.45618675  0.77383857  0.11433270  1
  N  N66  1  0.21942752  0.87274864  0.87374042  1
  N  N67  1  0.08632937  0.77405967  0.61501652  1
  N  N68  1  0.88793480  0.87018450  0.39123697  1
  N  N69  1  0.75357092  0.77467080  0.11868112  1
  N  N70  1  0.55730174  0.87128325  0.89336710  1
  N  N71  1  0.44506363  0.76241462  0.62798851  1
