# generated using pymatgen
data_Al11BN12
_symmetry_space_group_name_H-M   'P 1'
_cell_length_a   9.28230703
_cell_length_b   9.29786029
_cell_length_c   10.07559716
_cell_angle_alpha   90.08419188
_cell_angle_beta   89.54398462
_cell_angle_gamma   59.91183419
_symmetry_Int_Tables_number   1
_chemical_formula_structural   Al11BN12
_chemical_formula_sum   'Al33 B3 N36'
_cell_volume   752.36996667
_cell_formula_units_Z   3
loop_
 _symmetry_equiv_pos_site_id
 _symmetry_equiv_pos_as_xyz
  1  'x, y, z'
loop_
 _atom_site_type_symbol
 _atom_site_label
 _atom_site_symmetry_multiplicity
 _atom_site_fract_x
 _atom_site_fract_y
 _atom_site_fract_z
 _atom_site_occupancy
  Al  Al0  1  0.11558510  0.09287452  0.39451981  1
  Al  Al1  1  0.22175918  0.20394470  0.09439658  1
  Al  Al2  1  0.78049777  0.08659620  0.82117748  1
  Al  Al3  1  0.88893085  0.20199092  0.60151300  1
  Al  Al4  1  0.45119016  0.08674201  0.31386177  1
  Al  Al5  1  0.56566677  0.20297225  0.06901133  1
  Al  Al6  1  0.09603268  0.10020583  0.89031084  1
  Al  Al7  1  0.22748168  0.20156668  0.61491217  1
  Al  Al8  1  0.78055719  0.09926167  0.32198250  1
  Al  Al9  1  0.44878303  0.09005987  0.83734870  1
  Al  Al10  1  0.56136467  0.19478380  0.56966992  1
  Al  Al11  1  0.11044983  0.43106872  0.31778729  1
  Al  Al12  1  0.22953348  0.53169725  0.07147617  1
  Al  Al13  1  0.77507107  0.43220671  0.81353798  1
  Al  Al14  1  0.89114871  0.54592816  0.56973228  1
  Al  Al15  1  0.44386454  0.42736289  0.32276405  1
  Al  Al16  1  0.56028391  0.53717875  0.07344296  1
  Al  Al17  1  0.10935593  0.43021301  0.82778577  1
  Al  Al18  1  0.22095436  0.53556768  0.57405527  1
  Al  Al19  1  0.78335175  0.42064726  0.32893158  1
  Al  Al20  1  0.88398118  0.53590252  0.06946787  1
  Al  Al21  1  0.44755521  0.42655495  0.82005614  1
  Al  Al22  1  0.55460500  0.54286850  0.56736864  1
  Al  Al23  1  0.09800721  0.77086868  0.38383227  1
  Al  Al24  1  0.21224473  0.88317197  0.14175799  1
  Al  Al25  1  0.77849447  0.76454217  0.83524269  1
  Al  Al26  1  0.45173669  0.76225061  0.31864841  1
  Al  Al27  1  0.10944851  0.76678571  0.89835501  1
  Al  Al28  1  0.21059778  0.87439112  0.64616700  1
  Al  Al29  1  0.77031532  0.76095613  0.31127611  1
  Al  Al30  1  0.88496522  0.87678998  0.10390446  1
  Al  Al31  1  0.44876054  0.76003498  0.83115835  1
  Al  Al32  1  0.56040096  0.87214957  0.57517149  1
  B  B33  1  0.88522728  0.20996680  0.11090984  1
  B  B34  1  0.88624299  0.87043539  0.61210738  1
  B  B35  1  0.55886662  0.86611804  0.06726476  1
  N  N36  1  0.22379897  0.20371865  0.34190860  1
  N  N37  1  0.07376673  0.11242085  0.08580705  1
  N  N38  1  0.88914663  0.20483633  0.81796482  1
  N  N39  1  0.79012013  0.05716779  0.62522066  1
  N  N40  1  0.55604343  0.20263532  0.38014091  1
  N  N41  1  0.46608514  0.06652340  0.12072644  1
  N  N42  1  0.22196816  0.20621785  0.87988995  1
  N  N43  1  0.12250754  0.08667109  0.58371310  1
  N  N44  1  0.88239514  0.20685044  0.39617236  1
  N  N45  1  0.79003724  0.11959945  0.12681857  1
  N  N46  1  0.55882395  0.20622976  0.88169653  1
  N  N47  1  0.45196995  0.08924679  0.64368276  1
  N  N48  1  0.22312893  0.53662087  0.38474375  1
  N  N49  1  0.10623344  0.43587983  0.12842385  1
  N  N50  1  0.88603129  0.53856488  0.88177594  1
  N  N51  1  0.77348142  0.44137063  0.62503045  1
  N  N52  1  0.55448026  0.54131131  0.37742220  1
  N  N53  1  0.44720234  0.42511308  0.13382552  1
  N  N54  1  0.22648761  0.53443515  0.87907806  1
  N  N55  1  0.11004244  0.42833140  0.63661008  1
  N  N56  1  0.88815816  0.54237395  0.37986323  1
  N  N57  1  0.79331283  0.39958739  0.13163869  1
  N  N58  1  0.55664407  0.53732938  0.88531401  1
  N  N59  1  0.44891946  0.42445157  0.62953269  1
  N  N60  1  0.21799696  0.87411301  0.33134507  1
  N  N61  1  0.12019407  0.75992837  0.08709715  1
  N  N62  1  0.87963988  0.87853804  0.89704883  1
  N  N63  1  0.79336234  0.77363621  0.63501693  1
  N  N64  1  0.55641788  0.87245751  0.38833450  1
  N  N65  1  0.45748906  0.77427146  0.12358318  1
  N  N66  1  0.21402223  0.87723684  0.83520177  1
  N  N67  1  0.07561001  0.77905398  0.58599396  1
  N  N68  1  0.88800777  0.87071288  0.31537937  1
  N  N69  1  0.74728998  0.76528738  0.12097035  1
  N  N70  1  0.55548677  0.86977367  0.90263877  1
  N  N71  1  0.44951842  0.75954257  0.63677053  1
