# generated using pymatgen
data_Al11BN12
_symmetry_space_group_name_H-M   'P 1'
_cell_length_a   9.29850093
_cell_length_b   9.27848209
_cell_length_c   10.12854083
_cell_angle_alpha   90.13647642
_cell_angle_beta   89.65493542
_cell_angle_gamma   59.87044471
_symmetry_Int_Tables_number   1
_chemical_formula_structural   Al11BN12
_chemical_formula_sum   'Al33 B3 N36'
_cell_volume   755.75770574
_cell_formula_units_Z   3
loop_
 _symmetry_equiv_pos_site_id
 _symmetry_equiv_pos_as_xyz
  1  'x, y, z'
loop_
 _atom_site_type_symbol
 _atom_site_label
 _atom_site_symmetry_multiplicity
 _atom_site_fract_x
 _atom_site_fract_y
 _atom_site_fract_z
 _atom_site_occupancy
  Al  Al0  1  0.11561710  0.09427435  0.39417851  1
  Al  Al1  1  0.21184322  0.20627691  0.13311932  1
  Al  Al2  1  0.78306467  0.08015650  0.81416056  1
  Al  Al3  1  0.89003736  0.20312063  0.60577520  1
  Al  Al4  1  0.45530312  0.08048536  0.31893020  1
  Al  Al5  1  0.56519748  0.19927027  0.06502124  1
  Al  Al6  1  0.10074589  0.09849279  0.88171998  1
  Al  Al7  1  0.21525100  0.21208788  0.64107351  1
  Al  Al8  1  0.78417692  0.10140824  0.31298480  1
  Al  Al9  1  0.45088250  0.09064340  0.81349225  1
  Al  Al10  1  0.56219492  0.19586849  0.56112355  1
  Al  Al11  1  0.11095246  0.42593140  0.38852240  1
  Al  Al12  1  0.21935092  0.53967350  0.14246882  1
  Al  Al13  1  0.78075090  0.42129613  0.88085177  1
  Al  Al14  1  0.89091541  0.54857769  0.64313267  1
  Al  Al15  1  0.44820751  0.42429799  0.33515547  1
  Al  Al16  1  0.56285956  0.53717155  0.13404381  1
  Al  Al17  1  0.10962934  0.43002756  0.89058135  1
  Al  Al18  1  0.21447108  0.54459295  0.63301291  1
  Al  Al19  1  0.77589565  0.43347821  0.39583407  1
  Al  Al20  1  0.88256624  0.53571587  0.14029257  1
  Al  Al21  1  0.44507540  0.42196244  0.83295927  1
  Al  Al22  1  0.55622619  0.54330386  0.64340040  1
  Al  Al23  1  0.10192802  0.76958837  0.38114067  1
  Al  Al24  1  0.21936832  0.88015986  0.13992933  1
  Al  Al25  1  0.76930317  0.76286880  0.89055372  1
  Al  Al26  1  0.44124349  0.75968239  0.39438320  1
  Al  Al27  1  0.11430390  0.75893605  0.89607037  1
  Al  Al28  1  0.21355126  0.87517486  0.64222940  1
  Al  Al29  1  0.78396882  0.76370215  0.38379858  1
  Al  Al30  1  0.88832053  0.87635071  0.10497338  1
  Al  Al31  1  0.44446044  0.76712865  0.88401181  1
  Al  Al32  1  0.55786072  0.87309431  0.60201590  1
  B  B33  1  0.88599274  0.20893316  0.09552054  1
  B  B34  1  0.89002968  0.87036556  0.59646244  1
  B  B35  1  0.55450401  0.86890100  0.09921750  1
  N  N36  1  0.22005367  0.20633631  0.32134009  1
  N  N37  1  0.07778479  0.11070127  0.07756090  1
  N  N38  1  0.88727045  0.20701736  0.81165536  1
  N  N39  1  0.79196559  0.05633665  0.62084503  1
  N  N40  1  0.56119143  0.19863167  0.37233736  1
  N  N41  1  0.46531425  0.05862932  0.12061720  1
  N  N42  1  0.21720807  0.20754889  0.83464998  1
  N  N43  1  0.12207541  0.09087442  0.58103276  1
  N  N44  1  0.88628085  0.20425191  0.38813296  1
  N  N45  1  0.79185899  0.11936518  0.12038481  1
  N  N46  1  0.56044649  0.19832114  0.87868277  1
  N  N47  1  0.44310594  0.10343166  0.62480991  1
  N  N48  1  0.21726071  0.54243794  0.33357627  1
  N  N49  1  0.10746679  0.43184859  0.07851557  1
  N  N50  1  0.88872272  0.54029530  0.83181655  1
  N  N51  1  0.77380982  0.44485639  0.58359510  1
  N  N52  1  0.56067329  0.54248587  0.32397077  1
  N  N53  1  0.44664111  0.42160831  0.11607670  1
  N  N54  1  0.21442390  0.54317499  0.82450145  1
  N  N55  1  0.10934216  0.42887968  0.57620120  1
  N  N56  1  0.88900670  0.53842933  0.32695726  1
  N  N57  1  0.79321353  0.39877104  0.07627616  1
  N  N58  1  0.55559914  0.54132560  0.83616337  1
  N  N59  1  0.44998124  0.42177995  0.61416996  1
  N  N60  1  0.22230558  0.87456366  0.32686852  1
  N  N61  1  0.12598227  0.75525057  0.08227552  1
  N  N62  1  0.88477637  0.87600040  0.89495326  1
  N  N63  1  0.80287097  0.77225231  0.58020716  1
  N  N64  1  0.55625731  0.87265875  0.38915017  1
  N  N65  1  0.45404667  0.77958017  0.07959813  1
  N  N66  1  0.21943083  0.87261230  0.83105091  1
  N  N67  1  0.08104928  0.77926683  0.57755155  1
  N  N68  1  0.88910108  0.86925427  0.30791666  1
  N  N69  1  0.74139411  0.76781643  0.08525541  1
  N  N70  1  0.56207106  0.86146479  0.81455973  1
  N  N71  1  0.43310049  0.75763598  0.58188852  1
