# generated using pymatgen
data_Al11BN12
_symmetry_space_group_name_H-M   'P 1'
_cell_length_a   9.29975121
_cell_length_b   9.33276617
_cell_length_c   10.16464261
_cell_angle_alpha   90.18443490
_cell_angle_beta   89.72478131
_cell_angle_gamma   59.86841163
_symmetry_Int_Tables_number   1
_chemical_formula_structural   Al11BN12
_chemical_formula_sum   'Al33 B3 N36'
_cell_volume   762.97947742
_cell_formula_units_Z   3
loop_
 _symmetry_equiv_pos_site_id
 _symmetry_equiv_pos_as_xyz
  1  'x, y, z'
loop_
 _atom_site_type_symbol
 _atom_site_label
 _atom_site_symmetry_multiplicity
 _atom_site_fract_x
 _atom_site_fract_y
 _atom_site_fract_z
 _atom_site_occupancy
  Al  Al0  1  0.11647358  0.09381776  0.39571318  1
  Al  Al1  1  0.21365562  0.20443810  0.13551372  1
  Al  Al2  1  0.78151680  0.08363831  0.81943603  1
  Al  Al3  1  0.88939093  0.19978931  0.59744668  1
  Al  Al4  1  0.45301860  0.08544589  0.32411905  1
  Al  Al5  1  0.56428703  0.19862004  0.06547749  1
  Al  Al6  1  0.10132157  0.09805154  0.88710788  1
  Al  Al7  1  0.21515889  0.21085479  0.64226175  1
  Al  Al8  1  0.78328432  0.09914536  0.31661973  1
  Al  Al9  1  0.44907392  0.09119752  0.81550318  1
  Al  Al10  1  0.56115360  0.19748108  0.56355228  1
  Al  Al11  1  0.11173432  0.42795460  0.38827830  1
  Al  Al12  1  0.21654929  0.54128981  0.14279533  1
  Al  Al13  1  0.77643412  0.42589636  0.82166615  1
  Al  Al14  1  0.89717811  0.54338980  0.63719886  1
  Al  Al15  1  0.44988834  0.42328699  0.31772785  1
  Al  Al16  1  0.56105955  0.53570217  0.10556867  1
  Al  Al17  1  0.11157709  0.42833892  0.89079268  1
  Al  Al18  1  0.21054599  0.54709493  0.63691204  1
  Al  Al19  1  0.78298343  0.41838968  0.33038033  1
  Al  Al20  1  0.88881193  0.53263987  0.13148356  1
  Al  Al21  1  0.44728938  0.42233186  0.82538053  1
  Al  Al22  1  0.55155345  0.54225118  0.61238459  1
  Al  Al23  1  0.10161422  0.76830726  0.38513830  1
  Al  Al24  1  0.21903054  0.88012793  0.14308680  1
  Al  Al25  1  0.77999084  0.76871907  0.82911698  1
  Al  Al26  1  0.44122781  0.76200932  0.39194319  1
  Al  Al27  1  0.11529479  0.75888979  0.89720564  1
  Al  Al28  1  0.21310987  0.87668168  0.64563975  1
  Al  Al29  1  0.76856676  0.76766206  0.31954280  1
  Al  Al30  1  0.88674163  0.87819047  0.10004643  1
  Al  Al31  1  0.44510331  0.76767956  0.89010694  1
  Al  Al32  1  0.56016763  0.87509841  0.59619135  1
  B  B33  1  0.88758307  0.20677223  0.10285843  1
  B  B34  1  0.88924507  0.87136720  0.60482403  1
  B  B35  1  0.55395413  0.87104961  0.10445374  1
  N  N36  1  0.21833983  0.20766104  0.32368485  1
  N  N37  1  0.08009442  0.10850824  0.08147624  1
  N  N38  1  0.89022810  0.20056929  0.82145955  1
  N  N39  1  0.79134496  0.05820747  0.62329770  1
  N  N40  1  0.55893011  0.20375810  0.37622727  1
  N  N41  1  0.46470609  0.06071553  0.12527191  1
  N  N42  1  0.21576542  0.20759314  0.83439276  1
  N  N43  1  0.12216981  0.09019956  0.58149155  1
  N  N44  1  0.88358685  0.20605523  0.39417414  1
  N  N45  1  0.79175068  0.11697884  0.12309020  1
  N  N46  1  0.55699200  0.20071234  0.88016444  1
  N  N47  1  0.44347288  0.10333845  0.62584601  1
  N  N48  1  0.21748342  0.54353526  0.33376811  1
  N  N49  1  0.11247796  0.42777259  0.07716154  1
  N  N50  1  0.89350623  0.53877115  0.83219432  1
  N  N51  1  0.77491404  0.43609788  0.62150553  1
  N  N52  1  0.55512144  0.54604357  0.32977137  1
  N  N53  1  0.44683421  0.41690729  0.12557432  1
  N  N54  1  0.21325576  0.54430559  0.82619159  1
  N  N55  1  0.11308843  0.42665710  0.57464469  1
  N  N56  1  0.89401271  0.53720965  0.32456330  1
  N  N57  1  0.79843789  0.39108636  0.12097488  1
  N  N58  1  0.55403290  0.53753679  0.87354610  1
  N  N59  1  0.44997958  0.41977121  0.62891191  1
  N  N60  1  0.22049870  0.87588413  0.32935955  1
  N  N61  1  0.12643480  0.75510212  0.08252324  1
  N  N62  1  0.88220566  0.87674741  0.89873412  1
  N  N63  1  0.80212275  0.77577100  0.62412337  1
  N  N64  1  0.55972578  0.87510386  0.39503379  1
  N  N65  1  0.45248940  0.78424097  0.08452706  1
  N  N66  1  0.22016189  0.87255129  0.83318509  1
  N  N67  1  0.08066432  0.77943756  0.58082367  1
  N  N68  1  0.89150940  0.87136329  0.31257151  1
  N  N69  1  0.73958577  0.77184438  0.11998567  1
  N  N70  1  0.55542804  0.86576246  0.82253670  1
  N  N71  1  0.43221125  0.76129451  0.58102419  1
