# generated using pymatgen
data_Al11BN12
_symmetry_space_group_name_H-M   'P 1'
_cell_length_a   9.26768257
_cell_length_b   9.26971647
_cell_length_c   10.03515234
_cell_angle_alpha   89.92836940
_cell_angle_beta   89.60070282
_cell_angle_gamma   59.94184482
_symmetry_Int_Tables_number   1
_chemical_formula_structural   Al11BN12
_chemical_formula_sum   'Al33 B3 N36'
_cell_volume   746.14872576
_cell_formula_units_Z   3
loop_
 _symmetry_equiv_pos_site_id
 _symmetry_equiv_pos_as_xyz
  1  'x, y, z'
loop_
 _atom_site_type_symbol
 _atom_site_label
 _atom_site_symmetry_multiplicity
 _atom_site_fract_x
 _atom_site_fract_y
 _atom_site_fract_z
 _atom_site_occupancy
  Al  Al0  1  0.11372871  0.09472687  0.40486456  1
  Al  Al1  1  0.21771688  0.20386457  0.14880635  1
  Al  Al2  1  0.78553296  0.07963496  0.83526700  1
  Al  Al3  1  0.89183077  0.20206941  0.62713131  1
  Al  Al4  1  0.44593841  0.09234156  0.39042292  1
  Al  Al5  1  0.55469449  0.20565363  0.14426663  1
  Al  Al6  1  0.10422793  0.09683036  0.89569571  1
  Al  Al7  1  0.22532524  0.20433057  0.65271754  1
  Al  Al8  1  0.78767990  0.09875637  0.32609868  1
  Al  Al9  1  0.44768927  0.08817131  0.90369389  1
  Al  Al10  1  0.55392133  0.20032339  0.64545421  1
  Al  Al11  1  0.11070484  0.42673880  0.40075578  1
  Al  Al12  1  0.22425818  0.53755490  0.15455917  1
  Al  Al13  1  0.77986728  0.42204940  0.89463378  1
  Al  Al14  1  0.88969263  0.54715644  0.65128834  1
  Al  Al15  1  0.44745642  0.42623024  0.39979787  1
  Al  Al16  1  0.56060186  0.53544424  0.14856462  1
  Al  Al17  1  0.11031266  0.42977612  0.90055691  1
  Al  Al18  1  0.21506027  0.54407042  0.64789377  1
  Al  Al19  1  0.77614184  0.43090591  0.40544306  1
  Al  Al20  1  0.88521004  0.53402151  0.15252726  1
  Al  Al21  1  0.44354684  0.42732296  0.89818735  1
  Al  Al22  1  0.55407267  0.54286605  0.65299431  1
  Al  Al23  1  0.10399228  0.76593906  0.39261249  1
  Al  Al24  1  0.21996255  0.87864863  0.15306671  1
  Al  Al25  1  0.76857127  0.76101980  0.91073259  1
  Al  Al26  1  0.44542269  0.76174046  0.39368598  1
  Al  Al27  1  0.11530909  0.75817024  0.90679234  1
  Al  Al28  1  0.21768666  0.87378689  0.65037300  1
  Al  Al29  1  0.77758495  0.76674296  0.38393387  1
  Al  Al30  1  0.88840322  0.87471548  0.11625523  1
  Al  Al31  1  0.44536660  0.76518578  0.90422600  1
  Al  Al32  1  0.56007074  0.87412754  0.64595537  1
  B  B33  1  0.88677855  0.20777923  0.11055581  1
  B  B34  1  0.88650710  0.87268084  0.60531578  1
  B  B35  1  0.55666040  0.86603465  0.15401051  1
  N  N36  1  0.22148735  0.20574658  0.33690432  1
  N  N37  1  0.08032043  0.10999187  0.09122527  1
  N  N38  1  0.88921818  0.20650773  0.82751453  1
  N  N39  1  0.79410771  0.05551708  0.63299660  1
  N  N40  1  0.55407604  0.20653266  0.33566506  1
  N  N41  1  0.45603364  0.06940163  0.09573453  1
  N  N42  1  0.22384198  0.20438274  0.84448837  1
  N  N43  1  0.12088696  0.09123970  0.59357248  1
  N  N44  1  0.88903456  0.20631289  0.38615882  1
  N  N45  1  0.79232754  0.11747955  0.12688055  1
  N  N46  1  0.55122611  0.20539853  0.83875461  1
  N  N47  1  0.44457732  0.09296613  0.58182583  1
  N  N48  1  0.22334957  0.53840298  0.34424629  1
  N  N49  1  0.11025941  0.42977275  0.09071090  1
  N  N50  1  0.88703370  0.54185304  0.84234920  1
  N  N51  1  0.77423263  0.43904420  0.59524594  1
  N  N52  1  0.55735106  0.53779443  0.33718151  1
  N  N53  1  0.44415342  0.42753862  0.08743908  1
  N  N54  1  0.22098893  0.54070310  0.83686800  1
  N  N55  1  0.11156303  0.42641368  0.59091067  1
  N  N56  1  0.88863269  0.53850009  0.34095970  1
  N  N57  1  0.79296350  0.39869207  0.09029946  1
  N  N58  1  0.55383458  0.54175235  0.84422668  1
  N  N59  1  0.44545756  0.42826672  0.59054613  1
  N  N60  1  0.22123230  0.87431064  0.34147219  1
  N  N61  1  0.12614668  0.75453476  0.09472914  1
  N  N62  1  0.88559543  0.87252594  0.90629462  1
  N  N63  1  0.79190689  0.77634132  0.58455899  1
  N  N64  1  0.55405316  0.87203883  0.31963994  1
  N  N65  1  0.45425675  0.77446842  0.09786616  1
  N  N66  1  0.22265265  0.87112219  0.84134332  1
  N  N67  1  0.07990407  0.77723732  0.59010797  1
  N  N68  1  0.89123801  0.86917996  0.32157529  1
  N  N69  1  0.74610676  0.76485763  0.10140719  1
  N  N70  1  0.55663264  0.87128947  0.83368719  1
  N  N71  1  0.44452517  0.76257314  0.58598095  1
