# generated using pymatgen
data_Al11BN12
_symmetry_space_group_name_H-M   'P 1'
_cell_length_a   9.28001383
_cell_length_b   9.28203630
_cell_length_c   10.18746387
_cell_angle_alpha   90.11112117
_cell_angle_beta   89.65987209
_cell_angle_gamma   59.91933867
_symmetry_Int_Tables_number   1
_chemical_formula_structural   Al11BN12
_chemical_formula_sum   'Al33 B3 N36'
_cell_volume   759.31219295
_cell_formula_units_Z   3
loop_
 _symmetry_equiv_pos_site_id
 _symmetry_equiv_pos_as_xyz
  1  'x, y, z'
loop_
 _atom_site_type_symbol
 _atom_site_label
 _atom_site_symmetry_multiplicity
 _atom_site_fract_x
 _atom_site_fract_y
 _atom_site_fract_z
 _atom_site_occupancy
  Al  Al0  1  0.11564153  0.09387091  0.39516388  1
  Al  Al1  1  0.21362056  0.20410307  0.13446209  1
  Al  Al2  1  0.78121077  0.08206229  0.81510971  1
  Al  Al3  1  0.89037419  0.20230739  0.60697059  1
  Al  Al4  1  0.45411392  0.08358735  0.32087910  1
  Al  Al5  1  0.56347033  0.20106462  0.06417626  1
  Al  Al6  1  0.10108442  0.09840729  0.88181242  1
  Al  Al7  1  0.21616237  0.21138205  0.64078502  1
  Al  Al8  1  0.78378016  0.10261990  0.31306866  1
  Al  Al9  1  0.45043795  0.09061433  0.81372692  1
  Al  Al10  1  0.56241782  0.19806279  0.56215498  1
  Al  Al11  1  0.11099352  0.42665055  0.38902905  1
  Al  Al12  1  0.21703876  0.54069674  0.14300052  1
  Al  Al13  1  0.77905288  0.42088825  0.88125924  1
  Al  Al14  1  0.89136329  0.54791419  0.64336766  1
  Al  Al15  1  0.44942134  0.42201057  0.32157838  1
  Al  Al16  1  0.56367964  0.53856113  0.13479410  1
  Al  Al17  1  0.11099687  0.42850289  0.89008747  1
  Al  Al18  1  0.21113977  0.54713901  0.63340439  1
  Al  Al19  1  0.77608164  0.43272949  0.39652736  1
  Al  Al20  1  0.88678517  0.52795918  0.13582646  1
  Al  Al21  1  0.44508113  0.42015247  0.81926591  1
  Al  Al22  1  0.55755677  0.54570482  0.64478659  1
  Al  Al23  1  0.10085806  0.76928399  0.38419819  1
  Al  Al24  1  0.21925295  0.87962966  0.14188096  1
  Al  Al25  1  0.77190076  0.76332834  0.87879885  1
  Al  Al26  1  0.44095811  0.75877598  0.39492510  1
  Al  Al27  1  0.11475997  0.75859354  0.89618360  1
  Al  Al28  1  0.21467471  0.87510612  0.64289527  1
  Al  Al29  1  0.77594620  0.76396446  0.34044436  1
  Al  Al30  1  0.88903183  0.87847502  0.10226943  1
  Al  Al31  1  0.44312974  0.76676970  0.88753360  1
  Al  Al32  1  0.56294729  0.87350737  0.59380017  1
  B  B33  1  0.88585185  0.20804572  0.09501389  1
  B  B34  1  0.88746777  0.86973642  0.60045564  1
  B  B35  1  0.55491892  0.86886402  0.10022948  1
  N  N36  1  0.21965745  0.20666962  0.32205779  1
  N  N37  1  0.07827048  0.10989256  0.07768860  1
  N  N38  1  0.88718186  0.20720088  0.81249381  1
  N  N39  1  0.79141964  0.05811450  0.62305012  1
  N  N40  1  0.56065696  0.20106773  0.37474204  1
  N  N41  1  0.46580860  0.05863415  0.12305298  1
  N  N42  1  0.21659834  0.20778894  0.83280351  1
  N  N43  1  0.12255211  0.09045040  0.58098074  1
  N  N44  1  0.88664948  0.20414035  0.38794354  1
  N  N45  1  0.79059249  0.12022458  0.12034955  1
  N  N46  1  0.55749349  0.20163319  0.87969385  1
  N  N47  1  0.44504408  0.10215475  0.62520821  1
  N  N48  1  0.21652396  0.54324656  0.33363447  1
  N  N49  1  0.11090192  0.42829313  0.07704913  1
  N  N50  1  0.88900316  0.53794329  0.83331644  1
  N  N51  1  0.77469265  0.44361766  0.58340662  1
  N  N52  1  0.56147127  0.54300019  0.32418226  1
  N  N53  1  0.44780908  0.41919672  0.12669053  1
  N  N54  1  0.21207369  0.54445543  0.82413500  1
  N  N55  1  0.10981923  0.42819784  0.57543338  1
  N  N56  1  0.89131498  0.53332560  0.32236245  1
  N  N57  1  0.79257779  0.39737430  0.07487180  1
  N  N58  1  0.55406807  0.54216069  0.83727887  1
  N  N59  1  0.45070841  0.42081555  0.62471004  1
  N  N60  1  0.22198204  0.87433555  0.32790127  1
  N  N61  1  0.12744265  0.75439954  0.08124060  1
  N  N62  1  0.88308010  0.87849238  0.89918563  1
  N  N63  1  0.80181456  0.77360018  0.59924027  1
  N  N64  1  0.55756105  0.87330981  0.38972992  1
  N  N65  1  0.45406246  0.77901622  0.08190797  1
  N  N66  1  0.21886719  0.87281676  0.83099467  1
  N  N67  1  0.08106194  0.77974887  0.57800995  1
  N  N68  1  0.89135262  0.87133960  0.30565082  1
  N  N69  1  0.74310065  0.76700236  0.09948422  1
  N  N70  1  0.55755906  0.86517908  0.82547113  1
  N  N71  1  0.43515652  0.75878446  0.58146905  1
