# generated using pymatgen
data_Al11BN12
_symmetry_space_group_name_H-M   'P 1'
_cell_length_a   9.27601039
_cell_length_b   9.27397372
_cell_length_c   9.98677431
_cell_angle_alpha   90.00929116
_cell_angle_beta   89.75133132
_cell_angle_gamma   59.91884039
_symmetry_Int_Tables_number   1
_chemical_formula_structural   Al11BN12
_chemical_formula_sum   'Al33 B3 N36'
_cell_volume   743.39823296
_cell_formula_units_Z   3
loop_
 _symmetry_equiv_pos_site_id
 _symmetry_equiv_pos_as_xyz
  1  'x, y, z'
loop_
 _atom_site_type_symbol
 _atom_site_label
 _atom_site_symmetry_multiplicity
 _atom_site_fract_x
 _atom_site_fract_y
 _atom_site_fract_z
 _atom_site_occupancy
  Al  Al0  1  0.11123524  0.09723542  0.39594533  1
  Al  Al1  1  0.21955550  0.20350705  0.14908912  1
  Al  Al2  1  0.78089300  0.08641783  0.86276826  1
  Al  Al3  1  0.89144351  0.19965295  0.64634229  1
  Al  Al4  1  0.44642049  0.09249385  0.39133701  1
  Al  Al5  1  0.55452902  0.20574179  0.14301340  1
  Al  Al6  1  0.10450945  0.09632180  0.90375696  1
  Al  Al7  1  0.22270752  0.20395873  0.65042627  1
  Al  Al8  1  0.78490742  0.09528035  0.32311565  1
  Al  Al9  1  0.44587551  0.08795095  0.90337292  1
  Al  Al10  1  0.55694544  0.19817143  0.64633300  1
  Al  Al11  1  0.11141305  0.42766146  0.40056632  1
  Al  Al12  1  0.22417365  0.53828756  0.15362533  1
  Al  Al13  1  0.77981673  0.42175664  0.90320936  1
  Al  Al14  1  0.88909937  0.54452199  0.64896415  1
  Al  Al15  1  0.44667577  0.42691981  0.40047771  1
  Al  Al16  1  0.56069377  0.53660500  0.14900015  1
  Al  Al17  1  0.10952518  0.42932571  0.89964992  1
  Al  Al18  1  0.21474566  0.54389876  0.64808549  1
  Al  Al19  1  0.77843585  0.42810580  0.39687764  1
  Al  Al20  1  0.88469393  0.53626306  0.15284430  1
  Al  Al21  1  0.44281440  0.42828654  0.89808000  1
  Al  Al22  1  0.55592232  0.53994984  0.65109830  1
  Al  Al23  1  0.10523932  0.76506826  0.39322739  1
  Al  Al24  1  0.22169872  0.87840625  0.15295879  1
  Al  Al25  1  0.76853761  0.75963472  0.90929955  1
  Al  Al26  1  0.44591018  0.76203245  0.39396766  1
  Al  Al27  1  0.11560763  0.75811577  0.90527145  1
  Al  Al28  1  0.21592247  0.87521349  0.64806188  1
  Al  Al29  1  0.77756503  0.76736280  0.38521321  1
  Al  Al30  1  0.88849397  0.87403285  0.11551106  1
  Al  Al31  1  0.44526516  0.76469711  0.90325090  1
  Al  Al32  1  0.56024718  0.87422199  0.64648244  1
  B  B33  1  0.89033018  0.21094052  0.14988749  1
  B  B34  1  0.88611774  0.87503413  0.60546276  1
  B  B35  1  0.55691121  0.86659693  0.15361645  1
  N  N36  1  0.22321421  0.20698942  0.33792067  1
  N  N37  1  0.08590925  0.10794797  0.09599210  1
  N  N38  1  0.88888873  0.20586898  0.83513677  1
  N  N39  1  0.79442607  0.05914500  0.62421256  1
  N  N40  1  0.55410829  0.20736270  0.33710367  1
  N  N41  1  0.45606608  0.06975486  0.09581984  1
  N  N42  1  0.22196352  0.20339205  0.84323469  1
  N  N43  1  0.11078320  0.09545282  0.58606239  1
  N  N44  1  0.89624597  0.21309215  0.32234750  1
  N  N45  1  0.78851493  0.11461072  0.12005576  1
  N  N46  1  0.55056200  0.20512698  0.84030152  1
  N  N47  1  0.44347551  0.09296638  0.58322016  1
  N  N48  1  0.22366555  0.53866694  0.34418182  1
  N  N49  1  0.11013473  0.43022189  0.09054916  1
  N  N50  1  0.88553909  0.53972453  0.84100158  1
  N  N51  1  0.77842858  0.42677165  0.58814115  1
  N  N52  1  0.55633076  0.53825496  0.33846747  1
  N  N53  1  0.44391660  0.42855808  0.08779108  1
  N  N54  1  0.22083036  0.54002399  0.83715226  1
  N  N55  1  0.11104176  0.42643724  0.59097664  1
  N  N56  1  0.88923423  0.54017724  0.34224795  1
  N  N57  1  0.79163922  0.40284114  0.09584131  1
  N  N58  1  0.55579981  0.54014883  0.84347950  1
  N  N59  1  0.44487345  0.42743848  0.59157201  1
  N  N60  1  0.22181615  0.87357786  0.34248205  1
  N  N61  1  0.12620067  0.75542684  0.09420285  1
  N  N62  1  0.88721668  0.86812698  0.90225186  1
  N  N63  1  0.79132791  0.77667578  0.58560298  1
  N  N64  1  0.55439638  0.87238841  0.32004059  1
  N  N65  1  0.45503493  0.77423350  0.09769725  1
  N  N66  1  0.22172557  0.87281713  0.84019408  1
  N  N67  1  0.08005790  0.77690635  0.59057082  1
  N  N68  1  0.89285902  0.86784704  0.32259090  1
  N  N69  1  0.74626948  0.76626668  0.10105357  1
  N  N70  1  0.55600969  0.87117606  0.83411266  1
  N  N71  1  0.44535144  0.76201303  0.58670510  1
