# generated using pymatgen
data_Al11BN12
_symmetry_space_group_name_H-M   'P 1'
_cell_length_a   9.27516114
_cell_length_b   9.26143303
_cell_length_c   10.15827555
_cell_angle_alpha   90.19366784
_cell_angle_beta   89.65800895
_cell_angle_gamma   59.90275555
_symmetry_Int_Tables_number   1
_chemical_formula_structural   Al11BN12
_chemical_formula_sum   'Al33 B3 N36'
_cell_volume   754.92595119
_cell_formula_units_Z   3
loop_
 _symmetry_equiv_pos_site_id
 _symmetry_equiv_pos_as_xyz
  1  'x, y, z'
loop_
 _atom_site_type_symbol
 _atom_site_label
 _atom_site_symmetry_multiplicity
 _atom_site_fract_x
 _atom_site_fract_y
 _atom_site_fract_z
 _atom_site_occupancy
  Al  Al0  1  0.11525756  0.09427310  0.40354899  1
  Al  Al1  1  0.21107234  0.20663305  0.14274300  1
  Al  Al2  1  0.78232793  0.08123280  0.82342965  1
  Al  Al3  1  0.89018651  0.20331320  0.61502355  1
  Al  Al4  1  0.45463793  0.08127072  0.32788537  1
  Al  Al5  1  0.56795818  0.19286251  0.07498596  1
  Al  Al6  1  0.10102859  0.09861578  0.89097451  1
  Al  Al7  1  0.21474854  0.21244287  0.65055746  1
  Al  Al8  1  0.78257406  0.10269938  0.32183079  1
  Al  Al9  1  0.45117626  0.09245635  0.82228597  1
  Al  Al10  1  0.56573953  0.18964876  0.56894208  1
  Al  Al11  1  0.11119841  0.42626751  0.39739602  1
  Al  Al12  1  0.22484498  0.53740197  0.15336365  1
  Al  Al13  1  0.78027396  0.42177074  0.88913964  1
  Al  Al14  1  0.89040572  0.54838889  0.65213350  1
  Al  Al15  1  0.44357036  0.43323723  0.39597137  1
  Al  Al16  1  0.56125206  0.53478595  0.14602789  1
  Al  Al17  1  0.11062158  0.43020131  0.89956079  1
  Al  Al18  1  0.21858900  0.54190007  0.64473533  1
  Al  Al19  1  0.77475656  0.43372527  0.40502054  1
  Al  Al20  1  0.88300269  0.53578081  0.14937163  1
  Al  Al21  1  0.44055250  0.43183771  0.89774436  1
  Al  Al22  1  0.55262203  0.54010601  0.65373808  1
  Al  Al23  1  0.10214004  0.76886738  0.38983155  1
  Al  Al24  1  0.21968773  0.87987618  0.14909054  1
  Al  Al25  1  0.76939737  0.76344959  0.89972958  1
  Al  Al26  1  0.44104103  0.75977189  0.40343734  1
  Al  Al27  1  0.11449945  0.75895049  0.90489971  1
  Al  Al28  1  0.21355290  0.87489995  0.65142344  1
  Al  Al29  1  0.78341663  0.76413936  0.39330534  1
  Al  Al30  1  0.88962610  0.87508120  0.11494981  1
  Al  Al31  1  0.44510701  0.76674867  0.89232321  1
  Al  Al32  1  0.55750230  0.87203498  0.61258714  1
  B  B33  1  0.88582465  0.20933096  0.10450300  1
  B  B34  1  0.89097612  0.86912521  0.60577726  1
  B  B35  1  0.55472824  0.86792293  0.10842502  1
  N  N36  1  0.21904693  0.20661431  0.33027836  1
  N  N37  1  0.07768980  0.11063593  0.08640924  1
  N  N38  1  0.88785934  0.20720187  0.82055051  1
  N  N39  1  0.79282470  0.05575878  0.63031203  1
  N  N40  1  0.56028380  0.19894426  0.37885744  1
  N  N41  1  0.46473065  0.05814965  0.13026118  1
  N  N42  1  0.21714224  0.20790138  0.84337056  1
  N  N43  1  0.12235815  0.09055219  0.58985463  1
  N  N44  1  0.88570373  0.20438971  0.39770734  1
  N  N45  1  0.79163078  0.11951136  0.13033031  1
  N  N46  1  0.56173514  0.19725992  0.88765562  1
  N  N47  1  0.44305047  0.10354094  0.63446452  1
  N  N48  1  0.22156900  0.54004541  0.34049449  1
  N  N49  1  0.10892657  0.43199798  0.08776914  1
  N  N50  1  0.88919693  0.54066289  0.84069071  1
  N  N51  1  0.77183905  0.44509686  0.59303960  1
  N  N52  1  0.55721139  0.53989875  0.33249039  1
  N  N53  1  0.44333468  0.42901049  0.08884979  1
  N  N54  1  0.22133169  0.54007465  0.83331260  1
  N  N55  1  0.10969070  0.42934523  0.58543243  1
  N  N56  1  0.88840786  0.53865047  0.33597796  1
  N  N57  1  0.79242547  0.39926928  0.08541846  1
  N  N58  1  0.55394309  0.53950341  0.84246917  1
  N  N59  1  0.44596273  0.42884277  0.58660540  1
  N  N60  1  0.22207337  0.87466666  0.33571307  1
  N  N61  1  0.12675991  0.75418519  0.09135699  1
  N  N62  1  0.88538419  0.87624225  0.90382658  1
  N  N63  1  0.80236856  0.77215863  0.58918099  1
  N  N64  1  0.55551958  0.87304863  0.39816470  1
  N  N65  1  0.45476198  0.77815487  0.08850736  1
  N  N66  1  0.21965633  0.87274380  0.83993084  1
  N  N67  1  0.08191690  0.77766847  0.58681445  1
  N  N68  1  0.88911982  0.86919740  0.31709506  1
  N  N69  1  0.74192157  0.76802422  0.09410206  1
  N  N70  1  0.56206592  0.86200823  0.82345538  1
  N  N71  1  0.43343333  0.75634966  0.59115553  1
