# generated using pymatgen
data_Al11BN12
_symmetry_space_group_name_H-M   'P 1'
_cell_length_a   9.28063440
_cell_length_b   9.29544155
_cell_length_c   10.00303785
_cell_angle_alpha   89.94164451
_cell_angle_beta   89.66918610
_cell_angle_gamma   59.88723529
_symmetry_Int_Tables_number   1
_chemical_formula_structural   Al11BN12
_chemical_formula_sum   'Al33 B3 N36'
_cell_volume   746.46141267
_cell_formula_units_Z   3
loop_
 _symmetry_equiv_pos_site_id
 _symmetry_equiv_pos_as_xyz
  1  'x, y, z'
loop_
 _atom_site_type_symbol
 _atom_site_label
 _atom_site_symmetry_multiplicity
 _atom_site_fract_x
 _atom_site_fract_y
 _atom_site_fract_z
 _atom_site_occupancy
  Al  Al0  1  0.11324250  0.09397573  0.40731926  1
  Al  Al1  1  0.21678815  0.20406744  0.14783939  1
  Al  Al2  1  0.78073717  0.08208413  0.83121710  1
  Al  Al3  1  0.89209440  0.20220670  0.61979578  1
  Al  Al4  1  0.44279593  0.09027970  0.38549334  1
  Al  Al5  1  0.56079537  0.20302453  0.11798439  1
  Al  Al6  1  0.10284636  0.09735492  0.89223435  1
  Al  Al7  1  0.22716708  0.20400968  0.65376963  1
  Al  Al8  1  0.78561657  0.10042788  0.32692809  1
  Al  Al9  1  0.44744453  0.08663039  0.90470758  1
  Al  Al10  1  0.56337716  0.19511789  0.59960547  1
  Al  Al11  1  0.11012076  0.42650079  0.40086480  1
  Al  Al12  1  0.22322744  0.53870418  0.15515491  1
  Al  Al13  1  0.78057915  0.42146814  0.89124810  1
  Al  Al14  1  0.89090485  0.54750233  0.65218297  1
  Al  Al15  1  0.44469120  0.43121387  0.39609282  1
  Al  Al16  1  0.56138031  0.53677954  0.14843761  1
  Al  Al17  1  0.11151968  0.42972774  0.90056681  1
  Al  Al18  1  0.21667735  0.54268667  0.64824673  1
  Al  Al19  1  0.77543392  0.43175759  0.40785024  1
  Al  Al20  1  0.88556730  0.53384250  0.15116032  1
  Al  Al21  1  0.44315358  0.42930623  0.89987487  1
  Al  Al22  1  0.55404465  0.54336862  0.65400662  1
  Al  Al23  1  0.10213800  0.76719031  0.39265664  1
  Al  Al24  1  0.21951284  0.87906543  0.15214422  1
  Al  Al25  1  0.76928835  0.76216335  0.91069886  1
  Al  Al26  1  0.44454643  0.76182893  0.39423649  1
  Al  Al27  1  0.11424082  0.75925807  0.90658346  1
  Al  Al28  1  0.21817062  0.87324954  0.65132690  1
  Al  Al29  1  0.77746904  0.76571765  0.38314118  1
  Al  Al30  1  0.88884672  0.87477405  0.11721857  1
  Al  Al31  1  0.44563288  0.76535638  0.90453231  1
  Al  Al32  1  0.56013939  0.87318045  0.64619613  1
  B  B33  1  0.88793615  0.20850129  0.10664110  1
  B  B34  1  0.88729732  0.87007244  0.60532845  1
  B  B35  1  0.55577097  0.86590805  0.15473908  1
  N  N36  1  0.21767304  0.20618425  0.33625302  1
  N  N37  1  0.07989533  0.11053955  0.08969029  1
  N  N38  1  0.88818184  0.20637537  0.82412715  1
  N  N39  1  0.79329097  0.05385022  0.63197298  1
  N  N40  1  0.55628386  0.20493802  0.35389970  1
  N  N41  1  0.45503929  0.06687924  0.09944598  1
  N  N42  1  0.22413400  0.20445603  0.84529650  1
  N  N43  1  0.12378125  0.09001052  0.59599208  1
  N  N44  1  0.88503216  0.20390374  0.40356627  1
  N  N45  1  0.79498453  0.11850214  0.13137913  1
  N  N46  1  0.55629533  0.20314904  0.87022169  1
  N  N47  1  0.44318580  0.08951045  0.57987513  1
  N  N48  1  0.22063726  0.54001754  0.34480235  1
  N  N49  1  0.11111026  0.42968402  0.09097758  1
  N  N50  1  0.88796655  0.54248900  0.84326825  1
  N  N51  1  0.77354902  0.44274541  0.59740606  1
  N  N52  1  0.55828415  0.53861138  0.33713937  1
  N  N53  1  0.44255198  0.43245449  0.09203281  1
  N  N54  1  0.22137869  0.54124356  0.83736084  1
  N  N55  1  0.11277322  0.42574438  0.59135865  1
  N  N56  1  0.88835550  0.53709252  0.34048601  1
  N  N57  1  0.79366763  0.39840782  0.08880036  1
  N  N58  1  0.55341197  0.54269116  0.84498514  1
  N  N59  1  0.44594369  0.42971970  0.58959429  1
  N  N60  1  0.21980001  0.87503706  0.34150278  1
  N  N61  1  0.12530311  0.75522397  0.09520771  1
  N  N62  1  0.88506563  0.87470548  0.90556314  1
  N  N63  1  0.79250042  0.77534527  0.58446088  1
  N  N64  1  0.55397573  0.86997718  0.31975495  1
  N  N65  1  0.45409486  0.77462589  0.09817641  1
  N  N66  1  0.22299258  0.87077283  0.84224650  1
  N  N67  1  0.07985044  0.77682793  0.59092141  1
  N  N68  1  0.88945419  0.87012566  0.32192417  1
  N  N69  1  0.74623199  0.76504884  0.10175207  1
  N  N70  1  0.55688279  0.87082947  0.83395338  1
  N  N71  1  0.44398864  0.76208538  0.58647015  1
