# generated using pymatgen
data_Al11BN12
_symmetry_space_group_name_H-M   'P 1'
_cell_length_a   9.25279612
_cell_length_b   9.25451478
_cell_length_c   9.94712141
_cell_angle_alpha   90.02268918
_cell_angle_beta   89.99849141
_cell_angle_gamma   59.98643290
_symmetry_Int_Tables_number   1
_chemical_formula_structural   Al11BN12
_chemical_formula_sum   'Al33 B3 N36'
_cell_volume   737.55643912
_cell_formula_units_Z   3
loop_
 _symmetry_equiv_pos_site_id
 _symmetry_equiv_pos_as_xyz
  1  'x, y, z'
loop_
 _atom_site_type_symbol
 _atom_site_label
 _atom_site_symmetry_multiplicity
 _atom_site_fract_x
 _atom_site_fract_y
 _atom_site_fract_z
 _atom_site_occupancy
  Al  Al0  1  0.10860750  0.09657400  0.39281565  1
  Al  Al1  1  0.22018366  0.20262173  0.14809267  1
  Al  Al2  1  0.78092153  0.09494234  0.90275365  1
  Al  Al3  1  0.89068639  0.19894081  0.64719235  1
  Al  Al4  1  0.44524002  0.09235942  0.39192833  1
  Al  Al5  1  0.56139812  0.20253344  0.14949964  1
  Al  Al6  1  0.10540216  0.09627943  0.90284135  1
  Al  Al7  1  0.22307299  0.20356317  0.64951836  1
  Al  Al8  1  0.78189627  0.09158112  0.38848815  1
  Al  Al9  1  0.44834905  0.08827148  0.90304437  1
  Al  Al10  1  0.56078151  0.19725464  0.64849311  1
  Al  Al11  1  0.11103306  0.42726353  0.39964675  1
  Al  Al12  1  0.22304808  0.53872668  0.15067585  1
  Al  Al13  1  0.78051668  0.42235708  0.90241536  1
  Al  Al14  1  0.88909014  0.54368599  0.64853301  1
  Al  Al15  1  0.44527070  0.42770015  0.40021758  1
  Al  Al16  1  0.56051996  0.53678591  0.14834356  1
  Al  Al17  1  0.11022442  0.42896598  0.89871711  1
  Al  Al18  1  0.21577453  0.54317147  0.64874880  1
  Al  Al19  1  0.77863493  0.42530944  0.39346130  1
  Al  Al20  1  0.88494371  0.53690170  0.14980332  1
  Al  Al21  1  0.44386345  0.42755022  0.89802240  1
  Al  Al22  1  0.55668695  0.53946099  0.65014498  1
  Al  Al23  1  0.10663879  0.76364126  0.39531745  1
  Al  Al24  1  0.22071939  0.87745401  0.15003313  1
  Al  Al25  1  0.77280124  0.76457082  0.90313180  1
  Al  Al26  1  0.44589859  0.76197250  0.39274408  1
  Al  Al27  1  0.10853190  0.76241812  0.89900078  1
  Al  Al28  1  0.21691293  0.87521492  0.64800800  1
  Al  Al29  1  0.77705058  0.76499850  0.38790531  1
  Al  Al30  1  0.88631336  0.87713300  0.13885316  1
  Al  Al31  1  0.44645415  0.76443974  0.90240460  1
  Al  Al32  1  0.56027509  0.87412077  0.64700737  1
  B  B33  1  0.88754591  0.20625562  0.15143976  1
  B  B34  1  0.88794870  0.87301422  0.61418312  1
  B  B35  1  0.55650812  0.87038537  0.15209413  1
  N  N36  1  0.22176584  0.20654635  0.33756466  1
  N  N37  1  0.08566570  0.10704034  0.09633489  1
  N  N38  1  0.88812595  0.20518836  0.83457465  1
  N  N39  1  0.79269693  0.06628866  0.58653508  1
  N  N40  1  0.55647869  0.20592003  0.33993796  1
  N  N41  1  0.45765433  0.06967714  0.09704557  1
  N  N42  1  0.22332786  0.20319731  0.84299052  1
  N  N43  1  0.10993608  0.09551407  0.58457372  1
  N  N44  1  0.88899258  0.20599863  0.31933466  1
  N  N45  1  0.78953047  0.11080560  0.09694869  1
  N  N46  1  0.55683945  0.20324850  0.84088017  1
  N  N47  1  0.44448289  0.09331335  0.58418987  1
  N  N48  1  0.22234214  0.53916851  0.34232015  1
  N  N49  1  0.11044555  0.42884051  0.08969696  1
  N  N50  1  0.88580986  0.54035929  0.84093768  1
  N  N51  1  0.77904345  0.42539979  0.58609995  1
  N  N52  1  0.55535002  0.53845648  0.33803559  1
  N  N53  1  0.44457637  0.42693375  0.08913580  1
  N  N54  1  0.22155229  0.53988200  0.83791673  1
  N  N55  1  0.11100822  0.42654803  0.59027750  1
  N  N56  1  0.88875929  0.53923681  0.34024999  1
  N  N57  1  0.79081254  0.40234703  0.09624476  1
  N  N58  1  0.55636424  0.54011368  0.84296868  1
  N  N59  1  0.44493727  0.42701133  0.59168749  1
  N  N60  1  0.22157285  0.87215962  0.34033116  1
  N  N61  1  0.11609123  0.75920699  0.09044304  1
  N  N62  1  0.88582046  0.87315207  0.85656140  1
  N  N63  1  0.79101476  0.77618100  0.58635663  1
  N  N64  1  0.55521488  0.87226023  0.31921827  1
  N  N65  1  0.45600542  0.77405300  0.09691389  1
  N  N66  1  0.22285665  0.87280439  0.84039006  1
  N  N67  1  0.08186251  0.77608609  0.59120369  1
  N  N68  1  0.88969449  0.87199670  0.32900434  1
  N  N69  1  0.75082228  0.77109258  0.09783813  1
  N  N70  1  0.55589459  0.87160217  0.83441990  1
  N  N71  1  0.44564324  0.76205234  0.58582160  1
