# generated using pymatgen
data_Al11BN12
_symmetry_space_group_name_H-M   'P 1'
_cell_length_a   9.28793004
_cell_length_b   9.27521390
_cell_length_c   10.01368319
_cell_angle_alpha   90.04928612
_cell_angle_beta   89.75497115
_cell_angle_gamma   59.90648204
_symmetry_Int_Tables_number   1
_chemical_formula_structural   Al11BN12
_chemical_formula_sum   'Al33 B3 N36'
_cell_volume   746.36407884
_cell_formula_units_Z   3
loop_
 _symmetry_equiv_pos_site_id
 _symmetry_equiv_pos_as_xyz
  1  'x, y, z'
loop_
 _atom_site_type_symbol
 _atom_site_label
 _atom_site_symmetry_multiplicity
 _atom_site_fract_x
 _atom_site_fract_y
 _atom_site_fract_z
 _atom_site_occupancy
  Al  Al0  1  0.11365473  0.08894991  0.38971455  1
  Al  Al1  1  0.22228841  0.20485869  0.06827981  1
  Al  Al2  1  0.77694161  0.08676515  0.80515314  1
  Al  Al3  1  0.88901262  0.20241708  0.59531406  1
  Al  Al4  1  0.44800396  0.08914635  0.31021723  1
  Al  Al5  1  0.56330073  0.20278339  0.06580032  1
  Al  Al6  1  0.09536521  0.09661167  0.88037321  1
  Al  Al7  1  0.23076411  0.20811505  0.56729153  1
  Al  Al8  1  0.78264668  0.09406603  0.32863339  1
  Al  Al9  1  0.44490257  0.09160497  0.82386017  1
  Al  Al10  1  0.55927261  0.19909319  0.56307940  1
  Al  Al11  1  0.11262768  0.42799907  0.31457760  1
  Al  Al12  1  0.22099979  0.53945357  0.06351156  1
  Al  Al13  1  0.77590266  0.43093337  0.80775316  1
  Al  Al14  1  0.89027399  0.54644046  0.56233903  1
  Al  Al15  1  0.44416503  0.42837484  0.31546646  1
  Al  Al16  1  0.56231022  0.53390850  0.06581893  1
  Al  Al17  1  0.11014336  0.42435797  0.81546798  1
  Al  Al18  1  0.21773965  0.54470657  0.56629822  1
  Al  Al19  1  0.78227457  0.42169527  0.32183013  1
  Al  Al20  1  0.88579046  0.53643598  0.06628481  1
  Al  Al21  1  0.44639643  0.42624601  0.81492969  1
  Al  Al22  1  0.55440687  0.54411992  0.56233091  1
  Al  Al23  1  0.10626088  0.76029594  0.32270361  1
  Al  Al24  1  0.21457281  0.88187622  0.12705534  1
  Al  Al25  1  0.77722109  0.76348536  0.81809147  1
  Al  Al26  1  0.45433767  0.76239376  0.31007410  1
  Al  Al27  1  0.10005848  0.75871407  0.81566293  1
  Al  Al28  1  0.21830372  0.87720077  0.63856186  1
  Al  Al29  1  0.77460080  0.76566488  0.31660089  1
  Al  Al30  1  0.88395892  0.87849163  0.06683818  1
  Al  Al31  1  0.45078846  0.75928615  0.82867158  1
  Al  Al32  1  0.56045723  0.87372403  0.56821170  1
  B  B33  1  0.88731012  0.20495846  0.10819185  1
  B  B34  1  0.88487496  0.87328544  0.56412569  1
  B  B35  1  0.55823866  0.87059947  0.06210670  1
  N  N36  1  0.22822715  0.20764892  0.37147608  1
  N  N37  1  0.07344657  0.11122375  0.08008943  1
  N  N38  1  0.88694839  0.20360539  0.81358988  1
  N  N39  1  0.78602338  0.06355257  0.61363893  1
  N  N40  1  0.55474773  0.20435885  0.37178573  1
  N  N41  1  0.45800585  0.06941121  0.11764312  1
  N  N42  1  0.22194400  0.20441056  0.87843858  1
  N  N43  1  0.12136493  0.08901477  0.57999590  1
  N  N44  1  0.88384349  0.20853613  0.38717399  1
  N  N45  1  0.79292898  0.10818646  0.12891697  1
  N  N46  1  0.55835996  0.20379734  0.87630277  1
  N  N47  1  0.44727096  0.09363832  0.63284427  1
  N  N48  1  0.22315616  0.53879532  0.37729432  1
  N  N49  1  0.11047529  0.42799286  0.12520725  1
  N  N50  1  0.88690506  0.53890919  0.87628659  1
  N  N51  1  0.77398673  0.44091867  0.61839170  1
  N  N52  1  0.55461947  0.54211648  0.37064427  1
  N  N53  1  0.44331818  0.42830483  0.12502470  1
  N  N54  1  0.22174505  0.53696504  0.87355372  1
  N  N55  1  0.11121108  0.42882939  0.62593877  1
  N  N56  1  0.88908219  0.54126214  0.37059081  1
  N  N57  1  0.79331623  0.39627956  0.12449783  1
  N  N58  1  0.55819110  0.53506124  0.87829044  1
  N  N59  1  0.44659747  0.42770321  0.62351971  1
  N  N60  1  0.22291852  0.87630483  0.32125783  1
  N  N61  1  0.10293017  0.75814113  0.12761763  1
  N  N62  1  0.88457439  0.87455845  0.88105031  1
  N  N63  1  0.78980400  0.77375398  0.62205140  1
  N  N64  1  0.55596579  0.87367336  0.38055226  1
  N  N65  1  0.46250137  0.77094426  0.11433706  1
  N  N66  1  0.21813872  0.87178044  0.83704268  1
  N  N67  1  0.08354214  0.77341147  0.61957261  1
  N  N68  1  0.88794850  0.87063147  0.39417593  1
  N  N69  1  0.75370445  0.77434063  0.12150447  1
  N  N70  1  0.55840396  0.87147633  0.89707418  1
  N  N71  1  0.45304865  0.76040089  0.63289167  1
