# generated using pymatgen
data_Al11BN12
_symmetry_space_group_name_H-M   'P 1'
_cell_length_a   9.27234205
_cell_length_b   9.28388357
_cell_length_c   10.11055319
_cell_angle_alpha   89.92078778
_cell_angle_beta   89.70325426
_cell_angle_gamma   59.83606229
_symmetry_Int_Tables_number   1
_chemical_formula_structural   Al11BN12
_chemical_formula_sum   'Al33 B3 N36'
_cell_volume   752.48633671
_cell_formula_units_Z   3
loop_
 _symmetry_equiv_pos_site_id
 _symmetry_equiv_pos_as_xyz
  1  'x, y, z'
loop_
 _atom_site_type_symbol
 _atom_site_label
 _atom_site_symmetry_multiplicity
 _atom_site_fract_x
 _atom_site_fract_y
 _atom_site_fract_z
 _atom_site_occupancy
  Al  Al0  1  0.11374007  0.09353749  0.40632897  1
  Al  Al1  1  0.22001436  0.20180534  0.14840198  1
  Al  Al2  1  0.78127286  0.08223587  0.82689105  1
  Al  Al3  1  0.89172009  0.20324304  0.61874681  1
  Al  Al4  1  0.44217605  0.08858753  0.39666704  1
  Al  Al5  1  0.56963234  0.19745714  0.07973349  1
  Al  Al6  1  0.10098252  0.09840482  0.89377975  1
  Al  Al7  1  0.22347805  0.20703520  0.65465609  1
  Al  Al8  1  0.78129514  0.10215358  0.32549201  1
  Al  Al9  1  0.44523901  0.08551035  0.89256082  1
  Al  Al10  1  0.56855061  0.19415161  0.57858322  1
  Al  Al11  1  0.11072070  0.42623244  0.40047859  1
  Al  Al12  1  0.22531549  0.53666119  0.15595537  1
  Al  Al13  1  0.78062032  0.42168534  0.89241103  1
  Al  Al14  1  0.89137195  0.54701919  0.65274205  1
  Al  Al15  1  0.44382698  0.43333809  0.39943734  1
  Al  Al16  1  0.56135877  0.53561205  0.14931904  1
  Al  Al17  1  0.11073770  0.43033521  0.90212724  1
  Al  Al18  1  0.21672170  0.54305304  0.64833438  1
  Al  Al19  1  0.77515207  0.43257860  0.40706144  1
  Al  Al20  1  0.88471984  0.53428390  0.15192160  1
  Al  Al21  1  0.44001103  0.43402825  0.89852872  1
  Al  Al22  1  0.55361226  0.54223198  0.65505330  1
  Al  Al23  1  0.10178392  0.76782466  0.39210625  1
  Al  Al24  1  0.21999889  0.87892968  0.15247798  1
  Al  Al25  1  0.77096788  0.76214496  0.90461288  1
  Al  Al26  1  0.44405689  0.76100402  0.40090567  1
  Al  Al27  1  0.11345512  0.76005488  0.90783449  1
  Al  Al28  1  0.21515476  0.87468660  0.65236199  1
  Al  Al29  1  0.77824038  0.76580086  0.38947092  1
  Al  Al30  1  0.88904348  0.87440892  0.11882854  1
  Al  Al31  1  0.44453478  0.76512816  0.89788000  1
  Al  Al32  1  0.55894407  0.87271251  0.63911679  1
  B  B33  1  0.88787043  0.20871832  0.10796863  1
  B  B34  1  0.88913865  0.86956485  0.60776896  1
  B  B35  1  0.55371943  0.86763653  0.12073573  1
  N  N36  1  0.22092173  0.20497606  0.33548915  1
  N  N37  1  0.07976900  0.11049856  0.09001356  1
  N  N38  1  0.88752807  0.20779862  0.82392871  1
  N  N39  1  0.79371372  0.05488260  0.63463279  1
  N  N40  1  0.56155524  0.20172232  0.38340945  1
  N  N41  1  0.45789581  0.06061395  0.09112924  1
  N  N42  1  0.22054774  0.20656619  0.84448342  1
  N  N43  1  0.12288622  0.09101383  0.59409857  1
  N  N44  1  0.88510649  0.20383258  0.40065296  1
  N  N45  1  0.79330250  0.11887324  0.13278141  1
  N  N46  1  0.56018039  0.20184854  0.88584700  1
  N  N47  1  0.44014753  0.09547183  0.59159579  1
  N  N48  1  0.22154357  0.53947467  0.34394434  1
  N  N49  1  0.11152591  0.42891073  0.09100190  1
  N  N50  1  0.88857708  0.54129994  0.84255832  1
  N  N51  1  0.77281207  0.44382314  0.59564090  1
  N  N52  1  0.55708052  0.53897266  0.33621819  1
  N  N53  1  0.44348827  0.43100851  0.09073767  1
  N  N54  1  0.21948186  0.54215590  0.83686253  1
  N  N55  1  0.11169569  0.42731004  0.58983894  1
  N  N56  1  0.88898991  0.53756287  0.33918363  1
  N  N57  1  0.79330802  0.39859393  0.08869571  1
  N  N58  1  0.55437672  0.54145475  0.84424005  1
  N  N59  1  0.44459469  0.43172211  0.59254367  1
  N  N60  1  0.22085802  0.87410612  0.33993163  1
  N  N61  1  0.12618939  0.75416112  0.09469422  1
  N  N62  1  0.88432643  0.87685093  0.90588240  1
  N  N63  1  0.79661557  0.77445281  0.58939278  1
  N  N64  1  0.55559331  0.86858775  0.35362470  1
  N  N65  1  0.45466583  0.77550084  0.09166149  1
  N  N66  1  0.22016127  0.87263200  0.84202808  1
  N  N67  1  0.08054090  0.77757204  0.58984562  1
  N  N68  1  0.88906886  0.86920622  0.32017593  1
  N  N69  1  0.74323186  0.76616108  0.09601949  1
  N  N70  1  0.55827268  0.86841489  0.82828538  1
  N  N71  1  0.43901869  0.76030043  0.59136271  1
