# generated using pymatgen
data_Al11BN12
_symmetry_space_group_name_H-M   'P 1'
_cell_length_a   9.27920579
_cell_length_b   9.29441397
_cell_length_c   10.07924475
_cell_angle_alpha   90.07548763
_cell_angle_beta   89.54775412
_cell_angle_gamma   59.89198863
_symmetry_Int_Tables_number   1
_chemical_formula_structural   Al11BN12
_chemical_formula_sum   'Al33 B3 N36'
_cell_volume   751.96238852
_cell_formula_units_Z   3
loop_
 _symmetry_equiv_pos_site_id
 _symmetry_equiv_pos_as_xyz
  1  'x, y, z'
loop_
 _atom_site_type_symbol
 _atom_site_label
 _atom_site_symmetry_multiplicity
 _atom_site_fract_x
 _atom_site_fract_y
 _atom_site_fract_z
 _atom_site_occupancy
  Al  Al0  1  0.11328568  0.09090298  0.39561701  1
  Al  Al1  1  0.22313474  0.20486581  0.07995414  1
  Al  Al2  1  0.78000712  0.08656695  0.82151782  1
  Al  Al3  1  0.88943708  0.20191427  0.60274692  1
  Al  Al4  1  0.45021685  0.08770185  0.31561415  1
  Al  Al5  1  0.56501591  0.20304977  0.06916467  1
  Al  Al6  1  0.09607441  0.09987728  0.88880124  1
  Al  Al7  1  0.23038561  0.20429554  0.58329138  1
  Al  Al8  1  0.78018774  0.09939103  0.32168782  1
  Al  Al9  1  0.44623768  0.09115410  0.83375272  1
  Al  Al10  1  0.56175409  0.19473894  0.56999651  1
  Al  Al11  1  0.11130441  0.43017482  0.32001459  1
  Al  Al12  1  0.22940195  0.53092247  0.07205171  1
  Al  Al13  1  0.77509764  0.43240777  0.81374485  1
  Al  Al14  1  0.89138080  0.54592609  0.57012047  1
  Al  Al15  1  0.44401707  0.42758220  0.32285026  1
  Al  Al16  1  0.56039387  0.53698562  0.07334397  1
  Al  Al17  1  0.11096863  0.42673990  0.82486876  1
  Al  Al18  1  0.22065428  0.53625862  0.57455205  1
  Al  Al19  1  0.78299527  0.42110614  0.32889386  1
  Al  Al20  1  0.88485263  0.53507390  0.06997051  1
  Al  Al21  1  0.44732793  0.42640619  0.82023920  1
  Al  Al22  1  0.55461528  0.54296806  0.56757721  1
  Al  Al23  1  0.09801567  0.77090289  0.38392662  1
  Al  Al24  1  0.21233480  0.88321232  0.14120370  1
  Al  Al25  1  0.77866307  0.76433149  0.83568365  1
  Al  Al26  1  0.45207510  0.76216511  0.31854165  1
  Al  Al27  1  0.10958490  0.76591415  0.89839186  1
  Al  Al28  1  0.21056429  0.87515469  0.64668603  1
  Al  Al29  1  0.77033312  0.76105142  0.31136978  1
  Al  Al30  1  0.88501428  0.87689856  0.10376909  1
  Al  Al31  1  0.44892674  0.76001537  0.83120232  1
  Al  Al32  1  0.56024217  0.87248845  0.57550257  1
  B  B33  1  0.88545466  0.20998662  0.11118816  1
  B  B34  1  0.88628010  0.87052623  0.61239015  1
  B  B35  1  0.55819647  0.86574156  0.06750909  1
  N  N36  1  0.22683271  0.20669019  0.36950628  1
  N  N37  1  0.07425966  0.11278014  0.08709644  1
  N  N38  1  0.88851286  0.20504853  0.81856205  1
  N  N39  1  0.79004205  0.05729806  0.62559903  1
  N  N40  1  0.55634839  0.20289675  0.38018614  1
  N  N41  1  0.46233007  0.06846161  0.12339786  1
  N  N42  1  0.22261185  0.20640024  0.88704269  1
  N  N43  1  0.12162048  0.08642583  0.58489741  1
  N  N44  1  0.88158807  0.20732282  0.39564391  1
  N  N45  1  0.78987732  0.11960612  0.12662564  1
  N  N46  1  0.55797582  0.20563650  0.88169701  1
  N  N47  1  0.44918723  0.09096182  0.64196654  1
  N  N48  1  0.22339074  0.53719088  0.38486877  1
  N  N49  1  0.10845561  0.43181111  0.13159602  1
  N  N50  1  0.88736719  0.53769246  0.88205974  1
  N  N51  1  0.77348696  0.44144593  0.62527272  1
  N  N52  1  0.55439363  0.54156019  0.37756902  1
  N  N53  1  0.44728088  0.42518872  0.13391931  1
  N  N54  1  0.22597247  0.53328706  0.87938264  1
  N  N55  1  0.11109017  0.42679006  0.63553872  1
  N  N56  1  0.88811423  0.54242954  0.37991535  1
  N  N57  1  0.79318045  0.39974483  0.13174067  1
  N  N58  1  0.55658443  0.53726898  0.88542115  1
  N  N59  1  0.44896897  0.42465566  0.62975081  1
  N  N60  1  0.21821816  0.87421606  0.33057411  1
  N  N61  1  0.12030798  0.75931981  0.08722263  1
  N  N62  1  0.87973551  0.87844359  0.89727707  1
  N  N63  1  0.79325219  0.77379246  0.63538326  1
  N  N64  1  0.55649641  0.87238302  0.38838173  1
  N  N65  1  0.45767074  0.77401552  0.12349403  1
  N  N66  1  0.21423220  0.87666486  0.83577527  1
  N  N67  1  0.07558388  0.77923012  0.58611831  1
  N  N68  1  0.88807901  0.87077636  0.31530022  1
  N  N69  1  0.74716835  0.76546561  0.12096630  1
  N  N70  1  0.55481888  0.87086072  0.90276509  1
  N  N71  1  0.44966538  0.75953375  0.63703609  1
