# generated using pymatgen
data_Al11BN12
_symmetry_space_group_name_H-M   'P 1'
_cell_length_a   9.27990160
_cell_length_b   9.29278195
_cell_length_c   10.00224184
_cell_angle_alpha   89.94474587
_cell_angle_beta   89.66516032
_cell_angle_gamma   59.88879430
_symmetry_Int_Tables_number   1
_chemical_formula_structural   Al11BN12
_chemical_formula_sum   'Al33 B3 N36'
_cell_volume   746.14083081
_cell_formula_units_Z   3
loop_
 _symmetry_equiv_pos_site_id
 _symmetry_equiv_pos_as_xyz
  1  'x, y, z'
loop_
 _atom_site_type_symbol
 _atom_site_label
 _atom_site_symmetry_multiplicity
 _atom_site_fract_x
 _atom_site_fract_y
 _atom_site_fract_z
 _atom_site_occupancy
  Al  Al0  1  0.11337203  0.09396174  0.40723598  1
  Al  Al1  1  0.21681497  0.20405958  0.14771044  1
  Al  Al2  1  0.78200728  0.08159063  0.83154415  1
  Al  Al3  1  0.89203326  0.20210522  0.61950537  1
  Al  Al4  1  0.44336557  0.09082413  0.38601958  1
  Al  Al5  1  0.55891188  0.20403930  0.12940264  1
  Al  Al6  1  0.10304745  0.09736970  0.89228818  1
  Al  Al7  1  0.22705059  0.20401456  0.65367906  1
  Al  Al8  1  0.78615809  0.10000648  0.32751365  1
  Al  Al9  1  0.44792826  0.08717472  0.90450962  1
  Al  Al10  1  0.56090273  0.19632766  0.61438225  1
  Al  Al11  1  0.11017567  0.42647436  0.40076902  1
  Al  Al12  1  0.22336430  0.53857908  0.15496783  1
  Al  Al13  1  0.78056348  0.42155301  0.89126570  1
  Al  Al14  1  0.89089365  0.54752438  0.65216033  1
  Al  Al15  1  0.44535788  0.42983100  0.39636691  1
  Al  Al16  1  0.56139404  0.53657080  0.14818645  1
  Al  Al17  1  0.11151232  0.42974342  0.90051538  1
  Al  Al18  1  0.21653305  0.54286019  0.64811944  1
  Al  Al19  1  0.77532260  0.43185288  0.40779184  1
  Al  Al20  1  0.88555080  0.53382187  0.15115396  1
  Al  Al21  1  0.44361894  0.42841238  0.89957493  1
  Al  Al22  1  0.55404828  0.54339720  0.65389831  1
  Al  Al23  1  0.10236806  0.76695707  0.39262085  1
  Al  Al24  1  0.21947903  0.87912316  0.15213225  1
  Al  Al25  1  0.76917769  0.76214297  0.91067692  1
  Al  Al26  1  0.44452730  0.76179435  0.39406997  1
  Al  Al27  1  0.11438462  0.75913094  0.90659315  1
  Al  Al28  1  0.21813737  0.87321771  0.65128860  1
  Al  Al29  1  0.77743537  0.76571901  0.38318199  1
  Al  Al30  1  0.88868845  0.87502109  0.11706341  1
  Al  Al31  1  0.44561695  0.76541173  0.90446006  1
  Al  Al32  1  0.56020603  0.87310538  0.64600605  1
  B  B33  1  0.88779268  0.20839835  0.10648665  1
  B  B34  1  0.88729765  0.87021579  0.60510442  1
  B  B35  1  0.55600334  0.86580385  0.15461956  1
  N  N36  1  0.21794721  0.20602912  0.33624499  1
  N  N37  1  0.07996240  0.11051924  0.08966464  1
  N  N38  1  0.88839541  0.20642782  0.82417058  1
  N  N39  1  0.79388758  0.05356472  0.63150614  1
  N  N40  1  0.55492198  0.20564856  0.34524733  1
  N  N41  1  0.45537554  0.06752096  0.09853674  1
  N  N42  1  0.22422676  0.20444217  0.84525905  1
  N  N43  1  0.12384493  0.08997852  0.59591912  1
  N  N44  1  0.88504796  0.20396276  0.40365985  1
  N  N45  1  0.79488379  0.11849703  0.13078132  1
  N  N46  1  0.55468517  0.20395523  0.85885924  1
  N  N47  1  0.44370028  0.09004476  0.57949196  1
  N  N48  1  0.22096272  0.53978511  0.34471002  1
  N  N49  1  0.11103839  0.42973467  0.09094491  1
  N  N50  1  0.88797342  0.54251238  0.84324222  1
  N  N51  1  0.77353618  0.44274834  0.59737433  1
  N  N52  1  0.55814930  0.53839939  0.33702379  1
  N  N53  1  0.44306665  0.43122243  0.09092583  1
  N  N54  1  0.22142897  0.54123850  0.83729026  1
  N  N55  1  0.11276736  0.42573958  0.59130603  1
  N  N56  1  0.88835559  0.53708039  0.34047272  1
  N  N57  1  0.79365845  0.39846032  0.08875627  1
  N  N58  1  0.55338601  0.54263233  0.84493493  1
  N  N59  1  0.44618197  0.42924256  0.58907222  1
  N  N60  1  0.21978370  0.87503587  0.34145324  1
  N  N61  1  0.12539531  0.75515044  0.09519662  1
  N  N62  1  0.88505118  0.87462290  0.90577723  1
  N  N63  1  0.79252244  0.77527306  0.58441195  1
  N  N64  1  0.55387417  0.87025270  0.31971073  1
  N  N65  1  0.45408805  0.77467576  0.09814468  1
  N  N66  1  0.22296723  0.87077960  0.84220041  1
  N  N67  1  0.08003232  0.77667824  0.59080913  1
  N  N68  1  0.88957534  0.86999684  0.32195918  1
  N  N69  1  0.74622277  0.76503368  0.10174165  1
  N  N70  1  0.55683337  0.87094656  0.83385763  1
  N  N71  1  0.44397110  0.76213941  0.58636796  1
