# generated using pymatgen
data_Al11BN12
_symmetry_space_group_name_H-M   'P 1'
_cell_length_a   9.28647161
_cell_length_b   9.29055681
_cell_length_c   9.94673005
_cell_angle_alpha   90.00077768
_cell_angle_beta   89.76294818
_cell_angle_gamma   59.96747571
_symmetry_Int_Tables_number   1
_chemical_formula_structural   Al11BN12
_chemical_formula_sum   'Al33 B3 N36'
_cell_volume   742.94393028
_cell_formula_units_Z   3
loop_
 _symmetry_equiv_pos_site_id
 _symmetry_equiv_pos_as_xyz
  1  'x, y, z'
loop_
 _atom_site_type_symbol
 _atom_site_label
 _atom_site_symmetry_multiplicity
 _atom_site_fract_x
 _atom_site_fract_y
 _atom_site_fract_z
 _atom_site_occupancy
  Al  Al0  1  0.10979482  0.09540588  0.38186974  1
  Al  Al1  1  0.22125467  0.20471362  0.06675724  1
  Al  Al2  1  0.77735686  0.08594867  0.80246580  1
  Al  Al3  1  0.88859764  0.20298297  0.59344043  1
  Al  Al4  1  0.44839726  0.08827616  0.30702556  1
  Al  Al5  1  0.56381787  0.20241330  0.06310699  1
  Al  Al6  1  0.09643556  0.09910749  0.87040435  1
  Al  Al7  1  0.23005718  0.20824203  0.56517876  1
  Al  Al8  1  0.78246727  0.09398825  0.32539402  1
  Al  Al9  1  0.44523101  0.09146185  0.82112680  1
  Al  Al10  1  0.55922812  0.19859375  0.55984204  1
  Al  Al11  1  0.11225672  0.42912804  0.31142199  1
  Al  Al12  1  0.22120795  0.53936053  0.06041138  1
  Al  Al13  1  0.77544867  0.43179705  0.80529503  1
  Al  Al14  1  0.89008605  0.54686681  0.55913431  1
  Al  Al15  1  0.44383178  0.42838382  0.31260358  1
  Al  Al16  1  0.56313044  0.53303288  0.06309340  1
  Al  Al17  1  0.11021946  0.42618396  0.81281113  1
  Al  Al18  1  0.21824376  0.54319071  0.56362492  1
  Al  Al19  1  0.78073299  0.42315051  0.31870357  1
  Al  Al20  1  0.88561707  0.53655211  0.06351553  1
  Al  Al21  1  0.44689045  0.42602391  0.81217242  1
  Al  Al22  1  0.55458935  0.54327591  0.55934315  1
  Al  Al23  1  0.10792473  0.76118566  0.31857537  1
  Al  Al24  1  0.21894497  0.87276750  0.07414829  1
  Al  Al25  1  0.77841631  0.76347489  0.81544782  1
  Al  Al26  1  0.44901993  0.76427915  0.30628222  1
  Al  Al27  1  0.10510782  0.76316808  0.81167735  1
  Al  Al28  1  0.22312317  0.86692289  0.57398116  1
  Al  Al29  1  0.77355699  0.76586913  0.31371116  1
  Al  Al30  1  0.88461635  0.87871604  0.06428061  1
  Al  Al31  1  0.44550503  0.76179521  0.82432990  1
  Al  Al32  1  0.55940252  0.87372641  0.56562191  1
  B  B33  1  0.88908287  0.20447041  0.10630579  1
  B  B34  1  0.88262975  0.87453839  0.55955809  1
  B  B35  1  0.55810066  0.87115343  0.05853548  1
  N  N36  1  0.22805056  0.20834320  0.36718140  1
  N  N37  1  0.07410627  0.11227720  0.08282602  1
  N  N38  1  0.88564229  0.20436786  0.81032527  1
  N  N39  1  0.78599071  0.06309196  0.60995692  1
  N  N40  1  0.55452130  0.20408329  0.36785958  1
  N  N41  1  0.45837313  0.06892717  0.11375597  1
  N  N42  1  0.22198572  0.20579592  0.87496779  1
  N  N43  1  0.11960998  0.09202223  0.58213958  1
  N  N44  1  0.88180600  0.21019671  0.38442418  1
  N  N45  1  0.79335647  0.10801919  0.12562651  1
  N  N46  1  0.55877070  0.20351428  0.87274168  1
  N  N47  1  0.44720083  0.09328606  0.62923741  1
  N  N48  1  0.22262955  0.53882920  0.37363873  1
  N  N49  1  0.11035404  0.42871995  0.12132034  1
  N  N50  1  0.88708325  0.53918766  0.87284784  1
  N  N51  1  0.77335720  0.44210015  0.61509433  1
  N  N52  1  0.55407396  0.54249703  0.36679189  1
  N  N53  1  0.44354424  0.42775397  0.12119937  1
  N  N54  1  0.22183916  0.53881595  0.86928440  1
  N  N55  1  0.11085754  0.42909824  0.62236158  1
  N  N56  1  0.88873919  0.54157197  0.36676865  1
  N  N57  1  0.79323575  0.39654617  0.12114391  1
  N  N58  1  0.55776453  0.53624901  0.87431381  1
  N  N59  1  0.44727327  0.42644910  0.61975988  1
  N  N60  1  0.22651406  0.86763161  0.35902661  1
  N  N61  1  0.10565183  0.75941748  0.12652887  1
  N  N62  1  0.88721152  0.87365130  0.87728513  1
  N  N63  1  0.78952313  0.77396439  0.61844761  1
  N  N64  1  0.55489304  0.87303746  0.37711937  1
  N  N65  1  0.46028112  0.77132929  0.11295083  1
  N  N66  1  0.22127244  0.86730572  0.87630709  1
  N  N67  1  0.08683011  0.77318756  0.61721024  1
  N  N68  1  0.88787877  0.87041806  0.39060767  1
  N  N69  1  0.75368989  0.77455264  0.11786736  1
  N  N70  1  0.55836487  0.87085901  0.89281382  1
  N  N71  1  0.44685222  0.76192729  0.63026651  1
