# generated using pymatgen
data_Al11BN12
_symmetry_space_group_name_H-M   'P 1'
_cell_length_a   9.28670708
_cell_length_b   9.28775944
_cell_length_c   10.10311856
_cell_angle_alpha   89.97907807
_cell_angle_beta   89.70277740
_cell_angle_gamma   59.83412083
_symmetry_Int_Tables_number   1
_chemical_formula_structural   Al11BN12
_chemical_formula_sum   'Al33 B3 N36'
_cell_volume   753.39568225
_cell_formula_units_Z   3
loop_
 _symmetry_equiv_pos_site_id
 _symmetry_equiv_pos_as_xyz
  1  'x, y, z'
loop_
 _atom_site_type_symbol
 _atom_site_label
 _atom_site_symmetry_multiplicity
 _atom_site_fract_x
 _atom_site_fract_y
 _atom_site_fract_z
 _atom_site_occupancy
  Al  Al0  1  0.11267877  0.09362841  0.40546897  1
  Al  Al1  1  0.22249514  0.20006504  0.14786309  1
  Al  Al2  1  0.78418139  0.08168649  0.82698944  1
  Al  Al3  1  0.89135006  0.20372432  0.61846833  1
  Al  Al4  1  0.44111394  0.09100116  0.39828867  1
  Al  Al5  1  0.56754124  0.19312948  0.07648529  1
  Al  Al6  1  0.10137846  0.09887522  0.89497478  1
  Al  Al7  1  0.21697299  0.21094920  0.65322771  1
  Al  Al8  1  0.78011470  0.10251316  0.32506407  1
  Al  Al9  1  0.44801253  0.08887163  0.85702179  1
  Al  Al10  1  0.56981660  0.19486689  0.58103455  1
  Al  Al11  1  0.10991508  0.42725537  0.39997785  1
  Al  Al12  1  0.22587976  0.53593218  0.15588589  1
  Al  Al13  1  0.78084828  0.42186699  0.89293930  1
  Al  Al14  1  0.89134588  0.54774865  0.65412791  1
  Al  Al15  1  0.44377294  0.43312350  0.40035947  1
  Al  Al16  1  0.56124474  0.53465847  0.14834593  1
  Al  Al17  1  0.11098300  0.43042439  0.90304159  1
  Al  Al18  1  0.21702756  0.54337162  0.64822572  1
  Al  Al19  1  0.77442798  0.43344757  0.40692126  1
  Al  Al20  1  0.88414711  0.53445559  0.15135442  1
  Al  Al21  1  0.44019593  0.43419291  0.89892084  1
  Al  Al22  1  0.55311520  0.54149976  0.65664838  1
  Al  Al23  1  0.10192501  0.76825490  0.39192896  1
  Al  Al24  1  0.22017722  0.87911003  0.15149087  1
  Al  Al25  1  0.77050318  0.76293432  0.90218865  1
  Al  Al26  1  0.44146611  0.75885873  0.40454037  1
  Al  Al27  1  0.11391392  0.75976501  0.90819647  1
  Al  Al28  1  0.21345754  0.87502060  0.65364294  1
  Al  Al29  1  0.78199179  0.76433200  0.39318219  1
  Al  Al30  1  0.88882856  0.87477563  0.11831138  1
  Al  Al31  1  0.44478961  0.76637710  0.89526963  1
  Al  Al32  1  0.55994462  0.86851739  0.62329749  1
  B  B33  1  0.88688260  0.20874256  0.10823197  1
  B  B34  1  0.89134302  0.86871414  0.60894929  1
  B  B35  1  0.55216911  0.87086573  0.10729187  1
  N  N36  1  0.22119797  0.20482450  0.33688792  1
  N  N37  1  0.07916376  0.11080530  0.09075878  1
  N  N38  1  0.88857685  0.20815088  0.82415532  1
  N  N39  1  0.79538082  0.05474575  0.63501862  1
  N  N40  1  0.56165035  0.20086826  0.38673390  1
  N  N41  1  0.45988683  0.05894281  0.09812875  1
  N  N42  1  0.21767669  0.20840280  0.84321052  1
  N  N43  1  0.12217318  0.09073477  0.59298327  1
  N  N44  1  0.88410530  0.20454638  0.39988728  1
  N  N45  1  0.79154992  0.11922399  0.13205446  1
  N  N46  1  0.56166699  0.20164030  0.88312962  1
  N  N47  1  0.43954464  0.10082641  0.60734968  1
  N  N48  1  0.22183064  0.53946845  0.34412419  1
  N  N49  1  0.11165155  0.42837606  0.09183428  1
  N  N50  1  0.88935940  0.54074549  0.84374731  1
  N  N51  1  0.77217068  0.44506889  0.59586929  1
  N  N52  1  0.55647369  0.53905613  0.33564781  1
  N  N53  1  0.44399986  0.42840560  0.09051062  1
  N  N54  1  0.21991700  0.54174287  0.83708961  1
  N  N55  1  0.11031966  0.42922528  0.58901367  1
  N  N56  1  0.88847121  0.53808479  0.33866674  1
  N  N57  1  0.79300872  0.39850570  0.08901746  1
  N  N58  1  0.55482698  0.54094044  0.84559182  1
  N  N59  1  0.44484852  0.43142035  0.59314363  1
  N  N60  1  0.22115350  0.87427850  0.33897390  1
  N  N61  1  0.12648527  0.75365923  0.09502296  1
  N  N62  1  0.88485307  0.87662568  0.90628092  1
  N  N63  1  0.80205816  0.77260591  0.59201207  1
  N  N64  1  0.55725550  0.86719486  0.38998156  1
  N  N65  1  0.45483742  0.77648035  0.09030307  1
  N  N66  1  0.21934603  0.87358699  0.84314241  1
  N  N67  1  0.08177981  0.77770810  0.58982959  1
  N  N68  1  0.88886685  0.86926157  0.31992611  1
  N  N69  1  0.74159861  0.76739969  0.09555049  1
  N  N70  1  0.56129137  0.86379746  0.82198790  1
  N  N71  1  0.43382179  0.75722333  0.59398955  1
