# generated using pymatgen
data_Al11BN12
_symmetry_space_group_name_H-M   'P 1'
_cell_length_a   9.24710682
_cell_length_b   9.28694776
_cell_length_c   10.18503968
_cell_angle_alpha   90.02079840
_cell_angle_beta   89.43577379
_cell_angle_gamma   59.80897158
_symmetry_Int_Tables_number   1
_chemical_formula_structural   Al11BN12
_chemical_formula_sum   'Al33 B3 N36'
_cell_volume   755.96859658
_cell_formula_units_Z   3
loop_
 _symmetry_equiv_pos_site_id
 _symmetry_equiv_pos_as_xyz
  1  'x, y, z'
loop_
 _atom_site_type_symbol
 _atom_site_label
 _atom_site_symmetry_multiplicity
 _atom_site_fract_x
 _atom_site_fract_y
 _atom_site_fract_z
 _atom_site_occupancy
  Al  Al0  1  0.11793448  0.09133459  0.39594495  1
  Al  Al1  1  0.21366293  0.20643563  0.13456637  1
  Al  Al2  1  0.78042681  0.08549817  0.82032019  1
  Al  Al3  1  0.88984982  0.20159682  0.59938792  1
  Al  Al4  1  0.45584595  0.08414595  0.31330592  1
  Al  Al5  1  0.56156959  0.20455963  0.06756246  1
  Al  Al6  1  0.09680616  0.10054050  0.88907554  1
  Al  Al7  1  0.21885833  0.20669662  0.64799766  1
  Al  Al8  1  0.78271674  0.09855796  0.31971252  1
  Al  Al9  1  0.45078688  0.08797924  0.83225905  1
  Al  Al10  1  0.55987996  0.19541960  0.56841337  1
  Al  Al11  1  0.12134446  0.42068536  0.38915958  1
  Al  Al12  1  0.21684379  0.54227180  0.14619740  1
  Al  Al13  1  0.77634807  0.43149584  0.81197142  1
  Al  Al14  1  0.88512307  0.54958409  0.56802917  1
  Al  Al15  1  0.45255433  0.42401795  0.32304878  1
  Al  Al16  1  0.55805548  0.53703249  0.07076160  1
  Al  Al17  1  0.11747121  0.42652599  0.89202824  1
  Al  Al18  1  0.21081447  0.54485713  0.63782269  1
  Al  Al19  1  0.78499843  0.42081001  0.32662968  1
  Al  Al20  1  0.87751371  0.53890402  0.06901200  1
  Al  Al21  1  0.45175272  0.42470346  0.81771168  1
  Al  Al22  1  0.55491536  0.54287214  0.56641886  1
  Al  Al23  1  0.09999823  0.76806284  0.38655063  1
  Al  Al24  1  0.21227301  0.88207693  0.13940077  1
  Al  Al25  1  0.77923650  0.76375983  0.83401519  1
  Al  Al26  1  0.45231932  0.76172360  0.31653137  1
  Al  Al27  1  0.11383209  0.75894226  0.89776280  1
  Al  Al28  1  0.21070697  0.87708410  0.64601809  1
  Al  Al29  1  0.77270368  0.76043643  0.30930103  1
  Al  Al30  1  0.88423193  0.87790014  0.09927962  1
  Al  Al31  1  0.44868292  0.76035889  0.82963200  1
  Al  Al32  1  0.55833607  0.87459918  0.57341599  1
  B  B33  1  0.88486476  0.21024264  0.10835004  1
  B  B34  1  0.88643162  0.87095205  0.61042199  1
  B  B35  1  0.55679647  0.86814337  0.06708089  1
  N  N36  1  0.21938495  0.20476199  0.32192981  1
  N  N37  1  0.07629332  0.11285326  0.08188744  1
  N  N38  1  0.88783549  0.20428606  0.81879273  1
  N  N39  1  0.79160461  0.05681982  0.62484684  1
  N  N40  1  0.55654899  0.20168948  0.38039000  1
  N  N41  1  0.46392463  0.06650891  0.12081902  1
  N  N42  1  0.21533748  0.20675500  0.83750868  1
  N  N43  1  0.12534556  0.08827598  0.58066939  1
  N  N44  1  0.88309441  0.20719820  0.39486258  1
  N  N45  1  0.79042458  0.11920089  0.12523710  1
  N  N46  1  0.55574368  0.20683984  0.88217790  1
  N  N47  1  0.45350848  0.08890000  0.64109385  1
  N  N48  1  0.21830633  0.54323860  0.33520886  1
  N  N49  1  0.11514913  0.42832128  0.08053931  1
  N  N50  1  0.88257488  0.53977131  0.88082782  1
  N  N51  1  0.77461378  0.44036710  0.62563197  1
  N  N52  1  0.55585150  0.54210852  0.37849267  1
  N  N53  1  0.45141442  0.42329161  0.13366872  1
  N  N54  1  0.21495026  0.54442433  0.82518339  1
  N  N55  1  0.11965798  0.42028155  0.57754944  1
  N  N56  1  0.88517495  0.54416866  0.37730762  1
  N  N57  1  0.79334735  0.39942660  0.13143659  1
  N  N58  1  0.55566634  0.53768588  0.88478509  1
  N  N59  1  0.45377637  0.42232233  0.62692475  1
  N  N60  1  0.21716964  0.87469759  0.32820434  1
  N  N61  1  0.12312091  0.75495113  0.08164600  1
  N  N62  1  0.88031131  0.87767377  0.89695949  1
  N  N63  1  0.79473036  0.77337318  0.63514835  1
  N  N64  1  0.55656490  0.87203159  0.38753288  1
  N  N65  1  0.45810148  0.77328148  0.12308888  1
  N  N66  1  0.21290337  0.87682274  0.83415833  1
  N  N67  1  0.07853561  0.77715137  0.58206870  1
  N  N68  1  0.88981800  0.87084232  0.31465203  1
  N  N69  1  0.74712427  0.76720398  0.12086639  1
  N  N70  1  0.55398806  0.87099099  0.90304240  1
  N  N71  1  0.45074927  0.75937047  0.63704972  1
