# generated using pymatgen
data_Al11BN12
_symmetry_space_group_name_H-M   'P 1'
_cell_length_a   9.28983035
_cell_length_b   9.30677492
_cell_length_c   10.18300646
_cell_angle_alpha   90.09632177
_cell_angle_beta   89.69622806
_cell_angle_gamma   59.89038656
_symmetry_Int_Tables_number   1
_chemical_formula_structural   Al11BN12
_chemical_formula_sum   'Al33 B3 N36'
_cell_volume   761.59014948
_cell_formula_units_Z   3
loop_
 _symmetry_equiv_pos_site_id
 _symmetry_equiv_pos_as_xyz
  1  'x, y, z'
loop_
 _atom_site_type_symbol
 _atom_site_label
 _atom_site_symmetry_multiplicity
 _atom_site_fract_x
 _atom_site_fract_y
 _atom_site_fract_z
 _atom_site_occupancy
  Al  Al0  1  0.11654309  0.09322053  0.39506880  1
  Al  Al1  1  0.21360423  0.20412057  0.13519413  1
  Al  Al2  1  0.78098905  0.08383141  0.81763689  1
  Al  Al3  1  0.89054430  0.19925244  0.60131279  1
  Al  Al4  1  0.45383721  0.08379485  0.32308117  1
  Al  Al5  1  0.56372338  0.20079839  0.06560809  1
  Al  Al6  1  0.10183261  0.09779808  0.88508278  1
  Al  Al7  1  0.21587597  0.21079102  0.64181373  1
  Al  Al8  1  0.78395041  0.10062164  0.31451149  1
  Al  Al9  1  0.44935421  0.09110424  0.81561070  1
  Al  Al10  1  0.56069746  0.19846091  0.56260812  1
  Al  Al11  1  0.11227863  0.42692472  0.38791472  1
  Al  Al12  1  0.21676757  0.54144362  0.14277304  1
  Al  Al13  1  0.78059526  0.42213175  0.86254910  1
  Al  Al14  1  0.89585332  0.54102629  0.63703382  1
  Al  Al15  1  0.44936296  0.42241003  0.32101054  1
  Al  Al16  1  0.56513039  0.53760265  0.13411807  1
  Al  Al17  1  0.11064331  0.42888293  0.89076448  1
  Al  Al18  1  0.21085984  0.54696984  0.63482235  1
  Al  Al19  1  0.77690148  0.43162266  0.39205365  1
  Al  Al20  1  0.88719972  0.52727501  0.13576139  1
  Al  Al21  1  0.44486852  0.42019406  0.82068107  1
  Al  Al22  1  0.55340179  0.54625680  0.64165615  1
  Al  Al23  1  0.10077005  0.76914196  0.38501270  1
  Al  Al24  1  0.21897630  0.87949594  0.14232194  1
  Al  Al25  1  0.78014778  0.76848530  0.82698295  1
  Al  Al26  1  0.44121319  0.75987553  0.39520827  1
  Al  Al27  1  0.11471578  0.75905228  0.89714994  1
  Al  Al28  1  0.21408938  0.87608963  0.64495392  1
  Al  Al29  1  0.76902803  0.76679623  0.31848972  1
  Al  Al30  1  0.88629359  0.87778724  0.10017469  1
  Al  Al31  1  0.44548659  0.76625802  0.88911178  1
  Al  Al32  1  0.56014850  0.87483447  0.59424993  1
  B  B33  1  0.88510476  0.20940711  0.09800177  1
  B  B34  1  0.88878797  0.87140975  0.60454943  1
  B  B35  1  0.55544061  0.86882621  0.10285352  1
  N  N36  1  0.21954944  0.20666971  0.32289295  1
  N  N37  1  0.07877267  0.10938923  0.07971853  1
  N  N38  1  0.89013199  0.20347300  0.81240080  1
  N  N39  1  0.79065599  0.05822988  0.62335715  1
  N  N40  1  0.55981090  0.20213005  0.37535583  1
  N  N41  1  0.46484837  0.05914481  0.12443296  1
  N  N42  1  0.21589925  0.20805231  0.83401847  1
  N  N43  1  0.12315707  0.08991481  0.58099084  1
  N  N44  1  0.88624114  0.20268774  0.39114425  1
  N  N45  1  0.79095595  0.11871784  0.12169131  1
  N  N46  1  0.55720538  0.20180074  0.88059601  1
  N  N47  1  0.44433924  0.10266604  0.62633695  1
  N  N48  1  0.21714029  0.54378881  0.33357835  1
  N  N49  1  0.11113415  0.42842024  0.07748289  1
  N  N50  1  0.89251122  0.53641013  0.82775682  1
  N  N51  1  0.77354350  0.44122388  0.58551466  1
  N  N52  1  0.56001837  0.54422137  0.32494811  1
  N  N53  1  0.44764929  0.41969273  0.12607942  1
  N  N54  1  0.21197369  0.54481443  0.82537759  1
  N  N55  1  0.11276176  0.42663728  0.57396329  1
  N  N56  1  0.89259886  0.53380660  0.32508112  1
  N  N57  1  0.79404024  0.39593426  0.08311337  1
  N  N58  1  0.55301709  0.54281235  0.83544706  1
  N  N59  1  0.44905696  0.42024213  0.62524986  1
  N  N60  1  0.22223271  0.87427792  0.32850516  1
  N  N61  1  0.12547706  0.75547329  0.08195772  1
  N  N62  1  0.88165822  0.87712920  0.89836412  1
  N  N63  1  0.80195642  0.77522372  0.62437856  1
  N  N64  1  0.56045064  0.87330386  0.39481729  1
  N  N65  1  0.45478716  0.77870565  0.08252345  1
  N  N66  1  0.21983535  0.87255539  0.83294942  1
  N  N67  1  0.08005551  0.78001775  0.58009777  1
  N  N68  1  0.89130181  0.87149820  0.31134494  1
  N  N69  1  0.74034756  0.76958738  0.12068806  1
  N  N70  1  0.55579297  0.86641220  0.82594593  1
  N  N71  1  0.43320751  0.75963600  0.58145788  1
