# generated using pymatgen
data_Al11BN12
_symmetry_space_group_name_H-M   'P 1'
_cell_length_a   9.28287359
_cell_length_b   9.29521507
_cell_length_c   10.07811392
_cell_angle_alpha   89.99390569
_cell_angle_beta   89.62189503
_cell_angle_gamma   59.83612175
_symmetry_Int_Tables_number   1
_chemical_formula_structural   Al11BN12
_chemical_formula_sum   'Al33 B3 N36'
_cell_volume   751.83022834
_cell_formula_units_Z   3
loop_
 _symmetry_equiv_pos_site_id
 _symmetry_equiv_pos_as_xyz
  1  'x, y, z'
loop_
 _atom_site_type_symbol
 _atom_site_label
 _atom_site_symmetry_multiplicity
 _atom_site_fract_x
 _atom_site_fract_y
 _atom_site_fract_z
 _atom_site_occupancy
  Al  Al0  1  0.11245609  0.08872104  0.39835090  1
  Al  Al1  1  0.22412403  0.20487550  0.07475449  1
  Al  Al2  1  0.77917651  0.08657750  0.82259253  1
  Al  Al3  1  0.88956539  0.20174596  0.60514851  1
  Al  Al4  1  0.44929630  0.08836609  0.31758224  1
  Al  Al5  1  0.56401302  0.20287594  0.06934338  1
  Al  Al6  1  0.09577992  0.10068785  0.88685771  1
  Al  Al7  1  0.23090408  0.20617303  0.57458203  1
  Al  Al8  1  0.77962353  0.10008929  0.32189781  1
  Al  Al9  1  0.44544606  0.09149254  0.83001419  1
  Al  Al10  1  0.56183459  0.19577839  0.57085652  1
  Al  Al11  1  0.11168852  0.42771223  0.32234382  1
  Al  Al12  1  0.22991816  0.52819005  0.07372179  1
  Al  Al13  1  0.77508405  0.43278439  0.81403666  1
  Al  Al14  1  0.89081804  0.54705101  0.57084812  1
  Al  Al15  1  0.44556725  0.42689921  0.32312981  1
  Al  Al16  1  0.56168122  0.53530266  0.07299745  1
  Al  Al17  1  0.11172395  0.42614051  0.82144838  1
  Al  Al18  1  0.21734569  0.54237395  0.57326383  1
  Al  Al19  1  0.78281547  0.42118790  0.32972844  1
  Al  Al20  1  0.88639420  0.53338921  0.07053103  1
  Al  Al21  1  0.44629986  0.42687370  0.82019529  1
  Al  Al22  1  0.55358984  0.54447047  0.56859162  1
  Al  Al23  1  0.10244601  0.76672167  0.36100819  1
  Al  Al24  1  0.21469038  0.88474537  0.13561676  1
  Al  Al25  1  0.77933555  0.76396388  0.83628005  1
  Al  Al26  1  0.45288820  0.76221876  0.31674651  1
  Al  Al27  1  0.10956213  0.76436659  0.90020189  1
  Al  Al28  1  0.20928854  0.87517446  0.64960690  1
  Al  Al29  1  0.76946266  0.76059919  0.31138547  1
  Al  Al30  1  0.88254582  0.87799636  0.10320793  1
  Al  Al31  1  0.44981350  0.75979322  0.83251897  1
  Al  Al32  1  0.55985197  0.87295073  0.57621832  1
  B  B33  1  0.88564585  0.21022409  0.11072034  1
  B  B34  1  0.88847690  0.86991523  0.61444134  1
  B  B35  1  0.55875622  0.86446658  0.06686636  1
  N  N36  1  0.22803542  0.20671954  0.37967751  1
  N  N37  1  0.07413553  0.11412856  0.08510472  1
  N  N38  1  0.88721772  0.20543757  0.81925130  1
  N  N39  1  0.78963846  0.05782408  0.62734110  1
  N  N40  1  0.55646239  0.20304308  0.38077920  1
  N  N41  1  0.45995837  0.06943829  0.12523649  1
  N  N42  1  0.22291734  0.20645121  0.88528309  1
  N  N43  1  0.12177172  0.08661114  0.58746451  1
  N  N44  1  0.88142253  0.20715256  0.39611405  1
  N  N45  1  0.78966691  0.12021574  0.12635295  1
  N  N46  1  0.55664136  0.20543697  0.88163820  1
  N  N47  1  0.44793311  0.09239857  0.63966188  1
  N  N48  1  0.22357202  0.53747352  0.38254646  1
  N  N49  1  0.11016768  0.42800166  0.13416626  1
  N  N50  1  0.88904551  0.53652469  0.88232638  1
  N  N51  1  0.77317628  0.44205633  0.62565995  1
  N  N52  1  0.55399842  0.54241587  0.37797539  1
  N  N53  1  0.44820263  0.42462331  0.13438437  1
  N  N54  1  0.22557305  0.53213534  0.88182155  1
  N  N55  1  0.11186037  0.42760639  0.63290614  1
  N  N56  1  0.88809430  0.54223909  0.38032483  1
  N  N57  1  0.79347783  0.39966115  0.13237407  1
  N  N58  1  0.55696642  0.53642364  0.88550484  1
  N  N59  1  0.44697469  0.42677331  0.62952932  1
  N  N60  1  0.21924124  0.87663864  0.32575767  1
  N  N61  1  0.12021095  0.75728573  0.09317600  1
  N  N62  1  0.87972007  0.87840615  0.90015580  1
  N  N63  1  0.79267548  0.77434622  0.63679786  1
  N  N64  1  0.55628879  0.87193359  0.38860858  1
  N  N65  1  0.45917153  0.77261138  0.12155703  1
  N  N66  1  0.21532867  0.87552461  0.84057716  1
  N  N67  1  0.07565818  0.77938890  0.59347958  1
  N  N68  1  0.88505328  0.87202965  0.31377381  1
  N  N69  1  0.74710846  0.76433720  0.12082104  1
  N  N70  1  0.55505468  0.87184132  0.90269590  1
  N  N71  1  0.44880213  0.76066550  0.63882593  1
