# generated using pymatgen
data_Al11BN12
_symmetry_space_group_name_H-M   'P 1'
_cell_length_a   9.28453382
_cell_length_b   9.28833535
_cell_length_c   10.10512418
_cell_angle_alpha   89.95931825
_cell_angle_beta   89.70564409
_cell_angle_gamma   59.83006720
_symmetry_Int_Tables_number   1
_chemical_formula_structural   Al11BN12
_chemical_formula_sum   'Al33 B3 N36'
_cell_volume   753.38559250
_cell_formula_units_Z   3
loop_
 _symmetry_equiv_pos_site_id
 _symmetry_equiv_pos_as_xyz
  1  'x, y, z'
loop_
 _atom_site_type_symbol
 _atom_site_label
 _atom_site_symmetry_multiplicity
 _atom_site_fract_x
 _atom_site_fract_y
 _atom_site_fract_z
 _atom_site_occupancy
  Al  Al0  1  0.11314312  0.09360577  0.40564017  1
  Al  Al1  1  0.22153862  0.20067092  0.14789349  1
  Al  Al2  1  0.78334321  0.08186022  0.82676542  1
  Al  Al3  1  0.89155112  0.20364621  0.61839885  1
  Al  Al4  1  0.44101241  0.09062895  0.40052588  1
  Al  Al5  1  0.56873086  0.19482425  0.07721687  1
  Al  Al6  1  0.10106462  0.09884734  0.89461579  1
  Al  Al7  1  0.21957586  0.20953619  0.65405029  1
  Al  Al8  1  0.78035837  0.10240466  0.32537446  1
  Al  Al9  1  0.44688968  0.08691371  0.87402090  1
  Al  Al10  1  0.56938950  0.19476462  0.58084256  1
  Al  Al11  1  0.11033163  0.42673869  0.40006924  1
  Al  Al12  1  0.22571929  0.53612882  0.15599819  1
  Al  Al13  1  0.78081147  0.42175349  0.89279690  1
  Al  Al14  1  0.89148758  0.54742216  0.65368516  1
  Al  Al15  1  0.44392337  0.43296507  0.40012029  1
  Al  Al16  1  0.56131621  0.53484582  0.14863592  1
  Al  Al17  1  0.11086537  0.43050256  0.90273974  1
  Al  Al18  1  0.21696618  0.54323742  0.64814812  1
  Al  Al19  1  0.77457083  0.43332086  0.40690409  1
  Al  Al20  1  0.88423838  0.53438339  0.15154053  1
  Al  Al21  1  0.44006855  0.43418911  0.89859626  1
  Al  Al22  1  0.55324780  0.54159236  0.65621029  1
  Al  Al23  1  0.10193360  0.76813144  0.39194892  1
  Al  Al24  1  0.22002489  0.87913959  0.15174365  1
  Al  Al25  1  0.77080499  0.76268021  0.90198758  1
  Al  Al26  1  0.44210786  0.75928175  0.40403713  1
  Al  Al27  1  0.11376548  0.75984943  0.90809756  1
  Al  Al28  1  0.21367077  0.87508109  0.65331469  1
  Al  Al29  1  0.78119139  0.76464541  0.39265761  1
  Al  Al30  1  0.88896286  0.87475165  0.11843144  1
  Al  Al31  1  0.44464303  0.76585963  0.89507388  1
  Al  Al32  1  0.55925509  0.87023931  0.62692781  1
  B  B33  1  0.88718091  0.20875466  0.10822126  1
  B  B34  1  0.89094023  0.86885985  0.60879138  1
  B  B35  1  0.55268131  0.86944601  0.10766628  1
  N  N36  1  0.22166338  0.20452987  0.33604931  1
  N  N37  1  0.07928689  0.11075315  0.09056169  1
  N  N38  1  0.88823630  0.20809816  0.82411314  1
  N  N39  1  0.79511205  0.05477421  0.63490328  1
  N  N40  1  0.56167909  0.20113586  0.38558273  1
  N  N41  1  0.45895556  0.05937163  0.09164179  1
  N  N42  1  0.21853261  0.20786548  0.84379335  1
  N  N43  1  0.12242403  0.09097463  0.59333701  1
  N  N44  1  0.88450182  0.20439631  0.39995475  1
  N  N45  1  0.79215087  0.11908407  0.13224796  1
  N  N46  1  0.56132769  0.20192657  0.88361145  1
  N  N47  1  0.43899390  0.10004629  0.60063554  1
  N  N48  1  0.22179386  0.53944257  0.34410786  1
  N  N49  1  0.11155509  0.42861294  0.09157097  1
  N  N50  1  0.88915785  0.54078564  0.84344352  1
  N  N51  1  0.77229269  0.44480590  0.59577998  1
  N  N52  1  0.55654661  0.53905015  0.33572678  1
  N  N53  1  0.44378841  0.42920906  0.09050425  1
  N  N54  1  0.21969980  0.54195695  0.83701527  1
  N  N55  1  0.11074421  0.42857436  0.58928585  1
  N  N56  1  0.88875727  0.53790006  0.33873886  1
  N  N57  1  0.79306241  0.39854079  0.08895188  1
  N  N58  1  0.55481067  0.54093191  0.84525824  1
  N  N59  1  0.44480789  0.43151017  0.59304515  1
  N  N60  1  0.22112442  0.87417768  0.33913841  1
  N  N61  1  0.12646956  0.75375793  0.09491344  1
  N  N62  1  0.88465563  0.87675690  0.90626731  1
  N  N63  1  0.80100768  0.77298789  0.59182491  1
  N  N64  1  0.55705459  0.86732198  0.38298654  1
  N  N65  1  0.45480938  0.77632447  0.09018103  1
  N  N66  1  0.21932921  0.87347128  0.84291891  1
  N  N67  1  0.08155560  0.77768642  0.58980618  1
  N  N68  1  0.88898038  0.86913598  0.31984354  1
  N  N69  1  0.74158109  0.76732363  0.09535476  1
  N  N70  1  0.56018635  0.86551904  0.82316237  1
  N  N71  1  0.43480890  0.75788740  0.59376582  1
