# generated using pymatgen
data_Al11BN12
_symmetry_space_group_name_H-M   'P 1'
_cell_length_a   9.29661736
_cell_length_b   9.29545417
_cell_length_c   10.05896764
_cell_angle_alpha   89.99019650
_cell_angle_beta   89.71578942
_cell_angle_gamma   59.79594922
_symmetry_Int_Tables_number   1
_chemical_formula_structural   Al11BN12
_chemical_formula_sum   'Al33 B3 N36'
_cell_volume   751.23540395
_cell_formula_units_Z   3
loop_
 _symmetry_equiv_pos_site_id
 _symmetry_equiv_pos_as_xyz
  1  'x, y, z'
loop_
 _atom_site_type_symbol
 _atom_site_label
 _atom_site_symmetry_multiplicity
 _atom_site_fract_x
 _atom_site_fract_y
 _atom_site_fract_z
 _atom_site_occupancy
  Al  Al0  1  0.11256350  0.08662052  0.39727505  1
  Al  Al1  1  0.22399358  0.20622700  0.07564693  1
  Al  Al2  1  0.77809053  0.08805073  0.82379965  1
  Al  Al3  1  0.88956439  0.20092327  0.60444410  1
  Al  Al4  1  0.44898452  0.08844089  0.31801436  1
  Al  Al5  1  0.56321438  0.20367025  0.07075319  1
  Al  Al6  1  0.09550823  0.10176639  0.88844264  1
  Al  Al7  1  0.23050227  0.20647922  0.57368545  1
  Al  Al8  1  0.78034653  0.09867058  0.32357256  1
  Al  Al9  1  0.44518668  0.09173820  0.83012077  1
  Al  Al10  1  0.56120101  0.19604158  0.57099924  1
  Al  Al11  1  0.11138287  0.42850503  0.32339244  1
  Al  Al12  1  0.22861781  0.53057686  0.07025381  1
  Al  Al13  1  0.77561485  0.43205405  0.81401673  1
  Al  Al14  1  0.89034533  0.54705511  0.57093581  1
  Al  Al15  1  0.44434496  0.42783682  0.32427712  1
  Al  Al16  1  0.56254324  0.53411722  0.07344506  1
  Al  Al17  1  0.11157026  0.42500751  0.82062030  1
  Al  Al18  1  0.21372530  0.54839345  0.57404541  1
  Al  Al19  1  0.78244270  0.42125215  0.33043116  1
  Al  Al20  1  0.88665204  0.53328081  0.07150933  1
  Al  Al21  1  0.44714337  0.42626230  0.81978368  1
  Al  Al22  1  0.55305218  0.54479730  0.56881107  1
  Al  Al23  1  0.10963613  0.75769386  0.31178364  1
  Al  Al24  1  0.21838344  0.88568567  0.12798992  1
  Al  Al25  1  0.77819359  0.76330603  0.83728073  1
  Al  Al26  1  0.45244368  0.76292209  0.31597533  1
  Al  Al27  1  0.10431928  0.76165275  0.86401397  1
  Al  Al28  1  0.21201212  0.87683425  0.65296993  1
  Al  Al29  1  0.76967050  0.76154387  0.31252334  1
  Al  Al30  1  0.88156486  0.87875603  0.09866357  1
  Al  Al31  1  0.45175415  0.75882924  0.83502248  1
  Al  Al32  1  0.55980964  0.87307226  0.57664808  1
  B  B33  1  0.88547737  0.21042047  0.11114645  1
  B  B34  1  0.88852658  0.86892832  0.62298272  1
  B  B35  1  0.55984482  0.86426255  0.06687470  1
  N  N36  1  0.22747392  0.20676891  0.37929174  1
  N  N37  1  0.07340039  0.11594028  0.08496490  1
  N  N38  1  0.88797787  0.20457938  0.81947440  1
  N  N39  1  0.78894315  0.05757018  0.62851441  1
  N  N40  1  0.55592482  0.20354770  0.38075853  1
  N  N41  1  0.45978079  0.06964648  0.12550723  1
  N  N42  1  0.22323291  0.20655308  0.88561110  1
  N  N43  1  0.12190755  0.08595622  0.58730309  1
  N  N44  1  0.88127568  0.20716291  0.39671275  1
  N  N45  1  0.78987779  0.11997216  0.12637549  1
  N  N46  1  0.55631283  0.20548331  0.88239472  1
  N  N47  1  0.44728435  0.09277022  0.63971926  1
  N  N48  1  0.22046228  0.54291792  0.38344820  1
  N  N49  1  0.11047893  0.42923991  0.13423116  1
  N  N50  1  0.88953942  0.53580937  0.88274402  1
  N  N51  1  0.77300364  0.44172029  0.62562393  1
  N  N52  1  0.55366762  0.54288339  0.37793158  1
  N  N53  1  0.44665402  0.42590606  0.13441733  1
  N  N54  1  0.22575341  0.53169072  0.88157739  1
  N  N55  1  0.11177232  0.42788753  0.63194760  1
  N  N56  1  0.88762360  0.54218159  0.38029231  1
  N  N57  1  0.79347152  0.39964473  0.13285216  1
  N  N58  1  0.55815329  0.53488846  0.88568558  1
  N  N59  1  0.44589602  0.42757983  0.62922573  1
  N  N60  1  0.22059987  0.87762634  0.32195652  1
  N  N61  1  0.11908988  0.75478338  0.11101105  1
  N  N62  1  0.88005614  0.87792299  0.90184224  1
  N  N63  1  0.79125278  0.77412845  0.63858149  1
  N  N64  1  0.55609801  0.87181553  0.38885943  1
  N  N65  1  0.46156355  0.77139553  0.11997143  1
  N  N66  1  0.21882002  0.87569630  0.84790378  1
  N  N67  1  0.07651130  0.77525211  0.63403109  1
  N  N68  1  0.88415647  0.87229821  0.31968349  1
  N  N69  1  0.74776151  0.76482149  0.12084060  1
  N  N70  1  0.55575584  0.87232328  0.90311284  1
  N  N71  1  0.44937281  0.76065619  0.64073723  1
