# generated using pymatgen
data_Al11BN12
_symmetry_space_group_name_H-M   'P 1'
_cell_length_a   9.27305098
_cell_length_b   9.28221146
_cell_length_c   9.93423564
_cell_angle_alpha   90.00346575
_cell_angle_beta   89.87042496
_cell_angle_gamma   59.96159605
_symmetry_Int_Tables_number   1
_chemical_formula_structural   Al11BN12
_chemical_formula_sum   'Al33 B3 N36'
_cell_volume   740.23476291
_cell_formula_units_Z   3
loop_
 _symmetry_equiv_pos_site_id
 _symmetry_equiv_pos_as_xyz
  1  'x, y, z'
loop_
 _atom_site_type_symbol
 _atom_site_label
 _atom_site_symmetry_multiplicity
 _atom_site_fract_x
 _atom_site_fract_y
 _atom_site_fract_z
 _atom_site_occupancy
  Al  Al0  1  0.10746064  0.09653546  0.35156342  1
  Al  Al1  1  0.21678934  0.20268342  0.06398000  1
  Al  Al2  1  0.77814621  0.08665100  0.80475206  1
  Al  Al3  1  0.88687715  0.20346499  0.59049417  1
  Al  Al4  1  0.44793700  0.08799038  0.30698575  1
  Al  Al5  1  0.56375618  0.20232416  0.06370282  1
  Al  Al6  1  0.10988347  0.09436444  0.81302471  1
  Al  Al7  1  0.22876468  0.20659867  0.56552597  1
  Al  Al8  1  0.78215493  0.09334585  0.32608852  1
  Al  Al9  1  0.44597363  0.09187332  0.82190115  1
  Al  Al10  1  0.55924229  0.19790588  0.56091502  1
  Al  Al11  1  0.11219316  0.42840443  0.31140166  1
  Al  Al12  1  0.22139107  0.54040873  0.06123058  1
  Al  Al13  1  0.77564778  0.43125518  0.80751820  1
  Al  Al14  1  0.88999720  0.54672988  0.56005589  1
  Al  Al15  1  0.44396549  0.42760025  0.31250424  1
  Al  Al16  1  0.56217739  0.53431014  0.06392232  1
  Al  Al17  1  0.10991703  0.42800436  0.81369299  1
  Al  Al18  1  0.21825208  0.54238611  0.56374418  1
  Al  Al19  1  0.78051028  0.42315494  0.31930266  1
  Al  Al20  1  0.88555132  0.53654187  0.06397854  1
  Al  Al21  1  0.44698959  0.42645368  0.81276877  1
  Al  Al22  1  0.55472673  0.54276015  0.55990799  1
  Al  Al23  1  0.10849095  0.76107822  0.31957467  1
  Al  Al24  1  0.21539774  0.87900778  0.06478297  1
  Al  Al25  1  0.77818799  0.76402323  0.81639487  1
  Al  Al26  1  0.44713665  0.76456963  0.30736138  1
  Al  Al27  1  0.10487920  0.76431627  0.80947945  1
  Al  Al28  1  0.22274222  0.86720097  0.56593457  1
  Al  Al29  1  0.77318673  0.76555361  0.31373502  1
  Al  Al30  1  0.88587739  0.87867642  0.06525921  1
  Al  Al31  1  0.44572258  0.76164981  0.82192642  1
  Al  Al32  1  0.55956489  0.87320373  0.56575376  1
  B  B33  1  0.89210986  0.20288320  0.10876014  1
  B  B34  1  0.88389629  0.87340379  0.56028071  1
  B  B35  1  0.55608718  0.87251606  0.05922685  1
  N  N36  1  0.22685690  0.20663337  0.37108069  1
  N  N37  1  0.07889453  0.10991354  0.11313272  1
  N  N38  1  0.88411089  0.20558957  0.81907548  1
  N  N39  1  0.78658691  0.06271297  0.61119210  1
  N  N40  1  0.55424635  0.20362034  0.36846106  1
  N  N41  1  0.45662764  0.06980328  0.11354851  1
  N  N42  1  0.22059282  0.20552958  0.87344453  1
  N  N43  1  0.12073706  0.09062789  0.61037218  1
  N  N44  1  0.88361116  0.20884626  0.38944714  1
  N  N45  1  0.79375628  0.10781787  0.12703627  1
  N  N46  1  0.55863532  0.20398626  0.87339622  1
  N  N47  1  0.44716383  0.09267716  0.62958645  1
  N  N48  1  0.22280661  0.53796671  0.37341267  1
  N  N49  1  0.11122841  0.42794775  0.12096700  1
  N  N50  1  0.88684496  0.54008975  0.87338802  1
  N  N51  1  0.77368465  0.44136358  0.61634081  1
  N  N52  1  0.55386933  0.54196471  0.36696894  1
  N  N53  1  0.44398104  0.42745439  0.12152221  1
  N  N54  1  0.22175140  0.54068909  0.86964110  1
  N  N55  1  0.11105040  0.42844526  0.62276589  1
  N  N56  1  0.88883957  0.54104824  0.36740859  1
  N  N57  1  0.79348653  0.39646906  0.12227696  1
  N  N58  1  0.55683293  0.53772606  0.87487760  1
  N  N59  1  0.44738249  0.42597201  0.62011497  1
  N  N60  1  0.22639624  0.86721856  0.37235224  1
  N  N61  1  0.10856310  0.76141088  0.12737990  1
  N  N62  1  0.88812741  0.87314306  0.87798393  1
  N  N63  1  0.78961248  0.77369400  0.61893600  1
  N  N64  1  0.55437957  0.87276593  0.37703047  1
  N  N65  1  0.45606600  0.77385875  0.11384108  1
  N  N66  1  0.21968154  0.87171440  0.87259679  1
  N  N67  1  0.08648051  0.77305860  0.61566458  1
  N  N68  1  0.88785631  0.87002613  0.39053765  1
  N  N69  1  0.75341944  0.77472570  0.11831559  1
  N  N70  1  0.55752753  0.87107406  0.89307635  1
  N  N71  1  0.44618024  0.76175780  0.62859112  1
