# generated using pymatgen
data_Al11BN12
_symmetry_space_group_name_H-M   'P 1'
_cell_length_a   9.29060957
_cell_length_b   9.33113669
_cell_length_c   10.17126933
_cell_angle_alpha   90.19295812
_cell_angle_beta   89.72426619
_cell_angle_gamma   59.87884824
_symmetry_Int_Tables_number   1
_chemical_formula_structural   Al11BN12
_chemical_formula_sum   'Al33 B3 N36'
_cell_volume   762.67292079
_cell_formula_units_Z   3
loop_
 _symmetry_equiv_pos_site_id
 _symmetry_equiv_pos_as_xyz
  1  'x, y, z'
loop_
 _atom_site_type_symbol
 _atom_site_label
 _atom_site_symmetry_multiplicity
 _atom_site_fract_x
 _atom_site_fract_y
 _atom_site_fract_z
 _atom_site_occupancy
  Al  Al0  1  0.11610953  0.09415709  0.39596016  1
  Al  Al1  1  0.21356036  0.20454796  0.13564070  1
  Al  Al2  1  0.78138487  0.08378463  0.81953437  1
  Al  Al3  1  0.88934559  0.19995617  0.59792770  1
  Al  Al4  1  0.45295398  0.08588828  0.32414917  1
  Al  Al5  1  0.56401337  0.19864375  0.06582247  1
  Al  Al6  1  0.10071841  0.09859513  0.88713767  1
  Al  Al7  1  0.21505691  0.21091818  0.64239898  1
  Al  Al8  1  0.78321724  0.09911894  0.31703513  1
  Al  Al9  1  0.44902570  0.09160876  0.81564641  1
  Al  Al10  1  0.56117696  0.19734276  0.56383344  1
  Al  Al11  1  0.11147939  0.42809840  0.38839848  1
  Al  Al12  1  0.21674815  0.54143075  0.14325339  1
  Al  Al13  1  0.77354382  0.42754568  0.81921128  1
  Al  Al14  1  0.89680824  0.54331945  0.63743260  1
  Al  Al15  1  0.45049083  0.42353866  0.31793817  1
  Al  Al16  1  0.56274462  0.53120064  0.08377093  1
  Al  Al17  1  0.11159865  0.42842159  0.89073101  1
  Al  Al18  1  0.21109264  0.54705217  0.63712692  1
  Al  Al19  1  0.78253161  0.41790498  0.32831895  1
  Al  Al20  1  0.88857460  0.53310209  0.13176085  1
  Al  Al21  1  0.44899868  0.42364023  0.82367196  1
  Al  Al22  1  0.55415328  0.53734719  0.58259593  1
  Al  Al23  1  0.10160907  0.76817030  0.38530787  1
  Al  Al24  1  0.21932940  0.87986169  0.14307562  1
  Al  Al25  1  0.78020268  0.76859779  0.82915388  1
  Al  Al26  1  0.43922789  0.76574585  0.39217242  1
  Al  Al27  1  0.11527074  0.75879679  0.89726874  1
  Al  Al28  1  0.21387752  0.87626167  0.64581233  1
  Al  Al29  1  0.76865506  0.76771372  0.31958144  1
  Al  Al30  1  0.88674655  0.87812183  0.10007355  1
  Al  Al31  1  0.44457407  0.76868786  0.88949061  1
  Al  Al32  1  0.55982997  0.87485270  0.59686124  1
  B  B33  1  0.88741954  0.20653586  0.10358876  1
  B  B34  1  0.88935453  0.87122101  0.60493536  1
  B  B35  1  0.55400437  0.87093936  0.10489231  1
  N  N36  1  0.21814814  0.20778289  0.32369137  1
  N  N37  1  0.07962535  0.10895522  0.08161112  1
  N  N38  1  0.88933903  0.20150066  0.82194501  1
  N  N39  1  0.79148885  0.05804036  0.62350501  1
  N  N40  1  0.55877077  0.20375040  0.37644698  1
  N  N41  1  0.46461086  0.06096997  0.12534000  1
  N  N42  1  0.21565074  0.20764663  0.83449269  1
  N  N43  1  0.12208043  0.09020208  0.58166148  1
  N  N44  1  0.88356140  0.20622508  0.39424117  1
  N  N45  1  0.79168943  0.11689803  0.12319793  1
  N  N46  1  0.55654534  0.20176743  0.88045100  1
  N  N47  1  0.44351377  0.10335413  0.62616027  1
  N  N48  1  0.21741955  0.54350642  0.33370715  1
  N  N49  1  0.11262410  0.42780582  0.07716381  1
  N  N50  1  0.89306570  0.53875012  0.83243353  1
  N  N51  1  0.77325028  0.43659926  0.62388636  1
  N  N52  1  0.55615494  0.54146050  0.35433545  1
  N  N53  1  0.44832046  0.41775178  0.12780940  1
  N  N54  1  0.21405270  0.54419164  0.82624911  1
  N  N55  1  0.11308738  0.42676087  0.57475889  1
  N  N56  1  0.89354724  0.53735197  0.32448898  1
  N  N57  1  0.79670535  0.39190911  0.12383780  1
  N  N58  1  0.55552500  0.53535356  0.88756832  1
  N  N59  1  0.45165003  0.42029317  0.62991418  1
  N  N60  1  0.21994998  0.87628094  0.32903397  1
  N  N61  1  0.12661266  0.75494324  0.08245712  1
  N  N62  1  0.88214867  0.87690813  0.89879548  1
  N  N63  1  0.80206058  0.77571569  0.62424352  1
  N  N64  1  0.55979761  0.87571994  0.39476195  1
  N  N65  1  0.45283660  0.78385261  0.08581882  1
  N  N66  1  0.22002313  0.87265634  0.83345877  1
  N  N67  1  0.08088117  0.77930605  0.58085181  1
  N  N68  1  0.89158566  0.87143152  0.31254215  1
  N  N69  1  0.73980354  0.77205694  0.11995499  1
  N  N70  1  0.55549047  0.86595057  0.82276721  1
  N  N71  1  0.43208725  0.76237609  0.58219285  1
