# generated using pymatgen
data_Al11BN12
_symmetry_space_group_name_H-M   'P 1'
_cell_length_a   9.25493429
_cell_length_b   9.25498048
_cell_length_c   9.90245116
_cell_angle_alpha   89.97314631
_cell_angle_beta   89.96825847
_cell_angle_gamma   60.00695464
_symmetry_Int_Tables_number   1
_chemical_formula_structural   Al11BN12
_chemical_formula_sum   'Al33 B3 N36'
_cell_volume   734.60273494
_cell_formula_units_Z   3
loop_
 _symmetry_equiv_pos_site_id
 _symmetry_equiv_pos_as_xyz
  1  'x, y, z'
loop_
 _atom_site_type_symbol
 _atom_site_label
 _atom_site_symmetry_multiplicity
 _atom_site_fract_x
 _atom_site_fract_y
 _atom_site_fract_z
 _atom_site_occupancy
  Al  Al0  1  0.10607671  0.09677007  0.30978728  1
  Al  Al1  1  0.21963572  0.20255670  0.06351673  1
  Al  Al2  1  0.78169239  0.09066627  0.81510663  1
  Al  Al3  1  0.89048780  0.20017011  0.56539060  1
  Al  Al4  1  0.44739737  0.08858678  0.30858580  1
  Al  Al5  1  0.56268311  0.20185235  0.06334837  1
  Al  Al6  1  0.10821965  0.09557694  0.81961596  1
  Al  Al7  1  0.22343951  0.20346360  0.56373227  1
  Al  Al8  1  0.78165631  0.09403469  0.31641072  1
  Al  Al9  1  0.44573779  0.09213230  0.82076484  1
  Al  Al10  1  0.56007176  0.19837696  0.56360636  1
  Al  Al11  1  0.11125614  0.42770023  0.31303028  1
  Al  Al12  1  0.22074953  0.54094072  0.06247335  1
  Al  Al13  1  0.77901082  0.42485917  0.81924279  1
  Al  Al14  1  0.88902876  0.54317149  0.56358927  1
  Al  Al15  1  0.44433623  0.42749565  0.31358009  1
  Al  Al16  1  0.56094223  0.53655260  0.06359093  1
  Al  Al17  1  0.11055934  0.42777308  0.81319522  1
  Al  Al18  1  0.21734735  0.54221190  0.56353949  1
  Al  Al19  1  0.78071482  0.42249146  0.30996333  1
  Al  Al20  1  0.88457247  0.53872007  0.06343785  1
  Al  Al21  1  0.44488184  0.42779734  0.81290553  1
  Al  Al22  1  0.55672512  0.53964024  0.56317626  1
  Al  Al23  1  0.10830614  0.76249058  0.32054929  1
  Al  Al24  1  0.21838855  0.87691569  0.06386049  1
  Al  Al25  1  0.77775212  0.76500001  0.81628962  1
  Al  Al26  1  0.44724268  0.76415859  0.30921626  1
  Al  Al27  1  0.10535428  0.76428684  0.80911703  1
  Al  Al28  1  0.21859409  0.87440613  0.56402810  1
  Al  Al29  1  0.77387110  0.76524002  0.31563593  1
  Al  Al30  1  0.88504642  0.87806378  0.06501621  1
  Al  Al31  1  0.44565905  0.76221845  0.82091319  1
  Al  Al32  1  0.55971887  0.87352717  0.56536003  1
  B  B33  1  0.88877607  0.20463260  0.06230106  1
  B  B34  1  0.88806145  0.87304175  0.56214828  1
  B  B35  1  0.55612775  0.87273480  0.06038986  1
  N  N36  1  0.22368498  0.20311253  0.36927461  1
  N  N37  1  0.08507116  0.10706927  0.11599711  1
  N  N38  1  0.88787414  0.20435582  0.89241203  1
  N  N39  1  0.79085423  0.06970222  0.61881038  1
  N  N40  1  0.55607542  0.20304133  0.37014298  1
  N  N41  1  0.45686016  0.06997052  0.11437407  1
  N  N42  1  0.22148980  0.20612525  0.87401824  1
  N  N43  1  0.11033645  0.09504712  0.62732748  1
  N  N44  1  0.88937929  0.20569614  0.37746371  1
  N  N45  1  0.79112340  0.10599938  0.12060680  1
  N  N46  1  0.55794477  0.20516261  0.87212902  1
  N  N47  1  0.44476175  0.09313603  0.62802105  1
  N  N48  1  0.22242330  0.53822044  0.37346257  1
  N  N49  1  0.11057081  0.42822894  0.12183158  1
  N  N50  1  0.88772443  0.54080100  0.87218377  1
  N  N51  1  0.77925726  0.42573470  0.62597463  1
  N  N52  1  0.55659560  0.54013805  0.36925835  1
  N  N53  1  0.44382296  0.42781393  0.12206350  1
  N  N54  1  0.22097306  0.54127780  0.86996327  1
  N  N55  1  0.11120423  0.42650147  0.62189910  1
  N  N56  1  0.88716555  0.53977018  0.37015165  1
  N  N57  1  0.79092875  0.40187617  0.11602892  1
  N  N58  1  0.55560230  0.53830011  0.87388321  1
  N  N59  1  0.44516131  0.42687474  0.62068138  1
  N  N60  1  0.22378791  0.87340520  0.37069855  1
  N  N61  1  0.10838507  0.76221648  0.12787298  1
  N  N62  1  0.88933373  0.87225306  0.87737301  1
  N  N63  1  0.78951992  0.77398699  0.61954494  1
  N  N64  1  0.55504500  0.87258726  0.37717760  1
  N  N65  1  0.45627087  0.77393167  0.11479788  1
  N  N66  1  0.22046998  0.87085812  0.87274490  1
  N  N67  1  0.08600588  0.77422154  0.61455994  1
  N  N68  1  0.88689680  0.87316664  0.39232482  1
  N  N69  1  0.75367036  0.77470854  0.11930732  1
  N  N70  1  0.55749676  0.87144888  0.89328936  1
  N  N71  1  0.44556579  0.76217555  0.62704319  1
