# generated using pymatgen
data_Al11BN12
_symmetry_space_group_name_H-M   'P 1'
_cell_length_a   9.26999289
_cell_length_b   9.31825433
_cell_length_c   10.19578906
_cell_angle_alpha   90.29405471
_cell_angle_beta   89.68334366
_cell_angle_gamma   59.85183135
_symmetry_Int_Tables_number   1
_chemical_formula_structural   Al11BN12
_chemical_formula_sum   'Al33 B3 N36'
_cell_volume   761.53572318
_cell_formula_units_Z   3
loop_
 _symmetry_equiv_pos_site_id
 _symmetry_equiv_pos_as_xyz
  1  'x, y, z'
loop_
 _atom_site_type_symbol
 _atom_site_label
 _atom_site_symmetry_multiplicity
 _atom_site_fract_x
 _atom_site_fract_y
 _atom_site_fract_z
 _atom_site_occupancy
  Al  Al0  1  0.11520251  0.09411412  0.39694705  1
  Al  Al1  1  0.21300329  0.20477643  0.13754879  1
  Al  Al2  1  0.77987495  0.08441012  0.82050013  1
  Al  Al3  1  0.88934327  0.20023128  0.60141263  1
  Al  Al4  1  0.45402957  0.08412996  0.32452361  1
  Al  Al5  1  0.56255852  0.20029554  0.06712487  1
  Al  Al6  1  0.09746348  0.10100957  0.88719078  1
  Al  Al7  1  0.21397469  0.21134985  0.64321003  1
  Al  Al8  1  0.78366733  0.09822003  0.31824151  1
  Al  Al9  1  0.44835363  0.09301476  0.81637883  1
  Al  Al10  1  0.56122141  0.19595194  0.56361429  1
  Al  Al11  1  0.11552103  0.42559368  0.38554886  1
  Al  Al12  1  0.21873985  0.54180233  0.14566016  1
  Al  Al13  1  0.77355684  0.43266251  0.81654251  1
  Al  Al14  1  0.88933087  0.54802241  0.59187500  1
  Al  Al15  1  0.45315193  0.42319519  0.32079531  1
  Al  Al16  1  0.56328249  0.52827764  0.07150912  1
  Al  Al17  1  0.11471896  0.42741370  0.89271675  1
  Al  Al18  1  0.21203828  0.54635960  0.63630112  1
  Al  Al19  1  0.78375902  0.41867929  0.32392643  1
  Al  Al20  1  0.88207812  0.53675799  0.09109685  1
  Al  Al21  1  0.45020582  0.42409311  0.81820578  1
  Al  Al22  1  0.55748960  0.53265922  0.56624828  1
  Al  Al23  1  0.10174383  0.76818592  0.38563089  1
  Al  Al24  1  0.22026628  0.87923648  0.14261526  1
  Al  Al25  1  0.78306161  0.76304728  0.82935605  1
  Al  Al26  1  0.43869729  0.76813005  0.39512957  1
  Al  Al27  1  0.11486678  0.75880734  0.89714220  1
  Al  Al28  1  0.21487735  0.87545855  0.64649952  1
  Al  Al29  1  0.77032494  0.76441098  0.31573937  1
  Al  Al30  1  0.88709991  0.87837939  0.10033414  1
  Al  Al31  1  0.44336668  0.77046419  0.88696337  1
  Al  Al32  1  0.55790939  0.87446651  0.60202065  1
  B  B33  1  0.88619494  0.20685485  0.10575923  1
  B  B34  1  0.89080836  0.87032719  0.60670923  1
  B  B35  1  0.55364636  0.87121336  0.10514684  1
  N  N36  1  0.21903102  0.20549043  0.32425135  1
  N  N37  1  0.07782704  0.11046318  0.08191073  1
  N  N38  1  0.88627328  0.20442123  0.81997459  1
  N  N39  1  0.79153920  0.05656095  0.62435280  1
  N  N40  1  0.55888650  0.20250168  0.37688183  1
  N  N41  1  0.46388356  0.06116254  0.12550429  1
  N  N42  1  0.21395910  0.20849050  0.83416128  1
  N  N43  1  0.12195427  0.08963185  0.58207747  1
  N  N44  1  0.88254141  0.20731184  0.39470908  1
  N  N45  1  0.79097365  0.11721620  0.12393962  1
  N  N46  1  0.55440688  0.20461960  0.88184657  1
  N  N47  1  0.44301676  0.10363246  0.62746674  1
  N  N48  1  0.21961250  0.54340937  0.33469331  1
  N  N49  1  0.11857753  0.42552081  0.08070615  1
  N  N50  1  0.88354056  0.54102214  0.87679880  1
  N  N51  1  0.77361306  0.44040335  0.62768853  1
  N  N52  1  0.55959496  0.53539955  0.37617363  1
  N  N53  1  0.45204499  0.41981923  0.13199100  1
  N  N54  1  0.21365609  0.54435794  0.82438136  1
  N  N55  1  0.11621780  0.42498075  0.57405820  1
  N  N56  1  0.89071845  0.53900886  0.34494208  1
  N  N57  1  0.79362169  0.39456942  0.12751251  1
  N  N58  1  0.55382523  0.53604077  0.88560638  1
  N  N59  1  0.45432627  0.41932709  0.62811300  1
  N  N60  1  0.22103387  0.87552694  0.32849420  1
  N  N61  1  0.12744319  0.75427253  0.08185891  1
  N  N62  1  0.88125821  0.87729268  0.89881159  1
  N  N63  1  0.80382750  0.77263540  0.62861718  1
  N  N64  1  0.56177539  0.87472574  0.39527983  1
  N  N65  1  0.45431384  0.78222982  0.08464101  1
  N  N66  1  0.21803950  0.87449547  0.83376586  1
  N  N67  1  0.08123427  0.77873597  0.58078907  1
  N  N68  1  0.89254208  0.87050473  0.31189388  1
  N  N69  1  0.73970077  0.77322375  0.12160307  1
  N  N70  1  0.55593432  0.86664244  0.82136731  1
  N  N71  1  0.43295905  0.76104547  0.58425826  1
