# generated using pymatgen
data_Al11BN12
_symmetry_space_group_name_H-M   'P 1'
_cell_length_a   9.25400039
_cell_length_b   9.25635449
_cell_length_c   9.93770796
_cell_angle_alpha   89.98322680
_cell_angle_beta   89.96437523
_cell_angle_gamma   59.98454484
_symmetry_Int_Tables_number   1
_chemical_formula_structural   Al11BN12
_chemical_formula_sum   'Al33 B3 N36'
_cell_volume   737.08676463
_cell_formula_units_Z   3
loop_
 _symmetry_equiv_pos_site_id
 _symmetry_equiv_pos_as_xyz
  1  'x, y, z'
loop_
 _atom_site_type_symbol
 _atom_site_label
 _atom_site_symmetry_multiplicity
 _atom_site_fract_x
 _atom_site_fract_y
 _atom_site_fract_z
 _atom_site_occupancy
  Al  Al0  1  0.10695028  0.09642181  0.31624720  1
  Al  Al1  1  0.21841276  0.20280170  0.06335514  1
  Al  Al2  1  0.78101875  0.09003832  0.80983893  1
  Al  Al3  1  0.89051551  0.20089090  0.57134858  1
  Al  Al4  1  0.44772674  0.08828680  0.30786736  1
  Al  Al5  1  0.56331291  0.20212449  0.06309231  1
  Al  Al6  1  0.10823936  0.09547245  0.81367600  1
  Al  Al7  1  0.22500928  0.20396997  0.56273577  1
  Al  Al8  1  0.78171762  0.09331959  0.32268563  1
  Al  Al9  1  0.44534272  0.09213588  0.82118943  1
  Al  Al10  1  0.55905350  0.19850915  0.56287315  1
  Al  Al11  1  0.11188626  0.42793463  0.31223082  1
  Al  Al12  1  0.22093033  0.54073807  0.06137386  1
  Al  Al13  1  0.77846520  0.42572201  0.81307695  1
  Al  Al14  1  0.88966879  0.54490708  0.56211151  1
  Al  Al15  1  0.44406386  0.42756125  0.31301190  1
  Al  Al16  1  0.56169436  0.53523655  0.06333322  1
  Al  Al17  1  0.11013832  0.42731398  0.81325773  1
  Al  Al18  1  0.21765732  0.54233288  0.56387392  1
  Al  Al19  1  0.78040660  0.42331095  0.31601772  1
  Al  Al20  1  0.88509330  0.53737204  0.06324814  1
  Al  Al21  1  0.44599270  0.42710770  0.81301336  1
  Al  Al22  1  0.55529254  0.54132605  0.56204014  1
  Al  Al23  1  0.10859526  0.76167580  0.31992340  1
  Al  Al24  1  0.21706365  0.87769500  0.06375343  1
  Al  Al25  1  0.77775441  0.76470386  0.81659453  1
  Al  Al26  1  0.44723488  0.76428039  0.30830235  1
  Al  Al27  1  0.10494457  0.76510374  0.80924332  1
  Al  Al28  1  0.21964470  0.87289726  0.56299369  1
  Al  Al29  1  0.77362903  0.76534521  0.31461380  1
  Al  Al30  1  0.88551129  0.87856379  0.06475328  1
  Al  Al31  1  0.44526144  0.76227197  0.82130538  1
  Al  Al32  1  0.55954439  0.87346779  0.56555425  1
  B  B33  1  0.88865303  0.20460605  0.09021317  1
  B  B34  1  0.88678492  0.87302820  0.56161779  1
  B  B35  1  0.55610462  0.87262210  0.05977657  1
  N  N36  1  0.22470753  0.20391946  0.36905102  1
  N  N37  1  0.08217418  0.10844920  0.12128209  1
  N  N38  1  0.88680433  0.20459631  0.86399315  1
  N  N39  1  0.78937326  0.06733460  0.61470956  1
  N  N40  1  0.55492980  0.20350961  0.37010561  1
  N  N41  1  0.45683578  0.06989147  0.11424672  1
  N  N42  1  0.22080695  0.20528812  0.87451475  1
  N  N43  1  0.11499006  0.09306743  0.62219548  1
  N  N44  1  0.88923508  0.20582356  0.38175613  1
  N  N45  1  0.79259856  0.10719952  0.12553254  1
  N  N46  1  0.55827785  0.20427101  0.87276446  1
  N  N47  1  0.44511301  0.09313026  0.62862939  1
  N  N48  1  0.22273519  0.53800884  0.37376974  1
  N  N49  1  0.11079637  0.42809804  0.12156911  1
  N  N50  1  0.88697809  0.54045808  0.87273772  1
  N  N51  1  0.77732237  0.43152096  0.62072958  1
  N  N52  1  0.55500995  0.54105789  0.36887397  1
  N  N53  1  0.44393011  0.42761310  0.12198222  1
  N  N54  1  0.22109210  0.54114393  0.86966506  1
  N  N55  1  0.11144317  0.42663799  0.62214392  1
  N  N56  1  0.88821808  0.54055621  0.36938492  1
  N  N57  1  0.79234836  0.39871108  0.12099457  1
  N  N58  1  0.55642363  0.53817656  0.87434259  1
  N  N59  1  0.44597916  0.42662211  0.62092140  1
  N  N60  1  0.22453004  0.87169679  0.37037391  1
  N  N61  1  0.10848677  0.76192425  0.12764170  1
  N  N62  1  0.88840495  0.87306507  0.87768126  1
  N  N63  1  0.78953214  0.77404898  0.61962954  1
  N  N64  1  0.55495411  0.87250025  0.37727681  1
  N  N65  1  0.45622987  0.77381140  0.11453671  1
  N  N66  1  0.21989057  0.87210702  0.87336820  1
  N  N67  1  0.08615188  0.77425729  0.61484892  1
  N  N68  1  0.88764819  0.87116827  0.39182594  1
  N  N69  1  0.75368485  0.77462730  0.11890759  1
  N  N70  1  0.55731377  0.87136430  0.89344427  1
  N  N71  1  0.44518741  0.76242091  0.62762118  1
