# generated using pymatgen
data_Al11BN12
_symmetry_space_group_name_H-M   'P 1'
_cell_length_a   9.27031944
_cell_length_b   9.32468278
_cell_length_c   10.20143489
_cell_angle_alpha   90.29090366
_cell_angle_beta   89.68131642
_cell_angle_gamma   59.85229237
_symmetry_Int_Tables_number   1
_chemical_formula_structural   Al11BN12
_chemical_formula_sum   'Al33 B3 N36'
_cell_volume   762.51364741
_cell_formula_units_Z   3
loop_
 _symmetry_equiv_pos_site_id
 _symmetry_equiv_pos_as_xyz
  1  'x, y, z'
loop_
 _atom_site_type_symbol
 _atom_site_label
 _atom_site_symmetry_multiplicity
 _atom_site_fract_x
 _atom_site_fract_y
 _atom_site_fract_z
 _atom_site_occupancy
  Al  Al0  1  0.11555652  0.09400170  0.39677611  1
  Al  Al1  1  0.21328297  0.20450717  0.13695494  1
  Al  Al2  1  0.77997959  0.08450731  0.82016726  1
  Al  Al3  1  0.88921932  0.20013522  0.60052100  1
  Al  Al4  1  0.45354638  0.08465658  0.32442259  1
  Al  Al5  1  0.56270185  0.20026944  0.06698967  1
  Al  Al6  1  0.09783954  0.10089070  0.88726201  1
  Al  Al7  1  0.21417872  0.21118050  0.64286047  1
  Al  Al8  1  0.78364940  0.09820321  0.31791547  1
  Al  Al9  1  0.44797336  0.09345139  0.81626328  1
  Al  Al10  1  0.56135406  0.19599758  0.56364468  1
  Al  Al11  1  0.11202855  0.42742828  0.38645804  1
  Al  Al12  1  0.21871401  0.54173558  0.14515800  1
  Al  Al13  1  0.77190345  0.43074468  0.81584880  1
  Al  Al14  1  0.89440741  0.54486996  0.62635566  1
  Al  Al15  1  0.45258684  0.42316759  0.32070992  1
  Al  Al16  1  0.56378135  0.52828748  0.07133911  1
  Al  Al17  1  0.11281768  0.42842480  0.89188541  1
  Al  Al18  1  0.21230804  0.54643584  0.63585748  1
  Al  Al19  1  0.78271537  0.41768650  0.32523667  1
  Al  Al20  1  0.88689953  0.53441575  0.12114147  1
  Al  Al21  1  0.44996345  0.42416293  0.81809990  1
  Al  Al22  1  0.55738251  0.53265689  0.56600010  1
  Al  Al23  1  0.10189040  0.76805882  0.38580032  1
  Al  Al24  1  0.22028560  0.87919805  0.14259116  1
  Al  Al25  1  0.78119913  0.76683524  0.83042946  1
  Al  Al26  1  0.43842265  0.76818647  0.39519399  1
  Al  Al27  1  0.11517973  0.75860884  0.89701767  1
  Al  Al28  1  0.21490111  0.87545960  0.64645508  1
  Al  Al29  1  0.76946929  0.76644068  0.31708411  1
  Al  Al30  1  0.88701527  0.87838417  0.09983884  1
  Al  Al31  1  0.44320316  0.77062166  0.88708027  1
  Al  Al32  1  0.55866724  0.87414206  0.60133994  1
  B  B33  1  0.88607725  0.20663143  0.10521331  1
  B  B34  1  0.89024140  0.87065978  0.60612903  1
  B  B35  1  0.55383867  0.87107116  0.10455983  1
  N  N36  1  0.21844818  0.20647075  0.32411896  1
  N  N37  1  0.07805973  0.11018172  0.08194959  1
  N  N38  1  0.88664708  0.20378849  0.82074974  1
  N  N39  1  0.79154826  0.05719703  0.62427414  1
  N  N40  1  0.55893719  0.20250537  0.37682581  1
  N  N41  1  0.46381267  0.06124556  0.12551606  1
  N  N42  1  0.21409258  0.20850000  0.83413906  1
  N  N43  1  0.12204104  0.08956591  0.58188614  1
  N  N44  1  0.88304057  0.20677025  0.39432349  1
  N  N45  1  0.79099248  0.11681130  0.12399520  1
  N  N46  1  0.55450513  0.20466627  0.88172069  1
  N  N47  1  0.44311229  0.10351651  0.62727254  1
  N  N48  1  0.21881461  0.54321850  0.33453923  1
  N  N49  1  0.11673226  0.42640218  0.07846172  1
  N  N50  1  0.88893942  0.53982410  0.84818313  1
  N  N51  1  0.77273767  0.43818495  0.62545509  1
  N  N52  1  0.55908500  0.53565955  0.37591255  1
  N  N53  1  0.45189929  0.41982650  0.13187847  1
  N  N54  1  0.21406797  0.54433776  0.82433312  1
  N  N55  1  0.11382509  0.42621182  0.57341400  1
  N  N56  1  0.89321756  0.53714486  0.32426901  1
  N  N57  1  0.79320227  0.39352003  0.12590628  1
  N  N58  1  0.55378677  0.53625662  0.88568124  1
  N  N59  1  0.45393137  0.41942568  0.62787748  1
  N  N60  1  0.22101528  0.87549990  0.32844163  1
  N  N61  1  0.12743293  0.75422445  0.08183262  1
  N  N62  1  0.88154732  0.87786397  0.89912214  1
  N  N63  1  0.80270462  0.77483260  0.62676757  1
  N  N64  1  0.56132548  0.87489078  0.39507000  1
  N  N65  1  0.45424077  0.78222050  0.08462727  1
  N  N66  1  0.21810140  0.87447769  0.83372106  1
  N  N67  1  0.08138557  0.77884670  0.58065394  1
  N  N68  1  0.89259283  0.87059853  0.31207164  1
  N  N69  1  0.73975755  0.77349461  0.11964103  1
  N  N70  1  0.55524445  0.86734548  0.82189083  1
  N  N71  1  0.43312750  0.76105309  0.58416298  1
