# generated using pymatgen
data_Al11BN12
_symmetry_space_group_name_H-M   'P 1'
_cell_length_a   9.30359802
_cell_length_b   9.32630948
_cell_length_c   10.18002738
_cell_angle_alpha   90.16462408
_cell_angle_beta   89.70513405
_cell_angle_gamma   59.85678953
_symmetry_Int_Tables_number   1
_chemical_formula_structural   Al11BN12
_chemical_formula_sum   'Al33 B3 N36'
_cell_volume   763.83121801
_cell_formula_units_Z   3
loop_
 _symmetry_equiv_pos_site_id
 _symmetry_equiv_pos_as_xyz
  1  'x, y, z'
loop_
 _atom_site_type_symbol
 _atom_site_label
 _atom_site_symmetry_multiplicity
 _atom_site_fract_x
 _atom_site_fract_y
 _atom_site_fract_z
 _atom_site_occupancy
  Al  Al0  1  0.11733819  0.09296168  0.39563798  1
  Al  Al1  1  0.21356810  0.20425540  0.13554747  1
  Al  Al2  1  0.78147179  0.08355738  0.81900931  1
  Al  Al3  1  0.88905892  0.20022270  0.59664089  1
  Al  Al4  1  0.45323059  0.08448335  0.32378857  1
  Al  Al5  1  0.56443241  0.19954645  0.06547843  1
  Al  Al6  1  0.10176929  0.09772698  0.88724943  1
  Al  Al7  1  0.21523266  0.21082573  0.64212051  1
  Al  Al8  1  0.78336689  0.09900045  0.31575254  1
  Al  Al9  1  0.44906056  0.09104874  0.81534406  1
  Al  Al10  1  0.56041463  0.19854082  0.56332841  1
  Al  Al11  1  0.11231690  0.42753482  0.38843584  1
  Al  Al12  1  0.21674983  0.54141421  0.14253295  1
  Al  Al13  1  0.78039100  0.42385963  0.82167642  1
  Al  Al14  1  0.89710663  0.54314220  0.63614917  1
  Al  Al15  1  0.44891370  0.42261602  0.31996192  1
  Al  Al16  1  0.56123023  0.53896757  0.12761910  1
  Al  Al17  1  0.11139459  0.42842638  0.89088202  1
  Al  Al18  1  0.21086543  0.54687952  0.63599393  1
  Al  Al19  1  0.78307354  0.42028664  0.34125905  1
  Al  Al20  1  0.88881309  0.53141968  0.13193774  1
  Al  Al21  1  0.44511210  0.42030772  0.82319603  1
  Al  Al22  1  0.54932286  0.54701725  0.63824758  1
  Al  Al23  1  0.10144302  0.76855887  0.38529490  1
  Al  Al24  1  0.21880678  0.87998115  0.14280583  1
  Al  Al25  1  0.78002392  0.76886538  0.82842803  1
  Al  Al26  1  0.44171900  0.76012833  0.39487480  1
  Al  Al27  1  0.11503371  0.75910188  0.89711936  1
  Al  Al28  1  0.21329613  0.87675649  0.64549932  1
  Al  Al29  1  0.76862359  0.76782258  0.31929743  1
  Al  Al30  1  0.88658517  0.87821618  0.09974581  1
  Al  Al31  1  0.44549958  0.76661887  0.88930660  1
  Al  Al32  1  0.56006764  0.87486713  0.59541024  1
  B  B33  1  0.88648795  0.20809751  0.10239804  1
  B  B34  1  0.88894753  0.87175736  0.60474834  1
  B  B35  1  0.55473083  0.87005907  0.10343661  1
  N  N36  1  0.21865215  0.20737462  0.32349408  1
  N  N37  1  0.07995381  0.10867792  0.08140544  1
  N  N38  1  0.89090565  0.19974914  0.82122595  1
  N  N39  1  0.79097355  0.05869217  0.62328198  1
  N  N40  1  0.55930335  0.20285584  0.37576214  1
  N  N41  1  0.46456189  0.05982210  0.12503778  1
  N  N42  1  0.21572899  0.20771136  0.83416951  1
  N  N43  1  0.12212744  0.09028938  0.58116509  1
  N  N44  1  0.88458512  0.20425864  0.39360479  1
  N  N45  1  0.79145823  0.11720528  0.12301839  1
  N  N46  1  0.55703451  0.20074445  0.88049552  1
  N  N47  1  0.44370423  0.10295338  0.62591436  1
  N  N48  1  0.21734878  0.54361528  0.33345510  1
  N  N49  1  0.11259337  0.42774318  0.07722965  1
  N  N50  1  0.89392962  0.53877221  0.83149930  1
  N  N51  1  0.77559396  0.43628081  0.61610744  1
  N  N52  1  0.55533907  0.54695471  0.32354864  1
  N  N53  1  0.44719017  0.41851019  0.12498710  1
  N  N54  1  0.21231341  0.54462815  0.82597644  1
  N  N55  1  0.11316831  0.42661429  0.57422867  1
  N  N56  1  0.89444417  0.53692711  0.32474120  1
  N  N57  1  0.79726060  0.39226028  0.11688445  1
  N  N58  1  0.55127534  0.54231459  0.84362046  1
  N  N59  1  0.44847232  0.41992292  0.62638128  1
  N  N60  1  0.22175598  0.87477367  0.32913507  1
  N  N61  1  0.12596154  0.75534945  0.08231942  1
  N  N62  1  0.88200121  0.87679404  0.89871623  1
  N  N63  1  0.80189830  0.77600698  0.62418759  1
  N  N64  1  0.55993541  0.87408529  0.39493255  1
  N  N65  1  0.45400459  0.78082259  0.08278364  1
  N  N66  1  0.22003198  0.87264757  0.83324222  1
  N  N67  1  0.08026036  0.77980017  0.58052693  1
  N  N68  1  0.89175998  0.87110800  0.31232906  1
  N  N69  1  0.73977586  0.77125245  0.12036539  1
  N  N70  1  0.55563634  0.86611885  0.82415485  1
  N  N71  1  0.43269458  0.76018590  0.58120411  1
