# generated using pymatgen
data_Al11BN12
_symmetry_space_group_name_H-M   'P 1'
_cell_length_a   9.28671081
_cell_length_b   9.31735942
_cell_length_c   10.10222279
_cell_angle_alpha   90.01573715
_cell_angle_beta   89.43147601
_cell_angle_gamma   59.82262307
_symmetry_Int_Tables_number   1
_chemical_formula_structural   Al11BN12
_chemical_formula_sum   'Al33 B3 N36'
_cell_volume   755.60338346
_cell_formula_units_Z   3
loop_
 _symmetry_equiv_pos_site_id
 _symmetry_equiv_pos_as_xyz
  1  'x, y, z'
loop_
 _atom_site_type_symbol
 _atom_site_label
 _atom_site_symmetry_multiplicity
 _atom_site_fract_x
 _atom_site_fract_y
 _atom_site_fract_z
 _atom_site_occupancy
  Al  Al0  1  0.11748791  0.09098044  0.39640494  1
  Al  Al1  1  0.21677012  0.20283927  0.12938337  1
  Al  Al2  1  0.78133861  0.08553685  0.82070895  1
  Al  Al3  1  0.88966525  0.20207387  0.60030003  1
  Al  Al4  1  0.45580430  0.08370731  0.31397697  1
  Al  Al5  1  0.56276166  0.20471954  0.06830964  1
  Al  Al6  1  0.09638860  0.10006857  0.89003544  1
  Al  Al7  1  0.22206549  0.20128416  0.64706337  1
  Al  Al8  1  0.78307681  0.09762710  0.32062759  1
  Al  Al9  1  0.45211717  0.08780962  0.83472497  1
  Al  Al10  1  0.56012157  0.19468207  0.56919351  1
  Al  Al11  1  0.10957873  0.42686364  0.34181946  1
  Al  Al12  1  0.22038864  0.54491737  0.14305095  1
  Al  Al13  1  0.77510654  0.43182673  0.81189284  1
  Al  Al14  1  0.89026755  0.54620065  0.56847464  1
  Al  Al15  1  0.45237916  0.42337050  0.32502237  1
  Al  Al16  1  0.55972513  0.53716264  0.07189037  1
  Al  Al17  1  0.10873942  0.43064564  0.85074231  1
  Al  Al18  1  0.21358093  0.54580347  0.63505830  1
  Al  Al19  1  0.78290480  0.42015871  0.32704664  1
  Al  Al20  1  0.88196923  0.53684299  0.06945769  1
  Al  Al21  1  0.45283488  0.42480330  0.81902052  1
  Al  Al22  1  0.55528564  0.54294352  0.56700675  1
  Al  Al23  1  0.09955278  0.76847858  0.38738806  1
  Al  Al24  1  0.21234677  0.88302332  0.13995945  1
  Al  Al25  1  0.77848332  0.76523033  0.83380441  1
  Al  Al26  1  0.45148778  0.76204573  0.31755130  1
  Al  Al27  1  0.11359326  0.76043443  0.89835867  1
  Al  Al28  1  0.21082447  0.87645212  0.64615634  1
  Al  Al29  1  0.77068856  0.76169941  0.30946430  1
  Al  Al30  1  0.88422032  0.87768011  0.10028587  1
  Al  Al31  1  0.44823952  0.76076022  0.83066574  1
  Al  Al32  1  0.55970266  0.87314741  0.57439331  1
  B  B33  1  0.88460391  0.21040781  0.10880137  1
  B  B34  1  0.88585490  0.87099280  0.61060611  1
  B  B35  1  0.55823245  0.86715392  0.06659606  1
  N  N36  1  0.22203850  0.19917133  0.32286182  1
  N  N37  1  0.07534434  0.11277862  0.08296042  1
  N  N38  1  0.88807948  0.20489531  0.81891551  1
  N  N39  1  0.79154290  0.05664044  0.62465298  1
  N  N40  1  0.55739394  0.20056907  0.37991263  1
  N  N41  1  0.46535191  0.06634049  0.11978769  1
  N  N42  1  0.21877803  0.20259034  0.84414173  1
  N  N43  1  0.12445880  0.08742558  0.58203705  1
  N  N44  1  0.88334223  0.20668575  0.39485235  1
  N  N45  1  0.79065111  0.11917221  0.12537790  1
  N  N46  1  0.55753629  0.20656501  0.88174273  1
  N  N47  1  0.45436302  0.08760406  0.64168191  1
  N  N48  1  0.22018429  0.54415155  0.33912597  1
  N  N49  1  0.10782860  0.43265210  0.11032839  1
  N  N50  1  0.88199024  0.54047781  0.88116747  1
  N  N51  1  0.77397250  0.44097289  0.62459984  1
  N  N52  1  0.55547783  0.54209759  0.37793534  1
  N  N53  1  0.45242967  0.42359695  0.13344637  1
  N  N54  1  0.21904747  0.54689629  0.82852259  1
  N  N55  1  0.11176640  0.42386638  0.61076532  1
  N  N56  1  0.88329640  0.54419342  0.37769473  1
  N  N57  1  0.79329129  0.39924005  0.13072224  1
  N  N58  1  0.55649436  0.53810865  0.88479584  1
  N  N59  1  0.45465885  0.42175089  0.62630703  1
  N  N60  1  0.21726037  0.87412333  0.32984153  1
  N  N61  1  0.12215860  0.75774468  0.08297368  1
  N  N62  1  0.88091949  0.87741755  0.89678742  1
  N  N63  1  0.79437847  0.77358062  0.63416741  1
  N  N64  1  0.55647040  0.87157320  0.38755714  1
  N  N65  1  0.45766545  0.77408585  0.12294612  1
  N  N66  1  0.21331909  0.87726686  0.83549833  1
  N  N67  1  0.07774284  0.77807540  0.58315466  1
  N  N68  1  0.88950724  0.86996355  0.31523585  1
  N  N69  1  0.74705776  0.76643008  0.12021678  1
  N  N70  1  0.55516101  0.87011937  0.90254428  1
  N  N71  1  0.44998497  0.75949762  0.63678488  1
