# generated using pymatgen
data_Al11BN12
_symmetry_space_group_name_H-M   'P 1'
_cell_length_a   9.23536734
_cell_length_b   9.28718674
_cell_length_c   10.27239887
_cell_angle_alpha   90.35352876
_cell_angle_beta   89.72365726
_cell_angle_gamma   59.83737836
_symmetry_Int_Tables_number   1
_chemical_formula_structural   Al11BN12
_chemical_formula_sum   'Al33 B3 N36'
_cell_volume   761.72874943
_cell_formula_units_Z   3
loop_
 _symmetry_equiv_pos_site_id
 _symmetry_equiv_pos_as_xyz
  1  'x, y, z'
loop_
 _atom_site_type_symbol
 _atom_site_label
 _atom_site_symmetry_multiplicity
 _atom_site_fract_x
 _atom_site_fract_y
 _atom_site_fract_z
 _atom_site_occupancy
  Al  Al0  1  0.11450901  0.09457235  0.39744791  1
  Al  Al1  1  0.21161630  0.20668516  0.13566406  1
  Al  Al2  1  0.78026508  0.08507268  0.82043912  1
  Al  Al3  1  0.88960869  0.20100772  0.60231417  1
  Al  Al4  1  0.45477462  0.08365371  0.31495650  1
  Al  Al5  1  0.56193253  0.20125714  0.06561095  1
  Al  Al6  1  0.09779445  0.10073147  0.88757493  1
  Al  Al7  1  0.21550618  0.20989856  0.64604146  1
  Al  Al8  1  0.78232454  0.09839577  0.31829188  1
  Al  Al9  1  0.45100950  0.09013580  0.82273056  1
  Al  Al10  1  0.55978670  0.19590262  0.56554404  1
  Al  Al11  1  0.12119470  0.42195452  0.38866490  1
  Al  Al12  1  0.21662855  0.54251597  0.14563595  1
  Al  Al13  1  0.77488336  0.43376100  0.81237260  1
  Al  Al14  1  0.88459036  0.54961577  0.56542512  1
  Al  Al15  1  0.45270096  0.42229207  0.32034576  1
  Al  Al16  1  0.56233259  0.52891100  0.07366211  1
  Al  Al17  1  0.11819212  0.42629972  0.89205269  1
  Al  Al18  1  0.21013282  0.54607219  0.63852580  1
  Al  Al19  1  0.78492900  0.42032656  0.32484182  1
  Al  Al20  1  0.87660154  0.53917629  0.06689029  1
  Al  Al21  1  0.45178186  0.42503257  0.81799161  1
  Al  Al22  1  0.55871470  0.53227496  0.56605043  1
  Al  Al23  1  0.09879972  0.76845684  0.38661330  1
  Al  Al24  1  0.22020817  0.87851112  0.14435318  1
  Al  Al25  1  0.78292439  0.76271312  0.82799541  1
  Al  Al26  1  0.43689466  0.76633554  0.39120369  1
  Al  Al27  1  0.11574829  0.75938578  0.89764041  1
  Al  Al28  1  0.21686466  0.87504790  0.64615165  1
  Al  Al29  1  0.77106857  0.76038103  0.30931214  1
  Al  Al30  1  0.88657417  0.87733266  0.09892371  1
  Al  Al31  1  0.44117225  0.76936030  0.89417743  1
  Al  Al32  1  0.56130218  0.87713200  0.57626846  1
  B  B33  1  0.88689148  0.20774512  0.10776476  1
  B  B34  1  0.88828282  0.87066110  0.60886793  1
  B  B35  1  0.55612591  0.87089614  0.08060246  1
  N  N36  1  0.21779919  0.20553414  0.32154613  1
  N  N37  1  0.07793178  0.11034529  0.08108915  1
  N  N38  1  0.88767592  0.20470837  0.81804648  1
  N  N39  1  0.79092526  0.05675497  0.62486260  1
  N  N40  1  0.55644736  0.20177203  0.37907616  1
  N  N41  1  0.46427286  0.06318361  0.12283870  1
  N  N42  1  0.21494307  0.20791696  0.83443301  1
  N  N43  1  0.12317370  0.08925630  0.58126682  1
  N  N44  1  0.88152384  0.20788136  0.39460779  1
  N  N45  1  0.79076467  0.11828173  0.12467574  1
  N  N46  1  0.55510383  0.20701936  0.88180872  1
  N  N47  1  0.44924915  0.09432089  0.63518164  1
  N  N48  1  0.21800467  0.54394516  0.33330021  1
  N  N49  1  0.11521730  0.42776749  0.07970449  1
  N  N50  1  0.88310064  0.54062238  0.88107196  1
  N  N51  1  0.77476787  0.44143368  0.62752228  1
  N  N52  1  0.55925557  0.53423447  0.37707635  1
  N  N53  1  0.45142667  0.41965830  0.13320107  1
  N  N54  1  0.21440344  0.54498724  0.82466623  1
  N  N55  1  0.11893343  0.42222938  0.57535165  1
  N  N56  1  0.88452007  0.54411167  0.37656040  1
  N  N57  1  0.79561533  0.39762119  0.13116310  1
  N  N58  1  0.55682710  0.53503823  0.88685622  1
  N  N59  1  0.45388199  0.42013650  0.62911133  1
  N  N60  1  0.21801552  0.87581391  0.32945208  1
  N  N61  1  0.12687293  0.75477547  0.08119986  1
  N  N62  1  0.88283221  0.87703475  0.89692330  1
  N  N63  1  0.79797983  0.77218584  0.63185079  1
  N  N64  1  0.56009253  0.87508204  0.38854370  1
  N  N65  1  0.45139276  0.77844918  0.08778322  1
  N  N66  1  0.21999397  0.87398530  0.83205331  1
  N  N67  1  0.07942967  0.77791830  0.58136528  1
  N  N68  1  0.89056888  0.87004772  0.31152717  1
  N  N69  1  0.74370540  0.76754742  0.12182396  1
  N  N70  1  0.56066165  0.87460554  0.87747093  1
  N  N71  1  0.43715552  0.76298464  0.58332551  1
