# generated using pymatgen
data_Al11BN12
_symmetry_space_group_name_H-M   'P 1'
_cell_length_a   9.27685272
_cell_length_b   9.28685106
_cell_length_c   9.93959580
_cell_angle_alpha   90.00510109
_cell_angle_beta   89.83456809
_cell_angle_gamma   59.96204269
_symmetry_Int_Tables_number   1
_chemical_formula_structural   Al11BN12
_chemical_formula_sum   'Al33 B3 N36'
_cell_volume   741.30984564
_cell_formula_units_Z   3
loop_
 _symmetry_equiv_pos_site_id
 _symmetry_equiv_pos_as_xyz
  1  'x, y, z'
loop_
 _atom_site_type_symbol
 _atom_site_label
 _atom_site_symmetry_multiplicity
 _atom_site_fract_x
 _atom_site_fract_y
 _atom_site_fract_z
 _atom_site_occupancy
  Al  Al0  1  0.10844451  0.09621650  0.37156153  1
  Al  Al1  1  0.21745057  0.20315092  0.06476053  1
  Al  Al2  1  0.77758172  0.08614847  0.80408866  1
  Al  Al3  1  0.88627013  0.20380697  0.59252878  1
  Al  Al4  1  0.44799821  0.08798396  0.30686266  1
  Al  Al5  1  0.56396789  0.20227050  0.06364224  1
  Al  Al6  1  0.10670750  0.09573409  0.82855821  1
  Al  Al7  1  0.22979322  0.20767714  0.56635745  1
  Al  Al8  1  0.78233427  0.09345459  0.32538476  1
  Al  Al9  1  0.44627354  0.09167391  0.82164178  1
  Al  Al10  1  0.55946936  0.19789810  0.56043330  1
  Al  Al11  1  0.11212833  0.42850060  0.31125528  1
  Al  Al12  1  0.22139419  0.54036662  0.06120035  1
  Al  Al13  1  0.77508366  0.43222562  0.80686511  1
  Al  Al14  1  0.88994027  0.54681175  0.55972662  1
  Al  Al15  1  0.44403430  0.42759608  0.31244243  1
  Al  Al16  1  0.56240122  0.53412095  0.06386678  1
  Al  Al17  1  0.10989739  0.42831471  0.81349282  1
  Al  Al18  1  0.21833067  0.54240722  0.56349659  1
  Al  Al19  1  0.78068470  0.42293225  0.31861482  1
  Al  Al20  1  0.88549843  0.53645498  0.06394191  1
  Al  Al21  1  0.44694724  0.42644786  0.81265478  1
  Al  Al22  1  0.55488441  0.54265656  0.55946297  1
  Al  Al23  1  0.10843684  0.76109682  0.31947479  1
  Al  Al24  1  0.21606517  0.87777113  0.06574107  1
  Al  Al25  1  0.77828175  0.76392786  0.81625899  1
  Al  Al26  1  0.44718578  0.76456743  0.30726360  1
  Al  Al27  1  0.10489905  0.76389548  0.80929691  1
  Al  Al28  1  0.22372805  0.86521973  0.56685731  1
  Al  Al29  1  0.77322055  0.76556276  0.31368012  1
  Al  Al30  1  0.88580918  0.87878927  0.06518513  1
  Al  Al31  1  0.44600206  0.76149866  0.82171290  1
  Al  Al32  1  0.55960744  0.87319373  0.56560074  1
  B  B33  1  0.89259816  0.20261296  0.10727666  1
  B  B34  1  0.88356423  0.87356940  0.55999675  1
  B  B35  1  0.55630217  0.87239801  0.05922886  1
  N  N36  1  0.22744259  0.20737250  0.37043851  1
  N  N37  1  0.07703928  0.11072140  0.09959862  1
  N  N38  1  0.88329125  0.20594999  0.81489102  1
  N  N39  1  0.78639797  0.06244942  0.61099953  1
  N  N40  1  0.55433802  0.20356747  0.36826071  1
  N  N41  1  0.45698748  0.06963962  0.11349889  1
  N  N42  1  0.22147419  0.20634213  0.87335553  1
  N  N43  1  0.12013242  0.09104701  0.59993904  1
  N  N44  1  0.88198494  0.20969574  0.38844722  1
  N  N45  1  0.79361098  0.10773869  0.12659038  1
  N  N46  1  0.55865215  0.20399737  0.87327269  1
  N  N47  1  0.44757929  0.09258344  0.62964149  1
  N  N48  1  0.22277201  0.53800775  0.37338578  1
  N  N49  1  0.11103749  0.42830830  0.12098244  1
  N  N50  1  0.88693005  0.53991567  0.87327953  1
  N  N51  1  0.77343054  0.44196798  0.61610803  1
  N  N52  1  0.55394117  0.54199306  0.36678199  1
  N  N53  1  0.44392717  0.42747004  0.12138498  1
  N  N54  1  0.22176029  0.54061343  0.86963082  1
  N  N55  1  0.11088295  0.42892109  0.62287820  1
  N  N56  1  0.88878502  0.54110017  0.36726367  1
  N  N57  1  0.79333920  0.39667361  0.12184065  1
  N  N58  1  0.55683163  0.53765277  0.87477014  1
  N  N59  1  0.44744144  0.42595596  0.62003390  1
  N  N60  1  0.22695187  0.86599421  0.37174013  1
  N  N61  1  0.10831322  0.76115887  0.12743367  1
  N  N62  1  0.88819889  0.87318821  0.87784163  1
  N  N63  1  0.78958256  0.77367844  0.61887122  1
  N  N64  1  0.55434681  0.87282082  0.37701091  1
  N  N65  1  0.45643869  0.77361845  0.11381461  1
  N  N66  1  0.22056527  0.86983700  0.87263810  1
  N  N67  1  0.08653955  0.77280257  0.61584474  1
  N  N68  1  0.88780830  0.87010865  0.39050276  1
  N  N69  1  0.75344147  0.77470392  0.11816541  1
  N  N70  1  0.55754198  0.87104622  0.89295017  1
  N  N71  1  0.44649840  0.76157704  0.62869414  1
