# generated using pymatgen
data_Al11BN12
_symmetry_space_group_name_H-M   'P 1'
_cell_length_a   9.28219729
_cell_length_b   9.29824948
_cell_length_c   10.07667015
_cell_angle_alpha   90.08362529
_cell_angle_beta   89.53931561
_cell_angle_gamma   59.92080527
_symmetry_Int_Tables_number   1
_chemical_formula_structural   Al11BN12
_chemical_formula_sum   'Al33 B3 N36'
_cell_volume   752.54029197
_cell_formula_units_Z   3
loop_
 _symmetry_equiv_pos_site_id
 _symmetry_equiv_pos_as_xyz
  1  'x, y, z'
loop_
 _atom_site_type_symbol
 _atom_site_label
 _atom_site_symmetry_multiplicity
 _atom_site_fract_x
 _atom_site_fract_y
 _atom_site_fract_z
 _atom_site_occupancy
  Al  Al0  1  0.11638611  0.09342799  0.39451715  1
  Al  Al1  1  0.22083629  0.20310814  0.10573484  1
  Al  Al2  1  0.78062959  0.08659683  0.82102985  1
  Al  Al3  1  0.88913903  0.20193747  0.60123200  1
  Al  Al4  1  0.45207113  0.08619391  0.31366502  1
  Al  Al5  1  0.56574613  0.20298223  0.06890694  1
  Al  Al6  1  0.09617697  0.10045370  0.89067486  1
  Al  Al7  1  0.22607116  0.20041919  0.62948628  1
  Al  Al8  1  0.78072678  0.09922499  0.32203989  1
  Al  Al9  1  0.45001643  0.08947437  0.83796787  1
  Al  Al10  1  0.56113488  0.19473856  0.56970634  1
  Al  Al11  1  0.10998145  0.43188192  0.31742625  1
  Al  Al12  1  0.22962568  0.53176819  0.07122045  1
  Al  Al13  1  0.77506507  0.43212352  0.81343698  1
  Al  Al14  1  0.89130769  0.54582347  0.56971587  1
  Al  Al15  1  0.44387911  0.42736386  0.32270230  1
  Al  Al16  1  0.56025083  0.53721878  0.07340200  1
  Al  Al17  1  0.10847157  0.43199231  0.82804530  1
  Al  Al18  1  0.22098763  0.53524910  0.57397316  1
  Al  Al19  1  0.78335527  0.42056644  0.32893544  1
  Al  Al20  1  0.88377072  0.53609251  0.06923880  1
  Al  Al21  1  0.44760841  0.42657943  0.81993668  1
  Al  Al22  1  0.55460851  0.54285265  0.56739087  1
  Al  Al23  1  0.09798734  0.77094921  0.38391877  1
  Al  Al24  1  0.21227597  0.88295967  0.14174990  1
  Al  Al25  1  0.77839185  0.76463289  0.83504412  1
  Al  Al26  1  0.45164951  0.76221400  0.31863277  1
  Al  Al27  1  0.10941180  0.76701990  0.89831372  1
  Al  Al28  1  0.21053742  0.87452086  0.64590504  1
  Al  Al29  1  0.77032341  0.76090645  0.31121863  1
  Al  Al30  1  0.88493926  0.87674026  0.10387219  1
  Al  Al31  1  0.44867044  0.76005210  0.83107410  1
  Al  Al32  1  0.56028892  0.87233018  0.57514339  1
  B  B33  1  0.88510152  0.21004342  0.11069519  1
  B  B34  1  0.88624350  0.87044180  0.61201844  1
  B  B35  1  0.55903947  0.86615442  0.06712898  1
  N  N36  1  0.22276100  0.20253379  0.33127298  1
  N  N37  1  0.07387627  0.11240117  0.08505738  1
  N  N38  1  0.88926616  0.20476234  0.81791916  1
  N  N39  1  0.79027351  0.05717351  0.62509354  1
  N  N40  1  0.55589324  0.20264531  0.38011187  1
  N  N41  1  0.46701100  0.06604231  0.11992182  1
  N  N42  1  0.22130699  0.20575290  0.87101648  1
  N  N43  1  0.12330921  0.08718387  0.58297347  1
  N  N44  1  0.88275257  0.20674343  0.39613950  1
  N  N45  1  0.79015063  0.11958599  0.12684710  1
  N  N46  1  0.55902769  0.20640869  0.88176401  1
  N  N47  1  0.45294479  0.08872170  0.64357591  1
  N  N48  1  0.22314740  0.53641554  0.38465551  1
  N  N49  1  0.10560813  0.43698445  0.12743556  1
  N  N50  1  0.88557596  0.53887253  0.88174137  1
  N  N51  1  0.77349900  0.44132092  0.62495324  1
  N  N52  1  0.55449533  0.54127012  0.37740442  1
  N  N53  1  0.44719669  0.42507932  0.13382257  1
  N  N54  1  0.22665105  0.53471830  0.87907053  1
  N  N55  1  0.10972378  0.42886024  0.63626170  1
  N  N56  1  0.88816761  0.54229645  0.37981074  1
  N  N57  1  0.79338667  0.39952537  0.13160820  1
  N  N58  1  0.55664492  0.53734838  0.88530064  1
  N  N59  1  0.44892611  0.42443886  0.62946457  1
  N  N60  1  0.21790973  0.87423186  0.33141174  1
  N  N61  1  0.12014262  0.76001052  0.08704276  1
  N  N62  1  0.87957856  0.87855628  0.89701606  1
  N  N63  1  0.79340755  0.77360506  0.63490872  1
  N  N64  1  0.55633992  0.87245155  0.38828196  1
  N  N65  1  0.45744480  0.77430279  0.12362020  1
  N  N66  1  0.21391469  0.87738572  0.83503736  1
  N  N67  1  0.07566758  0.77908827  0.58585510  1
  N  N68  1  0.88799142  0.87069212  0.31538058  1
  N  N69  1  0.74730500  0.76523314  0.12100187  1
  N  N70  1  0.55562693  0.86947550  0.90270208  1
  N  N71  1  0.44950161  0.75954201  0.63670545  1
