# generated using pymatgen
data_Al11BN12
_symmetry_space_group_name_H-M   'P 1'
_cell_length_a   9.28331628
_cell_length_b   9.27430140
_cell_length_c   10.12762543
_cell_angle_alpha   90.07484972
_cell_angle_beta   89.68592686
_cell_angle_gamma   59.85962770
_symmetry_Int_Tables_number   1
_chemical_formula_structural   Al11BN12
_chemical_formula_sum   'Al33 B3 N36'
_cell_volume   754.04152761
_cell_formula_units_Z   3
loop_
 _symmetry_equiv_pos_site_id
 _symmetry_equiv_pos_as_xyz
  1  'x, y, z'
loop_
 _atom_site_type_symbol
 _atom_site_label
 _atom_site_symmetry_multiplicity
 _atom_site_fract_x
 _atom_site_fract_y
 _atom_site_fract_z
 _atom_site_occupancy
  Al  Al0  1  0.11347576  0.09393966  0.40632231  1
  Al  Al1  1  0.21531293  0.20392736  0.14694315  1
  Al  Al2  1  0.78343521  0.08153156  0.82738567  1
  Al  Al3  1  0.89038783  0.20369694  0.61885291  1
  Al  Al4  1  0.45153218  0.08382500  0.34459351  1
  Al  Al5  1  0.56704088  0.19205209  0.07693500  1
  Al  Al6  1  0.10173945  0.09896510  0.89457681  1
  Al  Al7  1  0.21434314  0.21248761  0.65249834  1
  Al  Al8  1  0.78141464  0.10269409  0.32488177  1
  Al  Al9  1  0.45096859  0.09253675  0.82463570  1
  Al  Al10  1  0.56704847  0.19127247  0.57604799  1
  Al  Al11  1  0.11023831  0.42713579  0.40058934  1
  Al  Al12  1  0.22561562  0.53640115  0.15619182  1
  Al  Al13  1  0.78069636  0.42199335  0.89283290  1
  Al  Al14  1  0.89070772  0.54842254  0.65525553  1
  Al  Al15  1  0.44339001  0.43343611  0.40047625  1
  Al  Al16  1  0.56121739  0.53439042  0.14861315  1
  Al  Al17  1  0.11134589  0.42971613  0.90293933  1
  Al  Al18  1  0.21783969  0.54277501  0.64830983  1
  Al  Al19  1  0.77441439  0.43367921  0.40759838  1
  Al  Al20  1  0.88361915  0.53509321  0.15178298  1
  Al  Al21  1  0.44064549  0.43255497  0.90001555  1
  Al  Al22  1  0.55289088  0.54077395  0.65730437  1
  Al  Al23  1  0.10193473  0.76858158  0.39245960  1
  Al  Al24  1  0.21986749  0.87943033  0.15176229  1
  Al  Al25  1  0.76945288  0.76360368  0.90263592  1
  Al  Al26  1  0.44058433  0.75900315  0.40626805  1
  Al  Al27  1  0.11436421  0.75928912  0.90827974  1
  Al  Al28  1  0.21330549  0.87498450  0.65451310  1
  Al  Al29  1  0.78353752  0.76364394  0.39564244  1
  Al  Al30  1  0.88920793  0.87495048  0.11800325  1
  Al  Al31  1  0.44519463  0.76724905  0.89546884  1
  Al  Al32  1  0.55856609  0.87023208  0.61697530  1
  B  B33  1  0.88615087  0.20898127  0.10806769  1
  B  B34  1  0.89135679  0.86904218  0.60918682  1
  B  B35  1  0.55366491  0.86943969  0.11144692  1
  N  N36  1  0.21844637  0.20659298  0.33585513  1
  N  N37  1  0.07831839  0.11063939  0.09040963  1
  N  N38  1  0.88831162  0.20778507  0.82422545  1
  N  N39  1  0.79411266  0.05539848  0.63451010  1
  N  N40  1  0.56080039  0.19955758  0.38528814  1
  N  N41  1  0.46357458  0.05868236  0.13047036  1
  N  N42  1  0.21748677  0.20808193  0.84523151  1
  N  N43  1  0.12184041  0.09056984  0.59290999  1
  N  N44  1  0.88445294  0.20469377  0.40021632  1
  N  N45  1  0.79121191  0.11942382  0.13270598  1
  N  N46  1  0.56146732  0.19830765  0.88794243  1
  N  N47  1  0.44257290  0.10277892  0.63359083  1
  N  N48  1  0.22172712  0.53965910  0.34400891  1
  N  N49  1  0.11037805  0.43009813  0.09161438  1
  N  N50  1  0.88952912  0.54074312  0.84430450  1
  N  N51  1  0.77195842  0.44536227  0.59614499  1
  N  N52  1  0.55656203  0.53954781  0.33569540  1
  N  N53  1  0.44382603  0.42817100  0.09139146  1
  N  N54  1  0.22077788  0.54086947  0.83698388  1
  N  N55  1  0.10960682  0.42993882  0.58880076  1
  N  N56  1  0.88815955  0.53850875  0.33883456  1
  N  N57  1  0.79273609  0.39885613  0.08906718  1
  N  N58  1  0.55440925  0.54024771  0.84616318  1
  N  N59  1  0.44565442  0.42979425  0.59185988  1
  N  N60  1  0.22151237  0.87459139  0.33888001  1
  N  N61  1  0.12667846  0.75376134  0.09504595  1
  N  N62  1  0.88533353  0.87623312  0.90697381  1
  N  N63  1  0.80285939  0.77226213  0.59235742  1
  N  N64  1  0.55644916  0.87009009  0.40078067  1
  N  N65  1  0.45469248  0.77811645  0.09146287  1
  N  N66  1  0.21949446  0.87323908  0.84348868  1
  N  N67  1  0.08196497  0.77779165  0.58992932  1
  N  N68  1  0.88863398  0.86934797  0.32016147  1
  N  N69  1  0.74147022  0.76813701  0.09687328  1
  N  N70  1  0.56227790  0.86204686  0.82475211  1
  N  N71  1  0.43295437  0.75647298  0.59448939  1
