# generated using pymatgen
data_Sc5Al13N18
_symmetry_space_group_name_H-M   'P 1'
_cell_length_a   9.86715824
_cell_length_b   9.81741561
_cell_length_c   10.13336678
_cell_angle_alpha   90.02639129
_cell_angle_beta   90.08738051
_cell_angle_gamma   59.83617912
_symmetry_Int_Tables_number   1
_chemical_formula_structural   Sc5Al13N18
_chemical_formula_sum   'Sc10 Al26 N36'
_cell_volume   848.69929706
_cell_formula_units_Z   2
loop_
 _symmetry_equiv_pos_site_id
 _symmetry_equiv_pos_as_xyz
  1  'x, y, z'
loop_
 _atom_site_type_symbol
 _atom_site_label
 _atom_site_symmetry_multiplicity
 _atom_site_fract_x
 _atom_site_fract_y
 _atom_site_fract_z
 _atom_site_occupancy
  Al  Al0  1  0.12223982  0.09025554  0.30693144  1
  Al  Al1  1  0.21757777  0.20351307  0.05631056  1
  Al  Al2  1  0.78611508  0.09772164  0.79458378  1
  Al  Al3  1  0.90183704  0.20545409  0.55292145  1
  Al  Al4  1  0.43329437  0.10123471  0.29758582  1
  Al  Al5  1  0.55902346  0.20829512  0.05038122  1
  Al  Al6  1  0.10879433  0.09376470  0.79971798  1
  Al  Al7  1  0.21791995  0.20152632  0.55253291  1
  Al  Al8  1  0.10993774  0.41884441  0.30161017  1
  Al  Al9  1  0.78270860  0.42151491  0.80343420  1
  Al  Al10  1  0.89479201  0.52614832  0.55187894  1
  Al  Al11  1  0.44645040  0.42793127  0.29473945  1
  Al  Al12  1  0.55796704  0.54279325  0.05263438  1
  Al  Al13  1  0.10505322  0.42291565  0.80493551  1
  Al  Al14  1  0.78006139  0.42915269  0.30159428  1
  Al  Al15  1  0.88354337  0.53584925  0.05371360  1
  Al  Al16  1  0.44474237  0.43265685  0.81000856  1
  Al  Al17  1  0.12171903  0.76268532  0.30248932  1
  Al  Al18  1  0.23125313  0.87263392  0.05306027  1
  Al  Al19  1  0.89866045  0.87214219  0.55317006  1
  Al  Al20  1  0.43853692  0.76286386  0.29983933  1
  Al  Al21  1  0.55238173  0.86656914  0.05791375  1
  Al  Al22  1  0.11373718  0.76621095  0.80128023  1
  Al  Al23  1  0.22071132  0.87891990  0.55487542  1
  Al  Al24  1  0.43796605  0.76312979  0.80627081  1
  Al  Al25  1  0.53901541  0.88019012  0.54834530  1
  Sc  Sc26  1  0.77659102  0.10042576  0.31950314  1
  Sc  Sc27  1  0.89600316  0.20655404  0.05888065  1
  Sc  Sc28  1  0.43589105  0.09649327  0.82130946  1
  Sc  Sc29  1  0.55017166  0.20320330  0.56387277  1
  Sc  Sc30  1  0.22198329  0.53575664  0.06552104  1
  Sc  Sc31  1  0.21472447  0.54131789  0.55468798  1
  Sc  Sc32  1  0.55840818  0.54330061  0.56038909  1
  Sc  Sc33  1  0.77627857  0.75735483  0.80045732  1
  Sc  Sc34  1  0.77583531  0.75724531  0.32107220  1
  Sc  Sc35  1  0.88906961  0.87332641  0.05619914  1
  N  N36  1  0.22287580  0.20528377  0.36176863  1
  N  N37  1  0.13578348  0.08016786  0.11987426  1
  N  N38  1  0.89184674  0.20297959  0.84868019  1
  N  N39  1  0.79577431  0.09084843  0.59901417  1
  N  N40  1  0.53090084  0.21668883  0.35531735  1
  N  N41  1  0.44273757  0.09865282  0.09971470  1
  N  N42  1  0.19770335  0.21293672  0.86910827  1
  N  N43  1  0.11347733  0.09332730  0.60967956  1
  N  N44  1  0.90480327  0.21404538  0.35990837  1
  N  N45  1  0.76326311  0.10461275  0.11346350  1
  N  N46  1  0.56938289  0.21212585  0.85626993  1
  N  N47  1  0.42893859  0.08757861  0.61262363  1
  N  N48  1  0.22347722  0.53639930  0.33591604  1
  N  N49  1  0.09653537  0.41648037  0.11478748  1
  N  N50  1  0.89396168  0.52205092  0.86492412  1
  N  N51  1  0.79592117  0.41755113  0.61567970  1
  N  N52  1  0.55639627  0.53844965  0.34979044  1
  N  N53  1  0.46367407  0.42150618  0.10544659  1
  N  N54  1  0.21679931  0.53960607  0.84950356  1
  N  N55  1  0.10356487  0.41526419  0.61570926  1
  N  N56  1  0.90081161  0.51691388  0.36592068  1
  N  N57  1  0.76732721  0.44479009  0.11410110  1
  N  N58  1  0.55713378  0.54059865  0.85753144  1
  N  N59  1  0.44040182  0.43333507  0.62454089  1
  N  N60  1  0.22632378  0.87045959  0.36534648  1
  N  N61  1  0.12311072  0.77393271  0.11624055  1
  N  N62  1  0.89571035  0.88151156  0.84623120  1
  N  N63  1  0.77418052  0.76167701  0.58369756  1
  N  N64  1  0.52871606  0.88625360  0.35881744  1
  N  N65  1  0.44411616  0.75941399  0.11095114  1
  N  N66  1  0.22149955  0.87379913  0.86218281  1
  N  N67  1  0.10825660  0.77851419  0.61377141  1
  N  N68  1  0.91393442  0.85975147  0.36442107  1
  N  N69  1  0.76967824  0.75242444  0.10509791  1
  N  N70  1  0.54700915  0.85955751  0.87155402  1
  N  N71  1  0.43226618  0.78069715  0.61780890  1
