# generated using pymatgen
data_Sc5Al13N18
_symmetry_space_group_name_H-M   'P 1'
_cell_length_a   9.86690872
_cell_length_b   9.81709995
_cell_length_c   10.13512070
_cell_angle_alpha   89.92429510
_cell_angle_beta   89.91015342
_cell_angle_gamma   59.83877520
_symmetry_Int_Tables_number   1
_chemical_formula_structural   Sc5Al13N18
_chemical_formula_sum   'Sc10 Al26 N36'
_cell_volume   848.81962090
_cell_formula_units_Z   2
loop_
 _symmetry_equiv_pos_site_id
 _symmetry_equiv_pos_as_xyz
  1  'x, y, z'
loop_
 _atom_site_type_symbol
 _atom_site_label
 _atom_site_symmetry_multiplicity
 _atom_site_fract_x
 _atom_site_fract_y
 _atom_site_fract_z
 _atom_site_occupancy
  Al  Al0  1  0.11491201  0.09416397  0.39938871  1
  Al  Al1  1  0.22393349  0.20016300  0.15129257  1
  Al  Al2  1  0.77719620  0.10259436  0.89788144  1
  Al  Al3  1  0.89949875  0.20233558  0.65288862  1
  Al  Al4  1  0.43259976  0.09689741  0.39475168  1
  Al  Al5  1  0.55083105  0.20776381  0.15228874  1
  Al  Al6  1  0.11764021  0.08922013  0.89361805  1
  Al  Al7  1  0.21338732  0.20365192  0.64257214  1
  Al  Al8  1  0.11035764  0.42200031  0.39512679  1
  Al  Al9  1  0.77418513  0.42962893  0.89850569  1
  Al  Al10  1  0.89509774  0.52588535  0.64777434  1
  Al  Al11  1  0.43925623  0.43248741  0.39121891  1
  Al  Al12  1  0.55769727  0.54280085  0.14922874  1
  Al  Al13  1  0.10426393  0.41937558  0.89964505  1
  Al  Al14  1  0.78714246  0.42267815  0.39657107  1
  Al  Al15  1  0.88241435  0.53616360  0.14726271  1
  Al  Al16  1  0.45193792  0.42774004  0.90655624  1
  Al  Al17  1  0.11643731  0.76237997  0.39916203  1
  Al  Al18  1  0.23171181  0.87237533  0.14793750  1
  Al  Al19  1  0.89686997  0.87720768  0.65518117  1
  Al  Al20  1  0.43694565  0.76754170  0.39344427  1
  Al  Al21  1  0.54880176  0.87281331  0.14994745  1
  Al  Al22  1  0.11933744  0.76573758  0.89697696  1
  Al  Al23  1  0.22036149  0.87900823  0.64492173  1
  Al  Al24  1  0.43875839  0.75915860  0.90203730  1
  Al  Al25  1  0.54179275  0.87598107  0.64586361  1
  Sc  Sc26  1  0.78413261  0.09712500  0.39108014  1
  Sc  Sc27  1  0.89843230  0.20860776  0.13104249  1
  Sc  Sc28  1  0.43680251  0.09968404  0.89516777  1
  Sc  Sc29  1  0.55817066  0.20189869  0.63760939  1
  Sc  Sc30  1  0.22178127  0.53572726  0.13529960  1
  Sc  Sc31  1  0.21549747  0.54000680  0.64515624  1
  Sc  Sc32  1  0.55827505  0.54388024  0.63941665  1
  Sc  Sc33  1  0.77500535  0.75639498  0.87935481  1
  Sc  Sc34  1  0.77661815  0.75847268  0.39803504  1
  Sc  Sc35  1  0.89084587  0.86937282  0.13258406  1
  N  N36  1  0.21948331  0.20496760  0.34039825  1
  N  N37  1  0.14099894  0.07946848  0.08074626  1
  N  N38  1  0.89246719  0.20592618  0.85058626  1
  N  N39  1  0.79926037  0.08866402  0.60019979  1
  N  N40  1  0.53747396  0.21241154  0.34452416  1
  N  N41  1  0.44279827  0.09760106  0.10415133  1
  N  N42  1  0.20378938  0.21261389  0.83019547  1
  N  N43  1  0.11054856  0.09337431  0.59003590  1
  N  N44  1  0.90462563  0.21188230  0.33903562  1
  N  N45  1  0.75900011  0.10727373  0.08939805  1
  N  N46  1  0.56319668  0.21579355  0.84545733  1
  N  N47  1  0.42985387  0.08899134  0.58762400  1
  N  N48  1  0.21812575  0.54058234  0.35153463  1
  N  N49  1  0.09691164  0.41371383  0.08778702  1
  N  N50  1  0.89664397  0.51625926  0.83419384  1
  N  N51  1  0.79723044  0.41467380  0.58603461  1
  N  N52  1  0.55892252  0.53969498  0.34394926  1
  N  N53  1  0.46279163  0.42156133  0.09593322  1
  N  N54  1  0.22219158  0.53431179  0.86376869  1
  N  N55  1  0.10259097  0.41715608  0.58292090  1
  N  N56  1  0.89734782  0.52272769  0.33575987  1
  N  N57  1  0.76485332  0.44780823  0.08501206  1
  N  N58  1  0.55321261  0.54040066  0.85038901  1
  N  N59  1  0.44194856  0.43207439  0.57667927  1
  N  N60  1  0.22123277  0.87391357  0.33852310  1
  N  N61  1  0.12722058  0.77190707  0.08172101  1
  N  N62  1  0.90055086  0.88192760  0.84804192  1
  N  N63  1  0.77831003  0.76217434  0.61639164  1
  N  N64  1  0.53651068  0.88161669  0.33808049  1
  N  N65  1  0.44515595  0.76070232  0.09280083  1
  N  N66  1  0.22571850  0.87057027  0.83463825  1
  N  N67  1  0.10575518  0.77898692  0.58942473  1
  N  N68  1  0.90790839  0.86051756  0.34017582  1
  N  N69  1  0.76464819  0.75289097  0.09613181  1
  N  N70  1  0.53674617  0.86596556  0.83222412  1
  N  N71  1  0.43082207  0.78042709  0.58009012  1
