# generated using pymatgen
data_Sc5Al13N18
_symmetry_space_group_name_H-M   'P 1'
_cell_length_a   9.87101527
_cell_length_b   9.82002434
_cell_length_c   10.12601221
_cell_angle_alpha   89.92565858
_cell_angle_beta   89.91457463
_cell_angle_gamma   59.83861381
_symmetry_Int_Tables_number   1
_chemical_formula_structural   Sc5Al13N18
_chemical_formula_sum   'Sc10 Al26 N36'
_cell_volume   848.66117025
_cell_formula_units_Z   2
loop_
 _symmetry_equiv_pos_site_id
 _symmetry_equiv_pos_as_xyz
  1  'x, y, z'
loop_
 _atom_site_type_symbol
 _atom_site_label
 _atom_site_symmetry_multiplicity
 _atom_site_fract_x
 _atom_site_fract_y
 _atom_site_fract_z
 _atom_site_occupancy
  Al  Al0  1  0.11491606  0.09416945  0.38750740  1
  Al  Al1  1  0.22397000  0.20014331  0.13941591  1
  Al  Al2  1  0.77715972  0.10264784  0.88611115  1
  Al  Al3  1  0.89954846  0.20226183  0.64106958  1
  Al  Al4  1  0.43253293  0.09691394  0.38303511  1
  Al  Al5  1  0.55078503  0.20775830  0.14049562  1
  Al  Al6  1  0.11773867  0.08913814  0.88181995  1
  Al  Al7  1  0.21330332  0.20367978  0.63076248  1
  Al  Al8  1  0.11034054  0.42199758  0.38324548  1
  Al  Al9  1  0.77411383  0.42972062  0.88659846  1
  Al  Al10  1  0.89510062  0.52587116  0.63587157  1
  Al  Al11  1  0.43921667  0.43249960  0.37935006  1
  Al  Al12  1  0.55771303  0.54280517  0.13745758  1
  Al  Al13  1  0.10419514  0.41935732  0.88782146  1
  Al  Al14  1  0.78723674  0.42261035  0.38474165  1
  Al  Al15  1  0.88236638  0.53620144  0.13544787  1
  Al  Al16  1  0.45205226  0.42769343  0.89461976  1
  Al  Al17  1  0.11646135  0.76234783  0.38726968  1
  Al  Al18  1  0.23176563  0.87233509  0.13613369  1
  Al  Al19  1  0.89690843  0.87723418  0.64331194  1
  Al  Al20  1  0.43691973  0.76761770  0.38158795  1
  Al  Al21  1  0.54873213  0.87290979  0.13802236  1
  Al  Al22  1  0.11943944  0.76570176  0.88508758  1
  Al  Al23  1  0.22037439  0.87900032  0.63305909  1
  Al  Al24  1  0.43878620  0.75912110  0.89019067  1
  Al  Al25  1  0.54178037  0.87597196  0.63403182  1
  Sc  Sc26  1  0.78428833  0.09706082  0.37884405  1
  Sc  Sc27  1  0.89849408  0.20868575  0.11895938  1
  Sc  Sc28  1  0.43683126  0.09977674  0.88301018  1
  Sc  Sc29  1  0.55834551  0.20185604  0.62543153  1
  Sc  Sc30  1  0.22184088  0.53565415  0.12327659  1
  Sc  Sc31  1  0.21549427  0.53995545  0.63323906  1
  Sc  Sc32  1  0.55828797  0.54388307  0.62732441  1
  Sc  Sc33  1  0.77497638  0.75640594  0.86742485  1
  Sc  Sc34  1  0.77659059  0.75857628  0.38596301  1
  Sc  Sc35  1  0.89097896  0.86929335  0.12045214  1
  N  N36  1  0.21951620  0.20495312  0.32866792  1
  N  N37  1  0.14108274  0.07939679  0.06905474  1
  N  N38  1  0.89250538  0.20589777  0.83899171  1
  N  N39  1  0.79942947  0.08859342  0.58822064  1
  N  N40  1  0.53746970  0.21235583  0.33295066  1
  N  N41  1  0.44276044  0.09769353  0.09220965  1
  N  N42  1  0.20371479  0.21262139  0.81850483  1
  N  N43  1  0.11054912  0.09336245  0.57829284  1
  N  N44  1  0.90472802  0.21191472  0.32712902  1
  N  N45  1  0.75899219  0.10731587  0.07788206  1
  N  N46  1  0.56334429  0.21579371  0.83352398  1
  N  N47  1  0.42979329  0.08904871  0.57609291  1
  N  N48  1  0.21813844  0.54054180  0.33974742  1
  N  N49  1  0.09682843  0.41372740  0.07609366  1
  N  N50  1  0.89661501  0.51629422  0.82244328  1
  N  N51  1  0.79729684  0.41457413  0.57433718  1
  N  N52  1  0.55895017  0.53969307  0.33232690  1
  N  N53  1  0.46286126  0.42153158  0.08420403  1
  N  N54  1  0.22223006  0.53423414  0.85204675  1
  N  N55  1  0.10256497  0.41713119  0.57117875  1
  N  N56  1  0.89732874  0.52274875  0.32408336  1
  N  N57  1  0.76477500  0.44792088  0.07325656  1
  N  N58  1  0.55321084  0.54042025  0.83848953  1
  N  N59  1  0.44189008  0.43211220  0.56495578  1
  N  N60  1  0.22124572  0.87389747  0.32681238  1
  N  N61  1  0.12738247  0.77181532  0.06996925  1
  N  N62  1  0.90056239  0.88194379  0.83643758  1
  N  N63  1  0.77829235  0.76222462  0.60457801  1
  N  N64  1  0.53641066  0.88173140  0.32632939  1
  N  N65  1  0.44517288  0.76067899  0.08108839  1
  N  N66  1  0.22576976  0.87055173  0.82288237  1
  N  N67  1  0.10577645  0.77896150  0.57771385  1
  N  N68  1  0.90804356  0.86041935  0.32823921  1
  N  N69  1  0.76460417  0.75294371  0.08446040  1
  N  N70  1  0.53676967  0.86593081  0.82054580  1
  N  N71  1  0.43078385  0.78049801  0.56835285  1
