# generated using pymatgen
data_Sc5Al13N18
_symmetry_space_group_name_H-M   'P 1'
_cell_length_a   9.86795869
_cell_length_b   9.81821386
_cell_length_c   10.13097191
_cell_angle_alpha   90.02637876
_cell_angle_beta   90.08845805
_cell_angle_gamma   59.83878494
_symmetry_Int_Tables_number   1
_chemical_formula_structural   Sc5Al13N18
_chemical_formula_sum   'Sc10 Al26 N36'
_cell_volume   848.65895099
_cell_formula_units_Z   2
loop_
 _symmetry_equiv_pos_site_id
 _symmetry_equiv_pos_as_xyz
  1  'x, y, z'
loop_
 _atom_site_type_symbol
 _atom_site_label
 _atom_site_symmetry_multiplicity
 _atom_site_fract_x
 _atom_site_fract_y
 _atom_site_fract_z
 _atom_site_occupancy
  Al  Al0  1  0.12227279  0.09023372  0.30328621  1
  Al  Al1  1  0.21756729  0.20352185  0.05266381  1
  Al  Al2  1  0.78615855  0.09771303  0.79095502  1
  Al  Al3  1  0.90187076  0.20544489  0.54925388  1
  Al  Al4  1  0.43329229  0.10125935  0.29394793  1
  Al  Al5  1  0.55903835  0.20831594  0.04673678  1
  Al  Al6  1  0.10879934  0.09376449  0.79609465  1
  Al  Al7  1  0.21794134  0.20151263  0.54891807  1
  Al  Al8  1  0.10993046  0.41882847  0.29798873  1
  Al  Al9  1  0.78274931  0.42147867  0.79982430  1
  Al  Al10  1  0.89481292  0.52611790  0.54826757  1
  Al  Al11  1  0.44645601  0.42793475  0.29113524  1
  Al  Al12  1  0.55796970  0.54279900  0.04898551  1
  Al  Al13  1  0.10506776  0.42291133  0.80130351  1
  Al  Al14  1  0.78004728  0.42916440  0.29796395  1
  Al  Al15  1  0.88354731  0.53584237  0.05008049  1
  Al  Al16  1  0.44473081  0.43268083  0.80639105  1
  Al  Al17  1  0.12172399  0.76269188  0.29884989  1
  Al  Al18  1  0.23127536  0.87262473  0.04941331  1
  Al  Al19  1  0.89867411  0.87212654  0.54953541  1
  Al  Al20  1  0.43853894  0.76286280  0.29621998  1
  Al  Al21  1  0.55239794  0.86654730  0.05429738  1
  Al  Al22  1  0.11373429  0.76622068  0.79767899  1
  Al  Al23  1  0.22070936  0.87891823  0.55124602  1
  Al  Al24  1  0.43797241  0.76313846  0.80262026  1
  Al  Al25  1  0.53899537  0.88021629  0.54471769  1
  Sc  Sc26  1  0.77654665  0.10043992  0.31597551  1
  Sc  Sc27  1  0.89600732  0.20653723  0.05535047  1
  Sc  Sc28  1  0.43590768  0.09647684  0.81775883  1
  Sc  Sc29  1  0.55015202  0.20322243  0.56034482  1
  Sc  Sc30  1  0.22197781  0.53575698  0.06193703  1
  Sc  Sc31  1  0.21471663  0.54133200  0.55106844  1
  Sc  Sc32  1  0.55843209  0.54329875  0.55681827  1
  Sc  Sc33  1  0.77629605  0.75735926  0.79686484  1
  Sc  Sc34  1  0.77582854  0.75722793  0.31748585  1
  Sc  Sc35  1  0.88905771  0.87334896  0.05265143  1
  N  N36  1  0.22288647  0.20527425  0.35811499  1
  N  N37  1  0.13582244  0.08014256  0.11620160  1
  N  N38  1  0.89187443  0.20296218  0.84508595  1
  N  N39  1  0.79579354  0.09084360  0.59530901  1
  N  N40  1  0.53085778  0.21672222  0.35172801  1
  N  N41  1  0.44274084  0.09866885  0.09601866  1
  N  N42  1  0.19770966  0.21294103  0.86543325  1
  N  N43  1  0.11348174  0.09332024  0.60601770  1
  N  N44  1  0.90482199  0.21403552  0.35618899  1
  N  N45  1  0.76322700  0.10463095  0.10987693  1
  N  N46  1  0.56940969  0.21213319  0.85256704  1
  N  N47  1  0.42893475  0.08757147  0.60901967  1
  N  N48  1  0.22347062  0.53640778  0.33224136  1
  N  N49  1  0.09652693  0.41646700  0.11113013  1
  N  N50  1  0.89398106  0.52204556  0.86125388  1
  N  N51  1  0.79595926  0.41750117  0.61202795  1
  N  N52  1  0.55640346  0.53845600  0.34617004  1
  N  N53  1  0.46367713  0.42151449  0.10178451  1
  N  N54  1  0.21679962  0.53961182  0.84586377  1
  N  N55  1  0.10358463  0.41524927  0.61204417  1
  N  N56  1  0.90081412  0.51690117  0.36227164  1
  N  N57  1  0.76731373  0.44480147  0.11043244  1
  N  N58  1  0.55714958  0.54060414  0.85384377  1
  N  N59  1  0.44037570  0.43337305  0.62088425  1
  N  N60  1  0.22632805  0.87045737  0.36168849  1
  N  N61  1  0.12312475  0.77393543  0.11256335  1
  N  N62  1  0.89571852  0.88153037  0.84261816  1
  N  N63  1  0.77418416  0.76166738  0.58004606  1
  N  N64  1  0.52870716  0.88628087  0.35514721  1
  N  N65  1  0.44412469  0.75940036  0.10729750  1
  N  N66  1  0.22152307  0.87379682  0.85851213  1
  N  N67  1  0.10824681  0.77852209  0.61012359  1
  N  N68  1  0.91393604  0.85973787  0.36072953  1
  N  N69  1  0.76968564  0.75240682  0.10144703  1
  N  N70  1  0.54702859  0.85953541  0.86789880  1
  N  N71  1  0.43225900  0.78070736  0.61413068  1
