# generated using pymatgen
data_Sc5Al13N18
_symmetry_space_group_name_H-M   'P 1'
_cell_length_a   9.86701081
_cell_length_b   9.81716166
_cell_length_c   10.13489661
_cell_angle_alpha   89.92431534
_cell_angle_beta   89.91030239
_cell_angle_gamma   59.83890664
_symmetry_Int_Tables_number   1
_chemical_formula_structural   Sc5Al13N18
_chemical_formula_sum   'Sc10 Al26 N36'
_cell_volume   848.81610588
_cell_formula_units_Z   2
loop_
 _symmetry_equiv_pos_site_id
 _symmetry_equiv_pos_as_xyz
  1  'x, y, z'
loop_
 _atom_site_type_symbol
 _atom_site_label
 _atom_site_symmetry_multiplicity
 _atom_site_fract_x
 _atom_site_fract_y
 _atom_site_fract_z
 _atom_site_occupancy
  Al  Al0  1  0.11491757  0.09416274  0.39556170  1
  Al  Al1  1  0.22393903  0.20016257  0.14746781  1
  Al  Al2  1  0.77720105  0.10259484  0.89406005  1
  Al  Al3  1  0.89950601  0.20233222  0.64906801  1
  Al  Al4  1  0.43260343  0.09689701  0.39093423  1
  Al  Al5  1  0.55083587  0.20776334  0.14846953  1
  Al  Al6  1  0.11764806  0.08921748  0.88979433  1
  Al  Al7  1  0.21339017  0.20365186  0.63874598  1
  Al  Al8  1  0.11036162  0.42200058  0.39130502  1
  Al  Al9  1  0.77418798  0.42963079  0.89468079  1
  Al  Al10  1  0.89510184  0.52588566  0.64395229  1
  Al  Al11  1  0.43926054  0.43248743  0.38739447  1
  Al  Al12  1  0.55770310  0.54279964  0.14540497  1
  Al  Al13  1  0.10426651  0.41937402  0.89581940  1
  Al  Al14  1  0.78715026  0.42267566  0.39275177  1
  Al  Al15  1  0.88241777  0.53616369  0.14344200  1
  Al  Al16  1  0.45194619  0.42773825  0.90272923  1
  Al  Al17  1  0.11644298  0.76237784  0.39533336  1
  Al  Al18  1  0.23171849  0.87237344  0.14411429  1
  Al  Al19  1  0.89687689  0.87720695  0.65135722  1
  Al  Al20  1  0.43695016  0.76754378  0.38961770  1
  Al  Al21  1  0.54880441  0.87281623  0.14611894  1
  Al  Al22  1  0.11934530  0.76573503  0.89315689  1
  Al  Al23  1  0.22036649  0.87900679  0.64109857  1
  Al  Al24  1  0.43876347  0.75915707  0.89821489  1
  Al  Al25  1  0.54179607  0.87598140  0.64204535  1
  Sc  Sc26  1  0.78414276  0.09712193  0.38724598  1
  Sc  Sc27  1  0.89843971  0.20860947  0.12721412  1
  Sc  Sc28  1  0.43680638  0.09968894  0.89133889  1
  Sc  Sc29  1  0.55818131  0.20189726  0.63377916  1
  Sc  Sc30  1  0.22178849  0.53572172  0.13147189  1
  Sc  Sc31  1  0.21550268  0.54000594  0.64133218  1
  Sc  Sc32  1  0.55827969  0.54388098  0.63558563  1
  Sc  Sc33  1  0.77500900  0.75639539  0.87553089  1
  Sc  Sc34  1  0.77662024  0.75847598  0.39420597  1
  Sc  Sc35  1  0.89085380  0.86936991  0.12875229  1
  N  N36  1  0.21948939  0.20496750  0.33657872  1
  N  N37  1  0.14100695  0.07946545  0.07692599  1
  N  N38  1  0.89247373  0.20592465  0.84677040  1
  N  N39  1  0.79927059  0.08866093  0.59637281  1
  N  N40  1  0.53747980  0.21240940  0.34071008  1
  N  N41  1  0.44280178  0.09760483  0.10032696  1
  N  N42  1  0.20379229  0.21261333  0.82637329  1
  N  N43  1  0.11055355  0.09337259  0.58621379  1
  N  N44  1  0.90463337  0.21188345  0.33521115  1
  N  N45  1  0.75900544  0.10727450  0.08558411  1
  N  N46  1  0.56320670  0.21579279  0.84163253  1
  N  N47  1  0.42985803  0.08899247  0.58381050  1
  N  N48  1  0.21813164  0.54057952  0.34771196  1
  N  N49  1  0.09691297  0.41371289  0.08396581  1
  N  N50  1  0.89664706  0.51626063  0.83037440  1
  N  N51  1  0.79723734  0.41467023  0.58221786  1
  N  N52  1  0.55892880  0.53969441  0.34013138  1
  N  N53  1  0.46279879  0.42155935  0.09211210  1
  N  N54  1  0.22219772  0.53430884  0.85994965  1
  N  N55  1  0.10259419  0.41715655  0.57910222  1
  N  N56  1  0.89735194  0.52272821  0.33194275  1
  N  N57  1  0.76485620  0.44781036  0.08119085  1
  N  N58  1  0.55321741  0.54040133  0.84656324  1
  N  N59  1  0.44195160  0.43207510  0.57285887  1
  N  N60  1  0.22123823  0.87391255  0.33470129  1
  N  N61  1  0.12723027  0.77190207  0.07790339  1
  N  N62  1  0.90055729  0.88192684  0.84422615  1
  N  N63  1  0.77831288  0.76217604  0.61257126  1
  N  N64  1  0.53651240  0.88162050  0.33425707  1
  N  N65  1  0.44516118  0.76070063  0.08898107  1
  N  N66  1  0.22572439  0.87056811  0.83081850  1
  N  N67  1  0.10576057  0.77898525  0.58560222  1
  N  N68  1  0.90791614  0.86051374  0.33634857  1
  N  N69  1  0.76465153  0.75289131  0.09231281  1
  N  N70  1  0.53675007  0.86596653  0.82840947  1
  N  N71  1  0.43082565  0.78043000  0.57626864  1
