# generated using pymatgen
data_Sc5Al13N18
_symmetry_space_group_name_H-M   'P 1'
_cell_length_a   9.87104051
_cell_length_b   9.82038521
_cell_length_c   10.12451637
_cell_angle_alpha   90.02618924
_cell_angle_beta   90.08846950
_cell_angle_gamma   59.83581098
_symmetry_Int_Tables_number   1
_chemical_formula_structural   Sc5Al13N18
_chemical_formula_sum   'Sc10 Al26 N36'
_cell_volume   848.54507751
_cell_formula_units_Z   2
loop_
 _symmetry_equiv_pos_site_id
 _symmetry_equiv_pos_as_xyz
  1  'x, y, z'
loop_
 _atom_site_type_symbol
 _atom_site_label
 _atom_site_symmetry_multiplicity
 _atom_site_fract_x
 _atom_site_fract_y
 _atom_site_fract_z
 _atom_site_occupancy
  Al  Al0  1  0.12230011  0.09019745  0.32239374  1
  Al  Al1  1  0.21746359  0.20357213  0.07179231  1
  Al  Al2  1  0.78624074  0.09769579  0.81009999  1
  Al  Al3  1  0.90191030  0.20545018  0.56829832  1
  Al  Al4  1  0.43323555  0.10130100  0.31306613  1
  Al  Al5  1  0.55904455  0.20832567  0.06585584  1
  Al  Al6  1  0.10875760  0.09378382  0.81525856  1
  Al  Al7  1  0.21792619  0.20149050  0.56806851  1
  Al  Al8  1  0.10986157  0.41884520  0.31716243  1
  Al  Al9  1  0.78278623  0.42143674  0.81898489  1
  Al  Al10  1  0.89478306  0.52612136  0.56743624  1
  Al  Al11  1  0.44641830  0.42791510  0.31034047  1
  Al  Al12  1  0.55793293  0.54280475  0.06808498  1
  Al  Al13  1  0.10502133  0.42290690  0.82041324  1
  Al  Al14  1  0.77997138  0.42922545  0.31709186  1
  Al  Al15  1  0.88350634  0.53585015  0.06919077  1
  Al  Al16  1  0.44472610  0.43267934  0.82553336  1
  Al  Al17  1  0.12174913  0.76266111  0.31798222  1
  Al  Al18  1  0.23129911  0.87259941  0.06851132  1
  Al  Al19  1  0.89869112  0.87209146  0.56861783  1
  Al  Al20  1  0.43850375  0.76284844  0.31539388  1
  Al  Al21  1  0.55236224  0.86651474  0.07345214  1
  Al  Al22  1  0.11369821  0.76626826  0.81686808  1
  Al  Al23  1  0.22067518  0.87892050  0.57038289  1
  Al  Al24  1  0.43794660  0.76315309  0.82171228  1
  Al  Al25  1  0.53891309  0.88025988  0.56388942  1
  Sc  Sc26  1  0.77642171  0.10050785  0.33534217  1
  Sc  Sc27  1  0.89596140  0.20651543  0.07471616  1
  Sc  Sc28  1  0.43585344  0.09647597  0.83708498  1
  Sc  Sc29  1  0.55010861  0.20317249  0.57970637  1
  Sc  Sc30  1  0.22196252  0.53572082  0.08110947  1
  Sc  Sc31  1  0.21469818  0.54132116  0.57033711  1
  Sc  Sc32  1  0.55845105  0.54326156  0.57607148  1
  Sc  Sc33  1  0.77629101  0.75744747  0.81615768  1
  Sc  Sc34  1  0.77574228  0.75724882  0.33666832  1
  Sc  Sc35  1  0.88906212  0.87337965  0.07202761  1
  N  N36  1  0.22285104  0.20526441  0.37716773  1
  N  N37  1  0.13584977  0.08010306  0.13523018  1
  N  N38  1  0.89187913  0.20295227  0.86428908  1
  N  N39  1  0.79582940  0.09084280  0.61424193  1
  N  N40  1  0.53073969  0.21673415  0.37093142  1
  N  N41  1  0.44267738  0.09872310  0.11499121  1
  N  N42  1  0.19763945  0.21297093  0.88447898  1
  N  N43  1  0.11344658  0.09332338  0.62507355  1
  N  N44  1  0.90482779  0.21403976  0.37509864  1
  N  N45  1  0.76311648  0.10468338  0.12910075  1
  N  N46  1  0.56945494  0.21209042  0.87152633  1
  N  N47  1  0.42884278  0.08756943  0.62820894  1
  N  N48  1  0.22343550  0.53639853  0.35135514  1
  N  N49  1  0.09645011  0.41650160  0.13019750  1
  N  N50  1  0.89395655  0.52206510  0.88026700  1
  N  N51  1  0.79600022  0.41743665  0.63108126  1
  N  N52  1  0.55637488  0.53843630  0.36530295  1
  N  N53  1  0.46365081  0.42152155  0.12083363  1
  N  N54  1  0.21678129  0.53959547  0.86488563  1
  N  N55  1  0.10354965  0.41522944  0.63107129  1
  N  N56  1  0.90073694  0.51693559  0.38133326  1
  N  N57  1  0.76724132  0.44486426  0.12945908  1
  N  N58  1  0.55714152  0.54059947  0.87283541  1
  N  N59  1  0.44036152  0.43337199  0.63992998  1
  N  N60  1  0.22629776  0.87045291  0.38075072  1
  N  N61  1  0.12320813  0.77387683  0.13158596  1
  N  N62  1  0.89574839  0.88158431  0.86183269  1
  N  N63  1  0.77415154  0.76171412  0.59916357  1
  N  N64  1  0.52864035  0.88631492  0.37419312  1
  N  N65  1  0.44410885  0.75937833  0.12637434  1
  N  N66  1  0.22153857  0.87379300  0.87754400  1
  N  N67  1  0.10819501  0.77856067  0.62918946  1
  N  N68  1  0.91390778  0.85970575  0.37965027  1
  N  N69  1  0.76963877  0.75242352  0.12045792  1
  N  N70  1  0.54699095  0.85950285  0.88694964  1
  N  N71  1  0.43220874  0.78071384  0.63314325  1
