# generated using pymatgen
data_Sc5Al13N18
_symmetry_space_group_name_H-M   'P 1'
_cell_length_a   10.10768368
_cell_length_b   10.04954185
_cell_length_c   9.49041886
_cell_angle_alpha   90.04598407
_cell_angle_beta   90.12931502
_cell_angle_gamma   59.78060647
_symmetry_Int_Tables_number   1
_chemical_formula_structural   Sc5Al13N18
_chemical_formula_sum   'Sc10 Al26 N36'
_cell_volume   833.00653562
_cell_formula_units_Z   2
loop_
 _symmetry_equiv_pos_site_id
 _symmetry_equiv_pos_as_xyz
  1  'x, y, z'
loop_
 _atom_site_type_symbol
 _atom_site_label
 _atom_site_symmetry_multiplicity
 _atom_site_fract_x
 _atom_site_fract_y
 _atom_site_fract_z
 _atom_site_occupancy
  Al  Al0  1  0.12419787  0.08838255  0.33016614  1
  Al  Al1  1  0.21499773  0.20498519  0.08124447  1
  Al  Al2  1  0.78880407  0.09735103  0.82262271  1
  Al  Al3  1  0.90352352  0.20495240  0.57486657  1
  Al  Al4  1  0.43314503  0.10283399  0.32124817  1
  Al  Al5  1  0.55913749  0.20858734  0.07608356  1
  Al  Al6  1  0.10879604  0.09421340  0.82457735  1
  Al  Al7  1  0.21878824  0.20037785  0.57582143  1
  Al  Al8  1  0.10857889  0.41942059  0.32862408  1
  Al  Al9  1  0.78489167  0.41901210  0.82875400  1
  Al  Al10  1  0.89443613  0.52518492  0.57945373  1
  Al  Al11  1  0.44572517  0.42824239  0.32238938  1
  Al  Al12  1  0.55743969  0.54343213  0.07608234  1
  Al  Al13  1  0.10447120  0.42064362  0.82803624  1
  Al  Al14  1  0.77774203  0.43149710  0.32676448  1
  Al  Al15  1  0.88408848  0.53460925  0.07642367  1
  Al  Al16  1  0.44625432  0.43192177  0.83678269  1
  Al  Al17  1  0.12372431  0.76132626  0.32795080  1
  Al  Al18  1  0.23256461  0.87186237  0.07513418  1
  Al  Al19  1  0.89905508  0.87170762  0.58033551  1
  Al  Al20  1  0.43773311  0.76220930  0.32598134  1
  Al  Al21  1  0.55112402  0.86553773  0.08595621  1
  Al  Al22  1  0.11271923  0.76927555  0.82827364  1
  Al  Al23  1  0.22061450  0.87931905  0.57918601  1
  Al  Al24  1  0.43745283  0.76494595  0.82858794  1
  Al  Al25  1  0.53782169  0.88197750  0.57227356  1
  Sc  Sc26  1  0.77426829  0.10170429  0.35158296  1
  Sc  Sc27  1  0.89612496  0.20652169  0.09460027  1
  Sc  Sc28  1  0.43519732  0.09561705  0.85263091  1
  Sc  Sc29  1  0.55018098  0.20275579  0.59792715  1
  Sc  Sc30  1  0.22136283  0.53498718  0.09174744  1
  Sc  Sc31  1  0.21412518  0.54125400  0.59096634  1
  Sc  Sc32  1  0.55897359  0.54308840  0.59275475  1
  Sc  Sc33  1  0.77561505  0.75968832  0.83718829  1
  Sc  Sc34  1  0.77543775  0.75640358  0.34825874  1
  Sc  Sc35  1  0.89158348  0.87357440  0.09234648  1
  N  N36  1  0.22282662  0.20454045  0.37376197  1
  N  N37  1  0.13738123  0.07827704  0.13175322  1
  N  N38  1  0.89363152  0.20239255  0.86775127  1
  N  N39  1  0.79705260  0.09109719  0.60953624  1
  N  N40  1  0.53054812  0.21672995  0.37079292  1
  N  N41  1  0.44110840  0.10080939  0.11226386  1
  N  N42  1  0.19803841  0.21252288  0.88202219  1
  N  N43  1  0.11349672  0.09340558  0.62232810  1
  N  N44  1  0.90503966  0.21374594  0.36619468  1
  N  N45  1  0.76218087  0.10579994  0.12836196  1
  N  N46  1  0.57022742  0.21025409  0.86584076  1
  N  N47  1  0.42792004  0.08833465  0.62755889  1
  N  N48  1  0.22317312  0.53630139  0.35446028  1
  N  N49  1  0.09550171  0.41762348  0.12857201  1
  N  N50  1  0.89434514  0.52119124  0.87486738  1
  N  N51  1  0.79695016  0.41446598  0.62802636  1
  N  N52  1  0.55578813  0.53849145  0.36683667  1
  N  N53  1  0.46221543  0.42276120  0.11599455  1
  N  N54  1  0.21567613  0.53945240  0.86003146  1
  N  N55  1  0.10383878  0.41279201  0.62692429  1
  N  N56  1  0.89852999  0.51861916  0.38023355  1
  N  N57  1  0.76576219  0.44674027  0.12598734  1
  N  N58  1  0.55765768  0.54138562  0.86764256  1
  N  N59  1  0.44123548  0.43287421  0.63672265  1
  N  N60  1  0.22588098  0.87089997  0.37931479  1
  N  N61  1  0.12771636  0.77054809  0.12687890  1
  N  N62  1  0.89702262  0.88269186  0.86338816  1
  N  N63  1  0.77341726  0.76311212  0.60307302  1
  N  N64  1  0.52962289  0.88636531  0.36803839  1
  N  N65  1  0.44367582  0.75805086  0.12555342  1
  N  N66  1  0.22265385  0.87433318  0.87395818  1
  N  N67  1  0.10798238  0.78019266  0.62685963  1
  N  N68  1  0.91230972  0.85938344  0.37058844  1
  N  N69  1  0.77027691  0.75207476  0.11306392  1
  N  N70  1  0.54421930  0.86080714  0.88583692  1
  N  N71  1  0.43174773  0.78181458  0.62829003  1
