# generated using pymatgen
data_Sc5Al13N18
_symmetry_space_group_name_H-M   'P 1'
_cell_length_a   9.86752883
_cell_length_b   9.81748581
_cell_length_c   10.13377954
_cell_angle_alpha   89.92447997
_cell_angle_beta   89.91107317
_cell_angle_gamma   59.83913695
_symmetry_Int_Tables_number   1
_chemical_formula_structural   Sc5Al13N18
_chemical_formula_sum   'Sc10 Al26 N36'
_cell_volume   848.79713037
_cell_formula_units_Z   2
loop_
 _symmetry_equiv_pos_site_id
 _symmetry_equiv_pos_as_xyz
  1  'x, y, z'
loop_
 _atom_site_type_symbol
 _atom_site_label
 _atom_site_symmetry_multiplicity
 _atom_site_fract_x
 _atom_site_fract_y
 _atom_site_fract_z
 _atom_site_occupancy
  Al  Al0  1  0.11492171  0.09416353  0.39161606  1
  Al  Al1  1  0.22394687  0.20015938  0.14352145  1
  Al  Al2  1  0.77720106  0.10259965  0.89012636  1
  Al  Al3  1  0.89951636  0.20232310  0.64512563  1
  Al  Al4  1  0.43259725  0.09690093  0.38700316  1
  Al  Al5  1  0.55083558  0.20776144  0.14453087  1
  Al  Al6  1  0.11766437  0.08920521  0.88585775  1
  Al  Al7  1  0.21338196  0.20365709  0.63481013  1
  Al  Al8  1  0.11036234  0.42200140  0.38735237  1
  Al  Al9  1  0.77418164  0.42964261  0.89072922  1
  Al  Al10  1  0.89510578  0.52588330  0.63999822  1
  Al  Al11  1  0.43925826  0.43248818  0.38344811  1
  Al  Al12  1  0.55770833  0.54280122  0.14147421  1
  Al  Al13  1  0.10425826  0.41937146  0.89188264  1
  Al  Al14  1  0.78716560  0.42266703  0.38880498  1
  Al  Al15  1  0.88241217  0.53617167  0.13950020  1
  Al  Al16  1  0.45196749  0.42773028  0.89877583  1
  Al  Al17  1  0.11645104  0.76236945  0.39138703  1
  Al  Al18  1  0.23172914  0.87236682  0.14017771  1
  Al  Al19  1  0.89688644  0.87720906  0.64741076  1
  Al  Al20  1  0.43694942  0.76755284  0.38567565  1
  Al  Al21  1  0.54879815  0.87282938  0.14216812  1
  Al  Al22  1  0.11936150  0.76573008  0.88920424  1
  Al  Al23  1  0.22037167  0.87900462  0.63715135  1
  Al  Al24  1  0.43876987  0.75915329  0.89426953  1
  Al  Al25  1  0.54179549  0.87598255  0.63809909  1
  Sc  Sc26  1  0.78416869  0.09711242  0.38325307  1
  Sc  Sc27  1  0.89845236  0.20861873  0.12323755  1
  Sc  Sc28  1  0.43681354  0.09970188  0.88735330  1
  Sc  Sc29  1  0.55820956  0.20188994  0.62978949  1
  Sc  Sc30  1  0.22180147  0.53571115  0.12750041  1
  Sc  Sc31  1  0.21550782  0.53999483  0.63738444  1
  Sc  Sc32  1  0.55828650  0.54387983  0.63161120  1
  Sc  Sc33  1  0.77500599  0.75639854  0.87157266  1
  Sc  Sc34  1  0.77661942  0.75848965  0.39023664  1
  Sc  Sc35  1  0.89087604  0.86935697  0.12477490  1
  N  N36  1  0.21949649  0.20496580  0.33264839  1
  N  N37  1  0.14102185  0.07945460  0.07300178  1
  N  N38  1  0.89248253  0.20592068  0.84285801  1
  N  N39  1  0.79929811  0.08865007  0.59241045  1
  N  N40  1  0.53748526  0.21240119  0.33679944  1
  N  N41  1  0.44279928  0.09761775  0.09636947  1
  N  N42  1  0.20378506  0.21261521  0.82245098  1
  N  N43  1  0.11055734  0.09337097  0.58228394  1
  N  N44  1  0.90465183  0.21188673  0.33125677  1
  N  N45  1  0.75900942  0.10727712  0.08168147  1
  N  N46  1  0.56323138  0.21579198  0.83767413  1
  N  N47  1  0.42985082  0.08900263  0.57990373  1
  N  N48  1  0.21813838  0.54057279  0.34377086  1
  N  N49  1  0.09690269  0.41371500  0.08004335  1
  N  N50  1  0.89664628  0.51626522  0.82644026  1
  N  N51  1  0.79724917  0.41465690  0.57828848  1
  N  N52  1  0.55893541  0.53969437  0.33621653  1
  N  N53  1  0.46281377  0.42155413  0.08818308  1
  N  N54  1  0.22220748  0.53429598  0.85602549  1
  N  N55  1  0.10259346  0.41715412  0.57516816  1
  N  N56  1  0.89735152  0.52273340  0.32801794  1
  N  N57  1  0.76484791  0.44782543  0.07725833  1
  N  N58  1  0.55322098  0.54040410  0.84261215  1
  N  N59  1  0.44194673  0.43207995  0.56893039  1
  N  N60  1  0.22124322  0.87390923  0.33077679  1
  N  N61  1  0.12725385  0.77189053  0.07396830  1
  N  N62  1  0.90056284  0.88192776  0.84031088  1
  N  N63  1  0.77831221  0.76218325  0.60863132  1
  N  N64  1  0.53650250  0.88163520  0.33032706  1
  N  N65  1  0.44516608  0.76069817  0.08505361  1
  N  N66  1  0.22573447  0.87056522  0.82688364  1
  N  N67  1  0.10576811  0.77897728  0.58167769  1
  N  N68  1  0.90793856  0.86049881  0.33239534  1
  N  N69  1  0.76464616  0.75290073  0.08838805  1
  N  N70  1  0.53675400  0.86596457  0.82448208  1
  N  N71  1  0.43082342  0.78043782  0.57233914  1
