# generated using pymatgen
data_Sc5Al13N18
_symmetry_space_group_name_H-M   'P 1'
_cell_length_a   9.95303381
_cell_length_b   9.89207922
_cell_length_c   9.92318622
_cell_angle_alpha   89.94477799
_cell_angle_beta   89.95667985
_cell_angle_gamma   59.81173546
_symmetry_Int_Tables_number   1
_chemical_formula_structural   Sc5Al13N18
_chemical_formula_sum   'Sc10 Al26 N36'
_cell_volume   844.49599620
_cell_formula_units_Z   2
loop_
 _symmetry_equiv_pos_site_id
 _symmetry_equiv_pos_as_xyz
  1  'x, y, z'
loop_
 _atom_site_type_symbol
 _atom_site_label
 _atom_site_symmetry_multiplicity
 _atom_site_fract_x
 _atom_site_fract_y
 _atom_site_fract_z
 _atom_site_occupancy
  Al  Al0  1  0.11455817  0.09427450  0.38191681  1
  Al  Al1  1  0.22451064  0.19968963  0.13369513  1
  Al  Al2  1  0.77598845  0.10375039  0.88210620  1
  Al  Al3  1  0.89988053  0.20111900  0.63644555  1
  Al  Al4  1  0.43127306  0.09701248  0.38012337  1
  Al  Al5  1  0.54935519  0.20772359  0.13586614  1
  Al  Al6  1  0.11913328  0.08796507  0.87749244  1
  Al  Al7  1  0.21171099  0.20405388  0.62634537  1
  Al  Al8  1  0.10990322  0.42148342  0.37748338  1
  Al  Al9  1  0.77274336  0.43124171  0.88014529  1
  Al  Al10  1  0.89515863  0.52546208  0.62965391  1
  Al  Al11  1  0.43836896  0.43270134  0.37361980  1
  Al  Al12  1  0.55786655  0.54285456  0.13377893  1
  Al  Al13  1  0.10341827  0.41915331  0.88293236  1
  Al  Al14  1  0.78874483  0.42118915  0.38011005  1
  Al  Al15  1  0.88194376  0.53616856  0.13080893  1
  Al  Al16  1  0.45327897  0.42726877  0.88793809  1
  Al  Al17  1  0.11619933  0.76269443  0.38179333  1
  Al  Al18  1  0.23208575  0.87193483  0.13161148  1
  Al  Al19  1  0.89676580  0.87808273  0.63757476  1
  Al  Al20  1  0.43609481  0.76910435  0.37614872  1
  Al  Al21  1  0.54741686  0.87430693  0.13162519  1
  Al  Al22  1  0.12078955  0.76532949  0.87862436  1
  Al  Al23  1  0.22040474  0.87918683  0.62778410  1
  Al  Al24  1  0.43918305  0.75822477  0.88505385  1
  Al  Al25  1  0.54182207  0.87528547  0.62882375  1
  Sc  Sc26  1  0.78580453  0.09639627  0.36685489  1
  Sc  Sc27  1  0.89898258  0.20998581  0.10983291  1
  Sc  Sc28  1  0.43726548  0.10056332  0.87186626  1
  Sc  Sc29  1  0.56029876  0.20157088  0.61479071  1
  Sc  Sc30  1  0.22216661  0.53520228  0.11563042  1
  Sc  Sc31  1  0.21489010  0.53957068  0.62525570  1
  Sc  Sc32  1  0.55818696  0.54402883  0.61735316  1
  Sc  Sc33  1  0.77463810  0.75618556  0.86089984  1
  Sc  Sc34  1  0.77617510  0.75982570  0.37581790  1
  Sc  Sc35  1  0.89276385  0.86838747  0.11039469  1
  N  N36  1  0.21988015  0.20443779  0.32635263  1
  N  N37  1  0.14181621  0.07854925  0.06751643  1
  N  N38  1  0.89276465  0.20547214  0.83885796  1
  N  N39  1  0.80117792  0.08799811  0.58222503  1
  N  N40  1  0.53666236  0.21163043  0.33319871  1
  N  N41  1  0.44213400  0.09868348  0.08605151  1
  N  N42  1  0.20242786  0.21273487  0.81703721  1
  N  N43  1  0.11027231  0.09327045  0.57587611  1
  N  N44  1  0.90587364  0.21225189  0.32223203  1
  N  N45  1  0.75865827  0.10803342  0.07980136  1
  N  N46  1  0.56494663  0.21597640  0.82847485  1
  N  N47  1  0.42893029  0.08966479  0.57765373  1
  N  N48  1  0.21766007  0.54041483  0.33746817  1
  N  N49  1  0.09609091  0.41392178  0.07452639  1
  N  N50  1  0.89618375  0.51684123  0.81988837  1
  N  N51  1  0.79817975  0.41295870  0.57290421  1
  N  N52  1  0.55926417  0.53974968  0.33208098  1
  N  N53  1  0.46329849  0.42143940  0.08239259  1
  N  N54  1  0.22247065  0.53342919  0.84885042  1
  N  N55  1  0.10223207  0.41625021  0.56864809  1
  N  N56  1  0.89706798  0.52247031  0.32275024  1
  N  N57  1  0.76355702  0.44948807  0.07046033  1
  N  N58  1  0.55291129  0.54067910  0.83316779  1
  N  N59  1  0.44105398  0.43257425  0.56281766  1
  N  N60  1  0.22099913  0.87388415  0.32479183  1
  N  N61  1  0.12951877  0.77053533  0.06710467  1
  N  N62  1  0.90002571  0.88243852  0.83637208  1
  N  N63  1  0.77813475  0.76273621  0.60024873  1
  N  N64  1  0.53452446  0.88362720  0.32383937  1
  N  N65  1  0.44522563  0.76021466  0.07922893  1
  N  N66  1  0.22647460  0.87056607  0.82021225  1
  N  N67  1  0.10564908  0.77934473  0.57618446  1
  N  N68  1  0.90970207  0.85937486  0.32296786  1
  N  N69  1  0.76427323  0.75345120  0.08425218  1
  N  N70  1  0.53761191  0.86458579  0.81916251  1
  N  N71  1  0.42991455  0.78163062  0.56583763  1
