# generated using pymatgen
data_Sc5Al13N18
_symmetry_space_group_name_H-M   'P 1'
_cell_length_a   10.24298009
_cell_length_b   10.19118029
_cell_length_c   9.08914352
_cell_angle_alpha   89.99682948
_cell_angle_beta   90.01686853
_cell_angle_gamma   59.74689470
_symmetry_Int_Tables_number   1
_chemical_formula_structural   Sc5Al13N18
_chemical_formula_sum   'Sc10 Al26 N36'
_cell_volume   819.57946112
_cell_formula_units_Z   2
loop_
 _symmetry_equiv_pos_site_id
 _symmetry_equiv_pos_as_xyz
  1  'x, y, z'
loop_
 _atom_site_type_symbol
 _atom_site_label
 _atom_site_symmetry_multiplicity
 _atom_site_fract_x
 _atom_site_fract_y
 _atom_site_fract_z
 _atom_site_occupancy
  Al  Al0  1  0.11539070  0.09319280  0.37374904  1
  Al  Al1  1  0.22252288  0.20026477  0.12442510  1
  Al  Al2  1  0.77971678  0.10138221  0.85740062  1
  Al  Al3  1  0.90078377  0.20165364  0.62285646  1
  Al  Al4  1  0.43232255  0.09764407  0.36413386  1
  Al  Al5  1  0.55170497  0.20703773  0.11763544  1
  Al  Al6  1  0.11865541  0.08861649  0.86815602  1
  Al  Al7  1  0.21272095  0.20394338  0.61796297  1
  Al  Al8  1  0.10872979  0.41970197  0.36624389  1
  Al  Al9  1  0.77527030  0.43020661  0.86611595  1
  Al  Al10  1  0.89561001  0.52564686  0.61767373  1
  Al  Al11  1  0.44072460  0.43136114  0.35962056  1
  Al  Al12  1  0.55914030  0.54185086  0.12183963  1
  Al  Al13  1  0.10452122  0.41995037  0.87465202  1
  Al  Al14  1  0.78638866  0.42196881  0.37339699  1
  Al  Al15  1  0.88313024  0.53475564  0.12308843  1
  Al  Al16  1  0.45146997  0.42857120  0.87721703  1
  Al  Al17  1  0.11725184  0.76404329  0.37516859  1
  Al  Al18  1  0.22932037  0.87301715  0.12376149  1
  Al  Al19  1  0.89602697  0.87627437  0.61844648  1
  Al  Al20  1  0.43640655  0.76896771  0.36370486  1
  Al  Al21  1  0.54787039  0.87344623  0.12163127  1
  Al  Al22  1  0.11980827  0.76649506  0.86248771  1
  Al  Al23  1  0.22258117  0.87903715  0.62004905  1
  Al  Al24  1  0.43901079  0.75861863  0.87873480  1
  Al  Al25  1  0.54152434  0.87509496  0.61650821  1
  Sc  Sc26  1  0.78250831  0.09830534  0.35499796  1
  Sc  Sc27  1  0.89723071  0.21010454  0.10099946  1
  Sc  Sc28  1  0.43717721  0.09836968  0.85909178  1
  Sc  Sc29  1  0.55614881  0.20362643  0.60352552  1
  Sc  Sc30  1  0.22108753  0.53735980  0.10668815  1
  Sc  Sc31  1  0.21480332  0.53845614  0.60891306  1
  Sc  Sc32  1  0.55642829  0.54520258  0.60480883  1
  Sc  Sc33  1  0.77528277  0.75604406  0.85153456  1
  Sc  Sc34  1  0.77518682  0.75964612  0.36020177  1
  Sc  Sc35  1  0.89469532  0.86978702  0.10021165  1
  N  N36  1  0.21964044  0.20321561  0.33627821  1
  N  N37  1  0.13691440  0.08043550  0.07951649  1
  N  N38  1  0.89441753  0.20517993  0.84347106  1
  N  N39  1  0.79638114  0.09100704  0.60036730  1
  N  N40  1  0.53710513  0.21129418  0.34172744  1
  N  N41  1  0.44107419  0.09787831  0.09738978  1
  N  N42  1  0.20321720  0.21260253  0.83029449  1
  N  N43  1  0.11223000  0.09234267  0.58676173  1
  N  N44  1  0.90442111  0.21156970  0.33874401  1
  N  N45  1  0.76321339  0.10569065  0.09458838  1
  N  N46  1  0.56351326  0.21491006  0.84591185  1
  N  N47  1  0.42940942  0.09013072  0.59012267  1
  N  N48  1  0.21686526  0.54163634  0.34752348  1
  N  N49  1  0.09788879  0.41589562  0.08834847  1
  N  N50  1  0.89668396  0.51989965  0.83010739  1
  N  N51  1  0.79516201  0.41498122  0.58818186  1
  N  N52  1  0.56069726  0.53937341  0.33996776  1
  N  N53  1  0.46057230  0.42358005  0.09680208  1
  N  N54  1  0.22316347  0.53239586  0.85182639  1
  N  N55  1  0.10335024  0.41463442  0.57821257  1
  N  N56  1  0.89559642  0.52183014  0.33657912  1
  N  N57  1  0.76631212  0.44680158  0.07949605  1
  N  N58  1  0.55236794  0.54157714  0.84498836  1
  N  N59  1  0.44216005  0.43209585  0.57538819  1
  N  N60  1  0.22014389  0.87445098  0.33535925  1
  N  N61  1  0.12819931  0.76997049  0.07605490  1
  N  N62  1  0.89882541  0.88001381  0.84186318  1
  N  N63  1  0.77651462  0.76226344  0.60101680  1
  N  N64  1  0.53474977  0.88378727  0.33528591  1
  N  N65  1  0.44389004  0.76060835  0.09299622  1
  N  N66  1  0.22783736  0.87188777  0.83083810  1
  N  N67  1  0.10856363  0.77845956  0.59243448  1
  N  N68  1  0.90885327  0.86184812  0.34346914  1
  N  N69  1  0.76734575  0.75351505  0.09819935  1
  N  N70  1  0.54056381  0.86258273  0.83311749  1
  N  N71  1  0.43034788  0.78029564  0.57439110  1
