# generated using pymatgen
data_Sc5Al13N18
_symmetry_space_group_name_H-M   'P 1'
_cell_length_a   10.00708776
_cell_length_b   9.94516025
_cell_length_c   9.77784721
_cell_angle_alpha   89.95520270
_cell_angle_beta   89.97330739
_cell_angle_gamma   59.79420134
_symmetry_Int_Tables_number   1
_chemical_formula_structural   Sc5Al13N18
_chemical_formula_sum   'Sc10 Al26 N36'
_cell_volume   840.98620707
_cell_formula_units_Z   2
loop_
 _symmetry_equiv_pos_site_id
 _symmetry_equiv_pos_as_xyz
  1  'x, y, z'
loop_
 _atom_site_type_symbol
 _atom_site_label
 _atom_site_symmetry_multiplicity
 _atom_site_fract_x
 _atom_site_fract_y
 _atom_site_fract_z
 _atom_site_occupancy
  Al  Al0  1  0.11436853  0.09425954  0.38086662  1
  Al  Al1  1  0.22472602  0.19946330  0.13248877  1
  Al  Al2  1  0.77558030  0.10411608  0.88100398  1
  Al  Al3  1  0.89999583  0.20068384  0.63572860  1
  Al  Al4  1  0.43084539  0.09701278  0.37998650  1
  Al  Al5  1  0.54882137  0.20755682  0.13475724  1
  Al  Al6  1  0.11974911  0.08756257  0.87685755  1
  Al  Al7  1  0.21109527  0.20419950  0.62574257  1
  Al  Al8  1  0.10966492  0.42101903  0.37612606  1
  Al  Al9  1  0.77227312  0.43187061  0.87829317  1
  Al  Al10  1  0.89532054  0.52523969  0.62808451  1
  Al  Al11  1  0.43820723  0.43266048  0.37197467  1
  Al  Al12  1  0.55812036  0.54282746  0.13353000  1
  Al  Al13  1  0.10337988  0.41915435  0.88208265  1
  Al  Al14  1  0.78938601  0.42046755  0.37965589  1
  Al  Al15  1  0.88204688  0.53581866  0.13015442  1
  Al  Al16  1  0.45363683  0.42723603  0.88639141  1
  Al  Al17  1  0.11598944  0.76322080  0.38101285  1
  Al  Al18  1  0.23191183  0.87192953  0.13093691  1
  Al  Al19  1  0.89648050  0.87846229  0.63595512  1
  Al  Al20  1  0.43569131  0.76984467  0.37483319  1
  Al  Al21  1  0.54688822  0.87483499  0.13015220  1
  Al  Al22  1  0.12130031  0.76525426  0.87657496  1
  Al  Al23  1  0.22056220  0.87934787  0.62690098  1
  Al  Al24  1  0.43941758  0.75774882  0.88426069  1
  Al  Al25  1  0.54194007  0.87480217  0.62762678  1
  Sc  Sc26  1  0.78605823  0.09631475  0.36285654  1
  Sc  Sc27  1  0.89897598  0.21050712  0.10719791  1
  Sc  Sc28  1  0.43747077  0.10055222  0.86782329  1
  Sc  Sc29  1  0.56067957  0.20171445  0.61141506  1
  Sc  Sc30  1  0.22211378  0.53537722  0.11364985  1
  Sc  Sc31  1  0.21464944  0.53944169  0.62191034  1
  Sc  Sc32  1  0.55803546  0.54416368  0.61379251  1
  Sc  Sc33  1  0.77462101  0.75598702  0.85916306  1
  Sc  Sc34  1  0.77602274  0.76015991  0.37178137  1
  Sc  Sc35  1  0.89353157  0.86820215  0.10734125  1
  N  N36  1  0.22004574  0.20405315  0.32777601  1
  N  N37  1  0.14167671  0.07844852  0.06937400  1
  N  N38  1  0.89291588  0.20529417  0.84087965  1
  N  N39  1  0.80134491  0.08813165  0.58270929  1
  N  N40  1  0.53631275  0.21125935  0.33563333  1
  N  N41  1  0.44189645  0.09886145  0.08576530  1
  N  N42  1  0.20202504  0.21280286  0.81897948  1
  N  N43  1  0.11021993  0.09321415  0.57731762  1
  N  N44  1  0.90615797  0.21225117  0.32293745  1
  N  N45  1  0.75879690  0.10813169  0.08329453  1
  N  N46  1  0.56524658  0.21609045  0.82927665  1
  N  N47  1  0.42874368  0.08983537  0.58106000  1
  N  N48  1  0.21726481  0.54059048  0.33938746  1
  N  N49  1  0.09619033  0.41408894  0.07650110  1
  N  N50  1  0.89613874  0.51723897  0.82126731  1
  N  N51  1  0.79839648  0.41239557  0.57509980  1
  N  N52  1  0.55957323  0.53980716  0.33444564  1
  N  N53  1  0.46324489  0.42160120  0.08458905  1
  N  N54  1  0.22262985  0.53317570  0.84932726  1
  N  N55  1  0.10225618  0.41566753  0.56992902  1
  N  N56  1  0.89697288  0.52210038  0.32481182  1
  N  N57  1  0.76332207  0.44986004  0.07156129  1
  N  N58  1  0.55274132  0.54080933  0.83327782  1
  N  N59  1  0.44099219  0.43262426  0.56427361  1
  N  N60  1  0.22075790  0.87399740  0.32632965  1
  N  N61  1  0.13014360  0.77008386  0.06815369  1
  N  N62  1  0.89962790  0.88254719  0.83854001  1
  N  N63  1  0.77809409  0.76284485  0.60029313  1
  N  N64  1  0.53375844  0.88444209  0.32532193  1
  N  N65  1  0.44516405  0.76002276  0.08110287  1
  N  N66  1  0.22690657  0.87072581  0.82154223  1
  N  N67  1  0.10566986  0.77969583  0.57841601  1
  N  N68  1  0.91019873  0.85930754  0.32382483  1
  N  N69  1  0.76449953  0.75356907  0.08741119  1
  N  N70  1  0.53830250  0.86370981  0.82117286  1
  N  N71  1  0.42955546  0.78199317  0.56703505  1
