# generated using pymatgen
data_Sc5Al13N18
_symmetry_space_group_name_H-M   'P 1'
_cell_length_a   9.86672596
_cell_length_b   9.81695796
_cell_length_c   10.13559922
_cell_angle_alpha   89.92428397
_cell_angle_beta   89.90973425
_cell_angle_gamma   59.83827169
_symmetry_Int_Tables_number   1
_chemical_formula_structural   Sc5Al13N18
_chemical_formula_sum   'Sc10 Al26 N36'
_cell_volume   848.82735385
_cell_formula_units_Z   2
loop_
 _symmetry_equiv_pos_site_id
 _symmetry_equiv_pos_as_xyz
  1  'x, y, z'
loop_
 _atom_site_type_symbol
 _atom_site_label
 _atom_site_symmetry_multiplicity
 _atom_site_fract_x
 _atom_site_fract_y
 _atom_site_fract_z
 _atom_site_occupancy
  Al  Al0  1  0.11490703  0.09416419  0.40310940  1
  Al  Al1  1  0.22392556  0.20016704  0.15501343  1
  Al  Al2  1  0.77719395  0.10259218  0.90159813  1
  Al  Al3  1  0.89949110  0.20234031  0.65661065  1
  Al  Al4  1  0.43259829  0.09689516  0.39846903  1
  Al  Al5  1  0.55082839  0.20776310  0.15600788  1
  Al  Al6  1  0.11762858  0.08922737  0.89733512  1
  Al  Al7  1  0.21338650  0.20365011  0.64628865  1
  Al  Al8  1  0.11035350  0.42200048  0.39885450  1
  Al  Al9  1  0.77418616  0.42962447  0.90223109  1
  Al  Al10  1  0.89509140  0.52589059  0.65150260  1
  Al  Al11  1  0.43925759  0.43248446  0.39494185  1
  Al  Al12  1  0.55769322  0.54279929  0.15294220  1
  Al  Al13  1  0.10426541  0.41937964  0.90336080  1
  Al  Al14  1  0.78713250  0.42268361  0.40029736  1
  Al  Al15  1  0.88241528  0.53616020  0.15098542  1
  Al  Al16  1  0.45192544  0.42774251  0.91028091  1
  Al  Al17  1  0.11643161  0.76238571  0.40288340  1
  Al  Al18  1  0.23170489  0.87237948  0.15165515  1
  Al  Al19  1  0.89686451  0.87720630  0.65890477  1
  Al  Al20  1  0.43694424  0.76753639  0.39716286  1
  Al  Al21  1  0.54880059  0.87280877  0.15367101  1
  Al  Al22  1  0.11933074  0.76573742  0.90070304  1
  Al  Al23  1  0.22035724  0.87900948  0.64864510  1
  Al  Al24  1  0.43875302  0.75915983  0.90575956  1
  Al  Al25  1  0.54179129  0.87597878  0.64958713  1
  Sc  Sc26  1  0.78411794  0.09713004  0.39482287  1
  Sc  Sc27  1  0.89842236  0.20860408  0.13478068  1
  Sc  Sc28  1  0.43679390  0.09967876  0.89890712  1
  Sc  Sc29  1  0.55815654  0.20189827  0.64135265  1
  Sc  Sc30  1  0.22177488  0.53573128  0.13903882  1
  Sc  Sc31  1  0.21549462  0.54001115  0.64887502  1
  Sc  Sc32  1  0.55826901  0.54387965  0.64315324  1
  Sc  Sc33  1  0.77500317  0.75639601  0.88308737  1
  Sc  Sc34  1  0.77661536  0.75846971  0.40176446  1
  Sc  Sc35  1  0.89083596  0.86937828  0.13631842  1
  N  N36  1  0.21947641  0.20496932  0.34411365  1
  N  N37  1  0.14098754  0.07947594  0.08445926  1
  N  N38  1  0.89245975  0.20592847  0.85429385  1
  N  N39  1  0.79924614  0.08866907  0.60393010  1
  N  N40  1  0.53746880  0.21241232  0.34823113  1
  N  N41  1  0.44279493  0.09759637  0.10787820  1
  N  N42  1  0.20378765  0.21261421  0.83390684  1
  N  N43  1  0.11054352  0.09337563  0.59375077  1
  N  N44  1  0.90461366  0.21188206  0.34276410  1
  N  N45  1  0.75899569  0.10727299  0.09310165  1
  N  N46  1  0.56318354  0.21579098  0.84918686  1
  N  N47  1  0.42985305  0.08898637  0.59133084  1
  N  N48  1  0.21812151  0.54058441  0.35525984  1
  N  N49  1  0.09691416  0.41371678  0.09149839  1
  N  N50  1  0.89664048  0.51626032  0.83791343  1
  N  N51  1  0.79722234  0.41468224  0.58975315  1
  N  N52  1  0.55891781  0.53969320  0.34765697  1
  N  N53  1  0.46278274  0.42156302  0.09964819  1
  N  N54  1  0.22218660  0.53431676  0.86747699  1
  N  N55  1  0.10258677  0.41715878  0.58664020  1
  N  N56  1  0.89734519  0.52272564  0.33947522  1
  N  N57  1  0.76485604  0.44780240  0.08872942  1
  N  N58  1  0.55320897  0.54039787  0.85411564  1
  N  N59  1  0.44195227  0.43206829  0.58039445  1
  N  N60  1  0.22122864  0.87391537  0.34223520  1
  N  N61  1  0.12721149  0.77191009  0.08543986  1
  N  N62  1  0.90054813  0.88192546  0.85175272  1
  N  N63  1  0.77830743  0.76217384  0.62010967  1
  N  N64  1  0.53651107  0.88161016  0.34179533  1
  N  N65  1  0.44515150  0.76070401  0.09651537  1
  N  N66  1  0.22571180  0.87057164  0.83835675  1
  N  N67  1  0.10574987  0.77899204  0.59313711  1
  N  N68  1  0.90789785  0.86052468  0.34389928  1
  N  N69  1  0.76464795  0.75288857  0.09984893  1
  N  N70  1  0.53674259  0.86596463  0.83593996  1
  N  N71  1  0.43082124  0.78042279  0.58380494  1
