
#======================================================================
# CRYSTAL DATA
#----------------------------------------------------------------------
data_VESTA_phase_1

_chemical_name_common                  'Al   Mg   Hf   N                      '
_cell_length_a                         9.652699
_cell_length_b                         9.602639
_cell_length_c                         10.004778
_cell_angle_alpha                      90.015045
_cell_angle_beta                       90.045067
_cell_angle_gamma                      60.108791
_cell_volume                           803.993157
_space_group_name_H-M_alt              'P 1'
_space_group_IT_number                 1

loop_
_space_group_symop_operation_xyz
   'x, y, z'

loop_
   _atom_site_label
   _atom_site_occupancy
   _atom_site_fract_x
   _atom_site_fract_y
   _atom_site_fract_z
   _atom_site_adp_type
   _atom_site_U_iso_or_equiv
   _atom_site_type_symbol
   Al1        1.0     0.108476     0.099168     0.391427    Uiso  ? Al
   Al2        1.0     0.216748     0.207144     0.142219    Uiso  ? Al
   Al3        1.0     0.778913     0.094159     0.895819    Uiso  ? Al
   Al4        1.0     0.895879     0.205180     0.643979    Uiso  ? Al
   Al5        1.0     0.104354     0.099681     0.895352    Uiso  ? Al
   Al6        1.0     0.210876     0.211637     0.646852    Uiso  ? Al
   Al7        1.0     0.791562     0.088042     0.390799    Uiso  ? Al
   Al8        1.0     0.890640     0.203451     0.142884    Uiso  ? Al
   Al9        1.0     0.443421     0.100737     0.900922    Uiso  ? Al
   Al10       1.0     0.107249     0.429090     0.390322    Uiso  ? Al
   Al11       1.0     0.218420     0.541339     0.142493    Uiso  ? Al
   Al12       1.0     0.783214     0.422649     0.894453    Uiso  ? Al
   Al13       1.0     0.895236     0.533597     0.642574    Uiso  ? Al
   Al14       1.0     0.558741     0.534443     0.147388    Uiso  ? Al
   Al15       1.0     0.109975     0.428660     0.893981    Uiso  ? Al
   Al16       1.0     0.216287     0.543492     0.644864    Uiso  ? Al
   Al17       1.0     0.778793     0.427483     0.389974    Uiso  ? Al
   Al18       1.0     0.890609     0.536157     0.143938    Uiso  ? Al
   Al19       1.0     0.442937     0.423214     0.896726    Uiso  ? Al
   Al20       1.0     0.557209     0.534219     0.640623    Uiso  ? Al
   Al21       1.0     0.109324     0.758596     0.391067    Uiso  ? Al
   Al22       1.0     0.215430     0.875708     0.148004    Uiso  ? Al
   Al23       1.0     0.784596     0.759398     0.897392    Uiso  ? Al
   Al24       1.0     0.902154     0.865757     0.645110    Uiso  ? Al
   Al25       1.0     0.443563     0.754812     0.385857    Uiso  ? Al
   Al26       1.0     0.558190     0.871868     0.154801    Uiso  ? Al
   Al27       1.0     0.105283     0.760944     0.895563    Uiso  ? Al
   Al28       1.0     0.210163     0.876320     0.636943    Uiso  ? Al
   Al29       1.0     0.790327     0.754007     0.385411    Uiso  ? Al
   Al30       1.0     0.891332     0.873662     0.141858    Uiso  ? Al
   Mg1        1.0     0.432679     0.100882     0.377167    Uiso  ? Mg
   Mg2        1.0     0.560178     0.205450     0.154626    Uiso  ? Mg
   Mg3        1.0     0.435658     0.439472     0.383715    Uiso  ? Mg
   Hf1        1.0     0.558289     0.209558     0.610480    Uiso  ? Hf
   Hf2        1.0     0.441030     0.761843     0.892259    Uiso  ? Hf
   Hf3        1.0     0.560385     0.868306     0.619457    Uiso  ? Hf
   N1         1.0     0.200446     0.216893     0.329053    Uiso  ? N
   N2         1.0     0.110167     0.093020     0.084494    Uiso  ? N
   N3         1.0     0.889098     0.206494     0.834604    Uiso  ? N
   N4         1.0     0.808500     0.079271     0.585564    Uiso  ? N
   N5         1.0     0.573440     0.198566     0.373639    Uiso  ? N
   N6         1.0     0.437494     0.086169     0.091468    Uiso  ? N
   N7         1.0     0.220639     0.205370     0.838947    Uiso  ? N
   N8         1.0     0.110778     0.096444     0.584911    Uiso  ? N
   N9         1.0     0.891310     0.205524     0.334396    Uiso  ? N
   N10        1.0     0.792456     0.087674     0.083315    Uiso  ? N
   N11        1.0     0.557251     0.203739     0.837807    Uiso  ? N
   N12        1.0     0.419732     0.104693     0.588620    Uiso  ? N
   N13        1.0     0.202273     0.547428     0.330212    Uiso  ? N
   N14        1.0     0.108603     0.429081     0.082456    Uiso  ? N
   N15        1.0     0.887672     0.539571     0.835145    Uiso  ? N
   N16        1.0     0.777698     0.428212     0.585317    Uiso  ? N
   N17        1.0     0.565720     0.543128     0.333235    Uiso  ? N
   N18        1.0     0.435914     0.443478     0.085708    Uiso  ? N
   N19        1.0     0.219543     0.540414     0.837195    Uiso  ? N
   N20        1.0     0.110610     0.427794     0.586693    Uiso  ? N
   N21        1.0     0.889439     0.536389     0.334367    Uiso  ? N
   N22        1.0     0.778692     0.426973     0.084602    Uiso  ? N
   N23        1.0     0.564986     0.523758     0.833221    Uiso  ? N
   N24        1.0     0.429284     0.450702     0.594106    Uiso  ? N
   N25        1.0     0.220545     0.872884     0.338849    Uiso  ? N
   N26        1.0     0.110849     0.762758     0.084568    Uiso  ? N
   N27        1.0     0.889088     0.870566     0.835965    Uiso  ? N
   N28        1.0     0.803959     0.749574     0.579065    Uiso  ? N
   N29        1.0     0.565799     0.856207     0.350504    Uiso  ? N
   N30        1.0     0.443320     0.763090     0.098463    Uiso  ? N
   N31        1.0     0.203649     0.880928     0.830237    Uiso  ? N
   N32        1.0     0.112204     0.759004     0.583577    Uiso  ? N
   N33        1.0     0.892716     0.870933     0.332211    Uiso  ? N
   N34        1.0     0.777257     0.760949     0.088835    Uiso  ? N
   N35        1.0     0.565329     0.877487     0.833566    Uiso  ? N
   N36        1.0     0.431931     0.753799     0.588226    Uiso  ? N
