
#======================================================================
# CRYSTAL DATA
#----------------------------------------------------------------------
data_VESTA_phase_1

_chemical_name_common                  'Al   Mg   Hf   N                      '
_cell_length_a                         9.622588
_cell_length_b                         9.594275
_cell_length_c                         10.052627
_cell_angle_alpha                      89.951248
_cell_angle_beta                       89.989784
_cell_angle_gamma                      60.098965
_cell_volume                           804.537475
_space_group_name_H-M_alt              'P 1'
_space_group_IT_number                 1

loop_
_space_group_symop_operation_xyz
   'x, y, z'

loop_
   _atom_site_label
   _atom_site_occupancy
   _atom_site_fract_x
   _atom_site_fract_y
   _atom_site_fract_z
   _atom_site_adp_type
   _atom_site_U_iso_or_equiv
   _atom_site_type_symbol
   Al1        1.0     0.109337     0.098524     0.312938    Uiso  ? Al
   Al2        1.0     0.219753     0.206124     0.062860    Uiso  ? Al
   Al3        1.0     0.786600     0.090402     0.817542    Uiso  ? Al
   Al4        1.0     0.894754     0.204400     0.560077    Uiso  ? Al
   Al5        1.0     0.103581     0.100782     0.812946    Uiso  ? Al
   Al6        1.0     0.209877     0.211923     0.560778    Uiso  ? Al
   Al7        1.0     0.782565     0.092212     0.310907    Uiso  ? Al
   Al8        1.0     0.890964     0.204375     0.066301    Uiso  ? Al
   Al9        1.0     0.438108     0.101060     0.827915    Uiso  ? Al
   Al10       1.0     0.108334     0.429484     0.313384    Uiso  ? Al
   Al11       1.0     0.222133     0.539183     0.064269    Uiso  ? Al
   Al12       1.0     0.784040     0.421831     0.812824    Uiso  ? Al
   Al13       1.0     0.895442     0.533295     0.560322    Uiso  ? Al
   Al14       1.0     0.559960     0.528553     0.068505    Uiso  ? Al
   Al15       1.0     0.109442     0.428545     0.814051    Uiso  ? Al
   Al16       1.0     0.213953     0.545701     0.561537    Uiso  ? Al
   Al17       1.0     0.778819     0.428387     0.314224    Uiso  ? Al
   Al18       1.0     0.890648     0.536331     0.064068    Uiso  ? Al
   Al19       1.0     0.439700     0.429857     0.820381    Uiso  ? Al
   Al20       1.0     0.555601     0.538821     0.556364    Uiso  ? Al
   Al21       1.0     0.110400     0.757890     0.312490    Uiso  ? Al
   Al22       1.0     0.211044     0.877867     0.070316    Uiso  ? Al
   Al23       1.0     0.789372     0.757049     0.817186    Uiso  ? Al
   Al24       1.0     0.899825     0.868000     0.559474    Uiso  ? Al
   Al25       1.0     0.445292     0.756774     0.302454    Uiso  ? Al
   Al26       1.0     0.559822     0.875079     0.067166    Uiso  ? Al
   Al27       1.0     0.104182     0.762098     0.813399    Uiso  ? Al
   Al28       1.0     0.214235     0.874354     0.558418    Uiso  ? Al
   Al29       1.0     0.784005     0.756650     0.307961    Uiso  ? Al
   Al30       1.0     0.892013     0.872098     0.065724    Uiso  ? Al
   Mg1        1.0     0.439496     0.101614     0.302494    Uiso  ? Mg
   Mg2        1.0     0.559338     0.205664     0.059589    Uiso  ? Mg
   Mg3        1.0     0.441852     0.428917     0.311335    Uiso  ? Mg
   Hf1        1.0     0.557530     0.209234     0.580890    Uiso  ? Hf
   Hf2        1.0     0.440344     0.759590     0.834099    Uiso  ? Hf
   Hf3        1.0     0.558118     0.867452     0.559520    Uiso  ? Hf
   N1         1.0     0.206536     0.214391     0.374834    Uiso  ? N
   N2         1.0     0.109887     0.096799     0.122761    Uiso  ? N
   N3         1.0     0.889362     0.206741     0.873468    Uiso  ? N
   N4         1.0     0.803305     0.081708     0.626770    Uiso  ? N
   N5         1.0     0.573775     0.194617     0.379281    Uiso  ? N
   N6         1.0     0.436611     0.090163     0.098978    Uiso  ? N
   N7         1.0     0.214925     0.208392     0.870327    Uiso  ? N
   N8         1.0     0.110939     0.093033     0.621774    Uiso  ? N
   N9         1.0     0.890105     0.205632     0.371483    Uiso  ? N
   N10        1.0     0.794555     0.086176     0.122374    Uiso  ? N
   N11        1.0     0.559359     0.204946     0.840329    Uiso  ? N
   N12        1.0     0.423007     0.098873     0.630713    Uiso  ? N
   N13        1.0     0.205527     0.546147     0.375854    Uiso  ? N
   N14        1.0     0.109783     0.428255     0.120277    Uiso  ? N
   N15        1.0     0.888716     0.537469     0.871599    Uiso  ? N
   N16        1.0     0.777404     0.427818     0.620608    Uiso  ? N
   N17        1.0     0.562862     0.547070     0.371008    Uiso  ? N
   N18        1.0     0.435892     0.440127     0.108585    Uiso  ? N
   N19        1.0     0.217433     0.542061     0.870096    Uiso  ? N
   N20        1.0     0.110134     0.428604     0.623967    Uiso  ? N
   N21        1.0     0.888359     0.539488     0.370812    Uiso  ? N
   N22        1.0     0.779996     0.426674     0.122552    Uiso  ? N
   N23        1.0     0.569276     0.518710     0.875015    Uiso  ? N
   N24        1.0     0.430528     0.453093     0.625849    Uiso  ? N
   N25        1.0     0.223806     0.871461     0.366795    Uiso  ? N
   N26        1.0     0.110193     0.759641     0.122551    Uiso  ? N
   N27        1.0     0.890091     0.871269     0.874172    Uiso  ? N
   N28        1.0     0.796233     0.753021     0.624993    Uiso  ? N
   N29        1.0     0.562158     0.858569     0.356598    Uiso  ? N
   N30        1.0     0.443920     0.760344     0.103221    Uiso  ? N
   N31        1.0     0.198109     0.884400     0.877753    Uiso  ? N
   N32        1.0     0.111530     0.762753     0.622871    Uiso  ? N
   N33        1.0     0.890263     0.870451     0.370579    Uiso  ? N
   N34        1.0     0.781365     0.758836     0.117838    Uiso  ? N
   N35        1.0     0.568770     0.875621     0.866977    Uiso  ? N
   N36        1.0     0.433324     0.756088     0.623794    Uiso  ? N
