
#======================================================================
# CRYSTAL DATA
#----------------------------------------------------------------------
data_VESTA_phase_1

_chemical_name_common                  'Al   Mg   Hf   N                      '
_cell_length_a                         9.962362
_cell_length_b                         9.911168
_cell_length_c                         9.095151
_cell_angle_alpha                      90.082367
_cell_angle_beta                       90.049622
_cell_angle_gamma                      60.097176
_cell_volume                           778.487587
_space_group_name_H-M_alt              'P 1'
_space_group_IT_number                 1

loop_
_space_group_symop_operation_xyz
   'x, y, z'

loop_
   _atom_site_label
   _atom_site_occupancy
   _atom_site_fract_x
   _atom_site_fract_y
   _atom_site_fract_z
   _atom_site_adp_type
   _atom_site_U_iso_or_equiv
   _atom_site_type_symbol
   Al1        1.0     0.105523     0.100464     0.333171    Uiso  ? Al
   Al2        1.0     0.216482     0.206272     0.087034    Uiso  ? Al
   Al3        1.0     0.784724     0.090860     0.851678    Uiso  ? Al
   Al4        1.0     0.893565     0.202282     0.585228    Uiso  ? Al
   Al5        1.0     0.107587     0.098352     0.832649    Uiso  ? Al
   Al6        1.0     0.210149     0.213144     0.579170    Uiso  ? Al
   Al7        1.0     0.785665     0.091917     0.322327    Uiso  ? Al
   Al8        1.0     0.893292     0.206617     0.080428    Uiso  ? Al
   Al9        1.0     0.440523     0.099519     0.870692    Uiso  ? Al
   Al10       1.0     0.105414     0.431567     0.329123    Uiso  ? Al
   Al11       1.0     0.217527     0.542288     0.084468    Uiso  ? Al
   Al12       1.0     0.781879     0.424106     0.830105    Uiso  ? Al
   Al13       1.0     0.895702     0.534642     0.582701    Uiso  ? Al
   Al14       1.0     0.562849     0.528529     0.101505    Uiso  ? Al
   Al15       1.0     0.110517     0.427094     0.837230    Uiso  ? Al
   Al16       1.0     0.216185     0.543002     0.583728    Uiso  ? Al
   Al17       1.0     0.782586     0.425894     0.336838    Uiso  ? Al
   Al18       1.0     0.889389     0.535414     0.082283    Uiso  ? Al
   Al19       1.0     0.442109     0.427289     0.865186    Uiso  ? Al
   Al20       1.0     0.554694     0.538047     0.572149    Uiso  ? Al
   Al21       1.0     0.108060     0.758266     0.333299    Uiso  ? Al
   Al22       1.0     0.208226     0.879076     0.096088    Uiso  ? Al
   Al23       1.0     0.789251     0.756132     0.840971    Uiso  ? Al
   Al24       1.0     0.898189     0.870858     0.582307    Uiso  ? Al
   Al25       1.0     0.443261     0.758573     0.326816    Uiso  ? Al
   Al26       1.0     0.559625     0.872556     0.111658    Uiso  ? Al
   Al27       1.0     0.106549     0.761085     0.832484    Uiso  ? Al
   Al28       1.0     0.215163     0.874201     0.575476    Uiso  ? Al
   Al29       1.0     0.787682     0.755265     0.329637    Uiso  ? Al
   Al30       1.0     0.894639     0.868961     0.083137    Uiso  ? Al
   Mg1        1.0     0.435813     0.102884     0.332815    Uiso  ? Mg
   Mg2        1.0     0.559179     0.204410     0.102168    Uiso  ? Mg
   Mg3        1.0     0.436703     0.432450     0.332788    Uiso  ? Mg
   Hf1        1.0     0.558777     0.210353     0.599140    Uiso  ? Hf
   Hf2        1.0     0.441147     0.757324     0.860853    Uiso  ? Hf
   Hf3        1.0     0.558738     0.870397     0.591437    Uiso  ? Hf
   N1         1.0     0.202388     0.217360     0.369039    Uiso  ? N
   N2         1.0     0.107847     0.097129     0.123307    Uiso  ? N
   N3         1.0     0.891827     0.208654     0.869295    Uiso  ? N
   N4         1.0     0.799739     0.083147     0.633785    Uiso  ? N
   N5         1.0     0.574737     0.197074     0.364603    Uiso  ? N
   N6         1.0     0.435945     0.087137     0.096670    Uiso  ? N
   N7         1.0     0.216888     0.206756     0.872578    Uiso  ? N
   N8         1.0     0.112493     0.091960     0.620300    Uiso  ? N
   N9         1.0     0.889401     0.204196     0.374351    Uiso  ? N
   N10        1.0     0.798226     0.085590     0.110104    Uiso  ? N
   N11        1.0     0.558582     0.203333     0.855069    Uiso  ? N
   N12        1.0     0.423747     0.104975     0.617909    Uiso  ? N
   N13        1.0     0.203806     0.545825     0.373480    Uiso  ? N
   N14        1.0     0.108069     0.429511     0.116572    Uiso  ? N
   N15        1.0     0.888115     0.536717     0.870939    Uiso  ? N
   N16        1.0     0.776019     0.429294     0.617019    Uiso  ? N
   N17        1.0     0.562857     0.545067     0.360910    Uiso  ? N
   N18        1.0     0.433516     0.442390     0.099321    Uiso  ? N
   N19        1.0     0.216363     0.542484     0.869868    Uiso  ? N
   N20        1.0     0.109626     0.428371     0.626418    Uiso  ? N
   N21        1.0     0.889217     0.539259     0.371295    Uiso  ? N
   N22        1.0     0.782996     0.424295     0.125177    Uiso  ? N
   N23        1.0     0.570581     0.520459     0.878487    Uiso  ? N
   N24        1.0     0.433239     0.449232     0.623570    Uiso  ? N
   N25        1.0     0.222145     0.872213     0.362461    Uiso  ? N
   N26        1.0     0.109374     0.759959     0.123967    Uiso  ? N
   N27        1.0     0.892653     0.867577     0.873622    Uiso  ? N
   N28        1.0     0.798865     0.752726     0.623035    Uiso  ? N
   N29        1.0     0.564057     0.858092     0.353802    Uiso  ? N
   N30        1.0     0.442482     0.762008     0.110429    Uiso  ? N
   N31        1.0     0.200929     0.882142     0.879920    Uiso  ? N
   N32        1.0     0.112298     0.763241     0.620623    Uiso  ? N
   N33        1.0     0.889496     0.873024     0.369909    Uiso  ? N
   N34        1.0     0.781323     0.758819     0.116438    Uiso  ? N
   N35        1.0     0.567287     0.873115     0.854497    Uiso  ? N
   N36        1.0     0.433013     0.756124     0.619179    Uiso  ? N
