
#======================================================================
# CRYSTAL DATA
#----------------------------------------------------------------------
data_VESTA_phase_1

_chemical_name_common                  'Al   Mg   Hf   N                      '
_cell_length_a                         9.832575
_cell_length_b                         9.782830
_cell_length_c                         9.481769
_cell_angle_alpha                      90.073486
_cell_angle_beta                       90.034828
_cell_angle_gamma                      60.111877
_cell_volume                           790.751281
_space_group_name_H-M_alt              'P 1'
_space_group_IT_number                 1

loop_
_space_group_symop_operation_xyz
   'x, y, z'

loop_
   _atom_site_label
   _atom_site_occupancy
   _atom_site_fract_x
   _atom_site_fract_y
   _atom_site_fract_z
   _atom_site_adp_type
   _atom_site_U_iso_or_equiv
   _atom_site_type_symbol
   Al1        1.0     0.106609     0.099748     0.328446    Uiso  ? Al
   Al2        1.0     0.215822     0.207163     0.080119    Uiso  ? Al
   Al3        1.0     0.785807     0.090511     0.840447    Uiso  ? Al
   Al4        1.0     0.893916     0.203132     0.578018    Uiso  ? Al
   Al5        1.0     0.106131     0.099275     0.827184    Uiso  ? Al
   Al6        1.0     0.209995     0.212819     0.574505    Uiso  ? Al
   Al7        1.0     0.784907     0.092023     0.321788    Uiso  ? Al
   Al8        1.0     0.892753     0.205610     0.077662    Uiso  ? Al
   Al9        1.0     0.440744     0.099922     0.865815    Uiso  ? Al
   Al10       1.0     0.105950     0.431285     0.326200    Uiso  ? Al
   Al11       1.0     0.217579     0.541865     0.078371    Uiso  ? Al
   Al12       1.0     0.783280     0.423028     0.825672    Uiso  ? Al
   Al13       1.0     0.895638     0.534093     0.576436    Uiso  ? Al
   Al14       1.0     0.563369     0.527377     0.089681    Uiso  ? Al
   Al15       1.0     0.110124     0.427336     0.830058    Uiso  ? Al
   Al16       1.0     0.215901     0.543823     0.578450    Uiso  ? Al
   Al17       1.0     0.780817     0.427065     0.331112    Uiso  ? Al
   Al18       1.0     0.889932     0.535775     0.077861    Uiso  ? Al
   Al19       1.0     0.441843     0.427365     0.855588    Uiso  ? Al
   Al20       1.0     0.553734     0.538918     0.569734    Uiso  ? Al
   Al21       1.0     0.108823     0.758143     0.328433    Uiso  ? Al
   Al22       1.0     0.207329     0.879409     0.088079    Uiso  ? Al
   Al23       1.0     0.790942     0.755579     0.832514    Uiso  ? Al
   Al24       1.0     0.899180     0.869971     0.576023    Uiso  ? Al
   Al25       1.0     0.443791     0.757998     0.319425    Uiso  ? Al
   Al26       1.0     0.560966     0.871915     0.097787    Uiso  ? Al
   Al27       1.0     0.105602     0.761663     0.827291    Uiso  ? Al
   Al28       1.0     0.215552     0.873833     0.572397    Uiso  ? Al
   Al29       1.0     0.785913     0.755989     0.325636    Uiso  ? Al
   Al30       1.0     0.893772     0.869866     0.079169    Uiso  ? Al
   Mg1        1.0     0.436587     0.102226     0.324705    Uiso  ? Mg
   Mg2        1.0     0.561146     0.203987     0.092247    Uiso  ? Mg
   Mg3        1.0     0.437617     0.432133     0.325489    Uiso  ? Mg
   Hf1        1.0     0.557532     0.210554     0.596574    Uiso  ? Hf
   Hf2        1.0     0.440911     0.758099     0.857063    Uiso  ? Hf
   Hf3        1.0     0.557661     0.869398     0.585675    Uiso  ? Hf
   N1         1.0     0.203196     0.216727     0.376068    Uiso  ? N
   N2         1.0     0.108453     0.097161     0.128770    Uiso  ? N
   N3         1.0     0.891336     0.207900     0.876469    Uiso  ? N
   N4         1.0     0.801292     0.082627     0.636219    Uiso  ? N
   N5         1.0     0.573888     0.197316     0.374732    Uiso  ? N
   N6         1.0     0.436107     0.088186     0.097714    Uiso  ? N
   N7         1.0     0.215252     0.207864     0.877502    Uiso  ? N
   N8         1.0     0.111790     0.092509     0.625867    Uiso  ? N
   N9         1.0     0.889666     0.204957     0.378465    Uiso  ? N
   N10        1.0     0.798483     0.085017     0.121293    Uiso  ? N
   N11        1.0     0.560415     0.203059     0.854678    Uiso  ? N
   N12        1.0     0.422481     0.104060     0.628673    Uiso  ? N
   N13        1.0     0.204347     0.546020     0.380001    Uiso  ? N
   N14        1.0     0.108300     0.429367     0.123981    Uiso  ? N
   N15        1.0     0.888899     0.536679     0.876579    Uiso  ? N
   N16        1.0     0.776217     0.429024     0.623654    Uiso  ? N
   N17        1.0     0.562157     0.546157     0.370396    Uiso  ? N
   N18        1.0     0.433694     0.441799     0.103942    Uiso  ? N
   N19        1.0     0.215332     0.542875     0.875472    Uiso  ? N
   N20        1.0     0.109531     0.428541     0.630126    Uiso  ? N
   N21        1.0     0.888654     0.539402     0.376502    Uiso  ? N
   N22        1.0     0.782474     0.424916     0.129812    Uiso  ? N
   N23        1.0     0.572169     0.519128     0.883566    Uiso  ? N
   N24        1.0     0.431904     0.450966     0.633046    Uiso  ? N
   N25        1.0     0.223119     0.871713     0.369664    Uiso  ? N
   N26        1.0     0.109349     0.759684     0.129038    Uiso  ? N
   N27        1.0     0.892087     0.868661     0.879374    Uiso  ? N
   N28        1.0     0.799178     0.752433     0.628865    Uiso  ? N
   N29        1.0     0.562625     0.858377     0.362101    Uiso  ? N
   N30        1.0     0.442828     0.761176     0.110321    Uiso  ? N
   N31        1.0     0.198681     0.883680     0.884632    Uiso  ? N
   N32        1.0     0.112100     0.763220     0.626717    Uiso  ? N
   N33        1.0     0.889906     0.872145     0.375754    Uiso  ? N
   N34        1.0     0.781881     0.758482     0.123721    Uiso  ? N
   N35        1.0     0.569403     0.872866     0.861691    Uiso  ? N
   N36        1.0     0.432136     0.755752     0.629529    Uiso  ? N
