
#======================================================================
# CRYSTAL DATA
#----------------------------------------------------------------------
data_VESTA_phase_1

_chemical_name_common                  'Al   Mg   Hf   N                      '
_cell_length_a                         10.004138
_cell_length_b                         9.953377
_cell_length_c                         8.968563
_cell_angle_alpha                      90.080856
_cell_angle_beta                       90.050652
_cell_angle_gamma                      60.093845
_cell_volume                           774.128556
_space_group_name_H-M_alt              'P 1'
_space_group_IT_number                 1

loop_
_space_group_symop_operation_xyz
   'x, y, z'

loop_
   _atom_site_label
   _atom_site_occupancy
   _atom_site_fract_x
   _atom_site_fract_y
   _atom_site_fract_z
   _atom_site_adp_type
   _atom_site_U_iso_or_equiv
   _atom_site_type_symbol
   Al1        1.0     0.105398     0.100532     0.335338    Uiso  ? Al
   Al2        1.0     0.216829     0.206008     0.089834    Uiso  ? Al
   Al3        1.0     0.784510     0.090937     0.854776    Uiso  ? Al
   Al4        1.0     0.893479     0.202262     0.588019    Uiso  ? Al
   Al5        1.0     0.107853     0.098198     0.835270    Uiso  ? Al
   Al6        1.0     0.210468     0.213004     0.581671    Uiso  ? Al
   Al7        1.0     0.785631     0.091944     0.323295    Uiso  ? Al
   Al8        1.0     0.893290     0.206722     0.082268    Uiso  ? Al
   Al9        1.0     0.440026     0.099817     0.870636    Uiso  ? Al
   Al10       1.0     0.105418     0.431482     0.331073    Uiso  ? Al
   Al11       1.0     0.217926     0.542147     0.087567    Uiso  ? Al
   Al12       1.0     0.781622     0.424312     0.832643    Uiso  ? Al
   Al13       1.0     0.895556     0.534791     0.585468    Uiso  ? Al
   Al14       1.0     0.562346     0.529055     0.105293    Uiso  ? Al
   Al15       1.0     0.110596     0.427152     0.840135    Uiso  ? Al
   Al16       1.0     0.216258     0.542814     0.585994    Uiso  ? Al
   Al17       1.0     0.782772     0.425732     0.339154    Uiso  ? Al
   Al18       1.0     0.889361     0.535288     0.084687    Uiso  ? Al
   Al19       1.0     0.441927     0.427517     0.866262    Uiso  ? Al
   Al20       1.0     0.555240     0.537543     0.574141    Uiso  ? Al
   Al21       1.0     0.107889     0.758418     0.335407    Uiso  ? Al
   Al22       1.0     0.208892     0.878791     0.099120    Uiso  ? Al
   Al23       1.0     0.788699     0.756308     0.844909    Uiso  ? Al
   Al24       1.0     0.897928     0.870926     0.585094    Uiso  ? Al
   Al25       1.0     0.443344     0.758686     0.330145    Uiso  ? Al
   Al26       1.0     0.559212     0.872824     0.112697    Uiso  ? Al
   Al27       1.0     0.106806     0.760802     0.835202    Uiso  ? Al
   Al28       1.0     0.214787     0.874470     0.577234    Uiso  ? Al
   Al29       1.0     0.787814     0.755279     0.331379    Uiso  ? Al
   Al30       1.0     0.894776     0.868973     0.085230    Uiso  ? Al
   Mg1        1.0     0.435896     0.102799     0.334518    Uiso  ? Mg
   Mg2        1.0     0.558572     0.204712     0.103731    Uiso  ? Mg
   Mg3        1.0     0.436793     0.432450     0.335385    Uiso  ? Mg
   Hf1        1.0     0.559168     0.210118     0.599642    Uiso  ? Hf
   Hf2        1.0     0.440996     0.757046     0.861425    Uiso  ? Hf
   Hf3        1.0     0.559218     0.870659     0.592559    Uiso  ? Hf
   N1         1.0     0.202599     0.217226     0.366567    Uiso  ? N
   N2         1.0     0.107819     0.096979     0.120870    Uiso  ? N
   N3         1.0     0.891840     0.208692     0.866658    Uiso  ? N
   N4         1.0     0.799182     0.083386     0.632032    Uiso  ? N
   N5         1.0     0.574812     0.196935     0.361949    Uiso  ? N
   N6         1.0     0.435738     0.087016     0.096442    Uiso  ? N
   N7         1.0     0.217207     0.206589     0.870198    Uiso  ? N
   N8         1.0     0.112550     0.091916     0.618057    Uiso  ? N
   N9         1.0     0.889310     0.204141     0.372337    Uiso  ? N
   N10        1.0     0.798015     0.085770     0.106985    Uiso  ? N
   N11        1.0     0.558118     0.203526     0.855385    Uiso  ? N
   N12        1.0     0.424373     0.104920     0.615927    Uiso  ? N
   N13        1.0     0.203890     0.545755     0.370661    Uiso  ? N
   N14        1.0     0.108144     0.429424     0.113783    Uiso  ? N
   N15        1.0     0.887939     0.536819     0.868669    Uiso  ? N
   N16        1.0     0.776245     0.429199     0.614689    Uiso  ? N
   N17        1.0     0.563144     0.544726     0.358516    Uiso  ? N
   N18        1.0     0.433624     0.442717     0.098550    Uiso  ? N
   N19        1.0     0.216857     0.542223     0.867498    Uiso  ? N
   N20        1.0     0.109636     0.428394     0.624479    Uiso  ? N
   N21        1.0     0.889298     0.539208     0.368836    Uiso  ? N
   N22        1.0     0.782670     0.424335     0.122727    Uiso  ? N
   N23        1.0     0.569703     0.520984     0.875158    Uiso  ? N
   N24        1.0     0.433595     0.448524     0.620572    Uiso  ? N
   N25        1.0     0.221783     0.872412     0.360029    Uiso  ? N
   N26        1.0     0.109492     0.760110     0.121549    Uiso  ? N
   N27        1.0     0.892627     0.867496     0.871215    Uiso  ? N
   N28        1.0     0.798451     0.752926     0.620568    Uiso  ? N
   N29        1.0     0.564524     0.858023     0.351939    Uiso  ? N
   N30        1.0     0.442445     0.762102     0.110670    Uiso  ? N
   N31        1.0     0.201749     0.881620     0.877411    Uiso  ? N
   N32        1.0     0.112300     0.763149     0.618236    Uiso  ? N
   N33        1.0     0.889401     0.873164     0.367462    Uiso  ? N
   N34        1.0     0.781074     0.759005     0.113531    Uiso  ? N
   N35        1.0     0.566713     0.872981     0.854320    Uiso  ? N
   N36        1.0     0.433343     0.756429     0.615078    Uiso  ? N
