
#======================================================================
# CRYSTAL DATA
#----------------------------------------------------------------------
data_VESTA_phase_1

_chemical_name_common                  'Al   Mg   Hf   N                      '
_cell_length_a                         10.044291
_cell_length_b                         9.993988
_cell_length_c                         8.847396
_cell_angle_alpha                      90.078995
_cell_angle_beta                       90.050766
_cell_angle_gamma                      60.090878
_cell_volume                           769.840537
_space_group_name_H-M_alt              'P 1'
_space_group_IT_number                 1

loop_
_space_group_symop_operation_xyz
   'x, y, z'

loop_
   _atom_site_label
   _atom_site_occupancy
   _atom_site_fract_x
   _atom_site_fract_y
   _atom_site_fract_z
   _atom_site_adp_type
   _atom_site_U_iso_or_equiv
   _atom_site_type_symbol
   Al1        1.0     0.105432     0.100447     0.337903    Uiso  ? Al
   Al2        1.0     0.217132     0.205852     0.092954    Uiso  ? Al
   Al3        1.0     0.784377     0.091003     0.857212    Uiso  ? Al
   Al4        1.0     0.893405     0.202413     0.590899    Uiso  ? Al
   Al5        1.0     0.107964     0.098161     0.838366    Uiso  ? Al
   Al6        1.0     0.210851     0.212739     0.584759    Uiso  ? Al
   Al7        1.0     0.785512     0.091968     0.324698    Uiso  ? Al
   Al8        1.0     0.893196     0.206657     0.084729    Uiso  ? Al
   Al9        1.0     0.439486     0.100195     0.870223    Uiso  ? Al
   Al10       1.0     0.105484     0.431309     0.333915    Uiso  ? Al
   Al11       1.0     0.218371     0.541890     0.091417    Uiso  ? Al
   Al12       1.0     0.781493     0.424412     0.835943    Uiso  ? Al
   Al13       1.0     0.895288     0.534881     0.588730    Uiso  ? Al
   Al14       1.0     0.561763     0.529609     0.108642    Uiso  ? Al
   Al15       1.0     0.110667     0.427279     0.843188    Uiso  ? Al
   Al16       1.0     0.216382     0.542693     0.588646    Uiso  ? Al
   Al17       1.0     0.782719     0.425723     0.341659    Uiso  ? Al
   Al18       1.0     0.889450     0.535210     0.087746    Uiso  ? Al
   Al19       1.0     0.441613     0.427813     0.866661    Uiso  ? Al
   Al20       1.0     0.555852     0.536950     0.576879    Uiso  ? Al
   Al21       1.0     0.107779     0.758678     0.337895    Uiso  ? Al
   Al22       1.0     0.209621     0.878468     0.102058    Uiso  ? Al
   Al23       1.0     0.788189     0.756474     0.849157    Uiso  ? Al
   Al24       1.0     0.897763     0.870884     0.588318    Uiso  ? Al
   Al25       1.0     0.443422     0.758677     0.333756    Uiso  ? Al
   Al26       1.0     0.558808     0.873072     0.113090    Uiso  ? Al
   Al27       1.0     0.107038     0.760450     0.838597    Uiso  ? Al
   Al28       1.0     0.214329     0.874779     0.579602    Uiso  ? Al
   Al29       1.0     0.787866     0.755349     0.333594    Uiso  ? Al
   Al30       1.0     0.894775     0.869155     0.087800    Uiso  ? Al
   Mg1        1.0     0.436025     0.102687     0.335922    Uiso  ? Mg
   Mg2        1.0     0.558081     0.205004     0.104700    Uiso  ? Mg
   Mg3        1.0     0.437056     0.432468     0.337850    Uiso  ? Mg
   Hf1        1.0     0.559492     0.209883     0.599928    Uiso  ? Hf
   Hf2        1.0     0.440834     0.756842     0.861665    Uiso  ? Hf
   Hf3        1.0     0.559694     0.870895     0.593339    Uiso  ? Hf
   N1         1.0     0.202945     0.216937     0.363973    Uiso  ? N
   N2         1.0     0.107930     0.096722     0.118019    Uiso  ? N
   N3         1.0     0.891788     0.208603     0.864003    Uiso  ? N
   N4         1.0     0.798674     0.083664     0.629728    Uiso  ? N
   N5         1.0     0.574783     0.196843     0.359614    Uiso  ? N
   N6         1.0     0.435439     0.086969     0.096112    Uiso  ? N
   N7         1.0     0.217437     0.206535     0.867236    Uiso  ? N
   N8         1.0     0.112445     0.091995     0.615535    Uiso  ? N
   N9         1.0     0.889233     0.204227     0.369803    Uiso  ? N
   N10        1.0     0.797823     0.085880     0.104434    Uiso  ? N
   N11        1.0     0.557778     0.203696     0.855724    Uiso  ? N
   N12        1.0     0.425059     0.104766     0.614324    Uiso  ? N
   N13        1.0     0.204111     0.545711     0.367355    Uiso  ? N
   N14        1.0     0.108295     0.429258     0.110892    Uiso  ? N
   N15        1.0     0.887843     0.537014     0.866072    Uiso  ? N
   N16        1.0     0.776648     0.428978     0.612329    Uiso  ? N
   N17        1.0     0.563461     0.544400     0.356728    Uiso  ? N
   N18        1.0     0.433780     0.443122     0.097838    Uiso  ? N
   N19        1.0     0.217337     0.541899     0.864714    Uiso  ? N
   N20        1.0     0.109602     0.428486     0.621845    Uiso  ? N
   N21        1.0     0.889300     0.539098     0.365840    Uiso  ? N
   N22        1.0     0.782090     0.424536     0.119605    Uiso  ? N
   N23        1.0     0.568752     0.521552     0.870914    Uiso  ? N
   N24        1.0     0.433882     0.447777     0.617814    Uiso  ? N
   N25        1.0     0.221413     0.872606     0.357797    Uiso  ? N
   N26        1.0     0.109666     0.760302     0.118607    Uiso  ? N
   N27        1.0     0.892471     0.867524     0.868480    Uiso  ? N
   N28        1.0     0.798002     0.753125     0.617409    Uiso  ? N
   N29        1.0     0.564901     0.857976     0.350241    Uiso  ? N
   N30        1.0     0.442397     0.762059     0.110915    Uiso  ? N
   N31        1.0     0.202578     0.881125     0.874177    Uiso  ? N
   N32        1.0     0.112259     0.762998     0.615565    Uiso  ? N
   N33        1.0     0.889394     0.873226     0.364687    Uiso  ? N
   N34        1.0     0.780872     0.759195     0.110625    Uiso  ? N
   N35        1.0     0.566262     0.872772     0.854473    Uiso  ? N
   N36        1.0     0.433646     0.756799     0.610921    Uiso  ? N
