
#======================================================================
# CRYSTAL DATA
#----------------------------------------------------------------------
data_VESTA_phase_1

_chemical_name_common                  'Al   Mg   Hf   N                      '
_cell_length_a                         10.133052
_cell_length_b                         10.083072
_cell_length_c                         8.586797
_cell_angle_alpha                      90.074509
_cell_angle_beta                       90.048096
_cell_angle_gamma                      60.082962
_cell_volume                           760.426100
_space_group_name_H-M_alt              'P 1'
_space_group_IT_number                 1

loop_
_space_group_symop_operation_xyz
   'x, y, z'

loop_
   _atom_site_label
   _atom_site_occupancy
   _atom_site_fract_x
   _atom_site_fract_y
   _atom_site_fract_z
   _atom_site_adp_type
   _atom_site_U_iso_or_equiv
   _atom_site_type_symbol
   Al1        1.0     0.106405     0.099376     0.349996    Uiso  ? Al
   Al2        1.0     0.217162     0.206699     0.107018    Uiso  ? Al
   Al3        1.0     0.784286     0.091308     0.861564    Uiso  ? Al
   Al4        1.0     0.893264     0.203665     0.600333    Uiso  ? Al
   Al5        1.0     0.107474     0.098694     0.851545    Uiso  ? Al
   Al6        1.0     0.212227     0.211113     0.599112    Uiso  ? Al
   Al7        1.0     0.785042     0.091833     0.330531    Uiso  ? Al
   Al8        1.0     0.892712     0.205804     0.096373    Uiso  ? Al
   Al9        1.0     0.437979     0.101388     0.868648    Uiso  ? Al
   Al10       1.0     0.105596     0.430675     0.354383    Uiso  ? Al
   Al11       1.0     0.218902     0.540623     0.109542    Uiso  ? Al
   Al12       1.0     0.781316     0.424280     0.851141    Uiso  ? Al
   Al13       1.0     0.893559     0.535157     0.604823    Uiso  ? Al
   Al14       1.0     0.559962     0.531126     0.116197    Uiso  ? Al
   Al15       1.0     0.111070     0.427828     0.855051    Uiso  ? Al
   Al16       1.0     0.217273     0.542913     0.601187    Uiso  ? Al
   Al17       1.0     0.781980     0.426471     0.351390    Uiso  ? Al
   Al18       1.0     0.890875     0.534965     0.103138    Uiso  ? Al
   Al19       1.0     0.440150     0.428854     0.866011    Uiso  ? Al
   Al20       1.0     0.557680     0.535138     0.586915    Uiso  ? Al
   Al21       1.0     0.107748     0.759880     0.351151    Uiso  ? Al
   Al22       1.0     0.211728     0.877421     0.110969    Uiso  ? Al
   Al23       1.0     0.786981     0.756867     0.862852    Uiso  ? Al
   Al24       1.0     0.897883     0.870096     0.601868    Uiso  ? Al
   Al25       1.0     0.443208     0.758399     0.342940    Uiso  ? Al
   Al26       1.0     0.557844     0.873726     0.113419    Uiso  ? Al
   Al27       1.0     0.107657     0.758932     0.854934    Uiso  ? Al
   Al28       1.0     0.212766     0.875721     0.591750    Uiso  ? Al
   Al29       1.0     0.788359     0.755300     0.343366    Uiso  ? Al
   Al30       1.0     0.894266     0.870116     0.099583    Uiso  ? Al
   Mg1        1.0     0.436530     0.102321     0.339043    Uiso  ? Mg
   Mg2        1.0     0.557177     0.205750     0.105492    Uiso  ? Mg
   Mg3        1.0     0.438273     0.432623     0.343858    Uiso  ? Mg
   Hf1        1.0     0.560175     0.209320     0.599450    Uiso  ? Hf
   Hf2        1.0     0.440661     0.756597     0.860778    Uiso  ? Hf
   Hf3        1.0     0.560837     0.871279     0.593738    Uiso  ? Hf
   N1         1.0     0.204089     0.215771     0.354089    Uiso  ? N
   N2         1.0     0.109294     0.095298     0.105891    Uiso  ? N
   N3         1.0     0.891388     0.207918     0.855732    Uiso  ? N
   N4         1.0     0.797985     0.084365     0.619941    Uiso  ? N
   N5         1.0     0.574339     0.196909     0.354219    Uiso  ? N
   N6         1.0     0.433690     0.087302     0.094266    Uiso  ? N
   N7         1.0     0.217715     0.206888     0.852208    Uiso  ? N
   N8         1.0     0.111064     0.093102     0.604478    Uiso  ? N
   N9         1.0     0.889178     0.205241     0.357991    Uiso  ? N
   N10        1.0     0.797285     0.085853     0.099129    Uiso  ? N
   N11        1.0     0.557251     0.204042     0.855943    Uiso  ? N
   N12        1.0     0.427325     0.103942     0.609356    Uiso  ? N
   N13        1.0     0.204867     0.545768     0.354252    Uiso  ? N
   N14        1.0     0.109341     0.428466     0.098513    Uiso  ? N
   N15        1.0     0.887836     0.538303     0.853976    Uiso  ? N
   N16        1.0     0.778498     0.427853     0.603671    Uiso  ? N
   N17        1.0     0.564466     0.543714     0.353622    Uiso  ? N
   N18        1.0     0.433493     0.445045     0.095214    Uiso  ? N
   N19        1.0     0.218384     0.540829     0.850115    Uiso  ? N
   N20        1.0     0.108888     0.429126     0.606347    Uiso  ? N
   N21        1.0     0.889179     0.538151     0.351525    Uiso  ? N
   N22        1.0     0.779548     0.426029     0.105714    Uiso  ? N
   N23        1.0     0.566218     0.523019     0.855024    Uiso  ? N
   N24        1.0     0.434687     0.445531     0.610115    Uiso  ? N
   N25        1.0     0.220600     0.873002     0.352347    Uiso  ? N
   N26        1.0     0.110824     0.760553     0.105168    Uiso  ? N
   N27        1.0     0.891572     0.867545     0.857627    Uiso  ? N
   N28        1.0     0.797280     0.753320     0.601756    Uiso  ? N
   N29        1.0     0.565195     0.857880     0.345887    Uiso  ? N
   N30        1.0     0.441823     0.761557     0.110536    Uiso  ? N
   N31        1.0     0.204491     0.879926     0.858033    Uiso  ? N
   N32        1.0     0.111636     0.762401     0.602695    Uiso  ? N
   N33        1.0     0.890051     0.873047     0.352752    Uiso  ? N
   N34        1.0     0.780553     0.759586     0.103375    Uiso  ? N
   N35        1.0     0.565991     0.871994     0.854343    Uiso  ? N
   N36        1.0     0.434476     0.757809     0.600954    Uiso  ? N
