
#======================================================================
# CRYSTAL DATA
#----------------------------------------------------------------------
data_VESTA_phase_1

_chemical_name_common                  'Al   Mg   Hf   N                      '
_cell_length_a                         9.654360
_cell_length_b                         9.604276
_cell_length_c                         10.000146
_cell_angle_alpha                      90.013214
_cell_angle_beta                       90.044693
_cell_angle_gamma                      60.109192
_cell_volume                           803.899443
_space_group_name_H-M_alt              'P 1'
_space_group_IT_number                 1

loop_
_space_group_symop_operation_xyz
   'x, y, z'

loop_
   _atom_site_label
   _atom_site_occupancy
   _atom_site_fract_x
   _atom_site_fract_y
   _atom_site_fract_z
   _atom_site_adp_type
   _atom_site_U_iso_or_equiv
   _atom_site_type_symbol
   Al1        1.0     0.108489     0.099163     0.384131    Uiso  ? Al
   Al2        1.0     0.216726     0.207153     0.134906    Uiso  ? Al
   Al3        1.0     0.778954     0.094148     0.888504    Uiso  ? Al
   Al4        1.0     0.895869     0.205185     0.636664    Uiso  ? Al
   Al5        1.0     0.104368     0.099681     0.888056    Uiso  ? Al
   Al6        1.0     0.210874     0.211657     0.639537    Uiso  ? Al
   Al7        1.0     0.791586     0.088029     0.383474    Uiso  ? Al
   Al8        1.0     0.890673     0.203437     0.135601    Uiso  ? Al
   Al9        1.0     0.443467     0.100688     0.893603    Uiso  ? Al
   Al10       1.0     0.107227     0.429094     0.383063    Uiso  ? Al
   Al11       1.0     0.218403     0.541334     0.135216    Uiso  ? Al
   Al12       1.0     0.783219     0.422637     0.887152    Uiso  ? Al
   Al13       1.0     0.895207     0.533624     0.635306    Uiso  ? Al
   Al14       1.0     0.558751     0.534481     0.140054    Uiso  ? Al
   Al15       1.0     0.109991     0.428661     0.886654    Uiso  ? Al
   Al16       1.0     0.216302     0.543495     0.637529    Uiso  ? Al
   Al17       1.0     0.778808     0.427485     0.382675    Uiso  ? Al
   Al18       1.0     0.890620     0.536143     0.136611    Uiso  ? Al
   Al19       1.0     0.442938     0.423229     0.889465    Uiso  ? Al
   Al20       1.0     0.557218     0.534182     0.633290    Uiso  ? Al
   Al21       1.0     0.109335     0.758591     0.383775    Uiso  ? Al
   Al22       1.0     0.215484     0.875676     0.140649    Uiso  ? Al
   Al23       1.0     0.784551     0.759443     0.890046    Uiso  ? Al
   Al24       1.0     0.902147     0.865766     0.637828    Uiso  ? Al
   Al25       1.0     0.443507     0.754778     0.378634    Uiso  ? Al
   Al26       1.0     0.558200     0.871810     0.147545    Uiso  ? Al
   Al27       1.0     0.105316     0.760921     0.888275    Uiso  ? Al
   Al28       1.0     0.210105     0.876360     0.629682    Uiso  ? Al
   Al29       1.0     0.790434     0.753945     0.378115    Uiso  ? Al
   Al30       1.0     0.891363     0.873640     0.134546    Uiso  ? Al
   Mg1        1.0     0.432662     0.100998     0.369669    Uiso  ? Mg
   Mg2        1.0     0.560265     0.205407     0.147208    Uiso  ? Mg
   Mg3        1.0     0.435690     0.439427     0.376240    Uiso  ? Mg
   Hf1        1.0     0.558262     0.209610     0.603149    Uiso  ? Hf
   Hf2        1.0     0.441104     0.761874     0.884725    Uiso  ? Hf
   Hf3        1.0     0.560357     0.868415     0.611792    Uiso  ? Hf
   N1         1.0     0.200403     0.216928     0.321810    Uiso  ? N
   N2         1.0     0.110180     0.093012     0.077262    Uiso  ? N
   N3         1.0     0.889121     0.206496     0.827354    Uiso  ? N
   N4         1.0     0.808469     0.079283     0.578324    Uiso  ? N
   N5         1.0     0.573504     0.198550     0.366262    Uiso  ? N
   N6         1.0     0.437515     0.086124     0.084287    Uiso  ? N
   N7         1.0     0.220668     0.205355     0.831709    Uiso  ? N
   N8         1.0     0.110774     0.096450     0.577673    Uiso  ? N
   N9         1.0     0.891329     0.205524     0.327174    Uiso  ? N
   N10        1.0     0.792536     0.087638     0.076067    Uiso  ? N
   N11        1.0     0.557260     0.203758     0.830595    Uiso  ? N
   N12        1.0     0.419674     0.104844     0.581267    Uiso  ? N
   N13        1.0     0.202244     0.547426     0.323005    Uiso  ? N
   N14        1.0     0.108610     0.429079     0.075199    Uiso  ? N
   N15        1.0     0.887663     0.539580     0.827930    Uiso  ? N
   N16        1.0     0.777700     0.428218     0.578067    Uiso  ? N
   N17        1.0     0.565729     0.543169     0.325995    Uiso  ? N
   N18        1.0     0.435912     0.443483     0.078537    Uiso  ? N
   N19        1.0     0.219573     0.540405     0.829940    Uiso  ? N
   N20        1.0     0.110569     0.427823     0.579482    Uiso  ? N
   N21        1.0     0.889446     0.536378     0.327108    Uiso  ? N
   N22        1.0     0.778708     0.426948     0.077369    Uiso  ? N
   N23        1.0     0.565005     0.523708     0.825972    Uiso  ? N
   N24        1.0     0.429278     0.450714     0.586756    Uiso  ? N
   N25        1.0     0.220574     0.872865     0.331590    Uiso  ? N
   N26        1.0     0.110873     0.762732     0.077343    Uiso  ? N
   N27        1.0     0.889122     0.870553     0.828745    Uiso  ? N
   N28        1.0     0.804013     0.749556     0.571831    Uiso  ? N
   N29        1.0     0.565794     0.856192     0.343464    Uiso  ? N
   N30        1.0     0.443364     0.763090     0.091068    Uiso  ? N
   N31        1.0     0.203629     0.880944     0.823030    Uiso  ? N
   N32        1.0     0.112194     0.759031     0.576343    Uiso  ? N
   N33        1.0     0.892743     0.870918     0.324965    Uiso  ? N
   N34        1.0     0.777233     0.760960     0.081603    Uiso  ? N
   N35        1.0     0.565378     0.877552     0.826109    Uiso  ? N
   N36        1.0     0.431898     0.753821     0.581134    Uiso  ? N
