
#======================================================================
# CRYSTAL DATA
#----------------------------------------------------------------------
data_VESTA_phase_1

_chemical_name_common                  'Al   Mg   Hf   N                      '
_cell_length_a                         9.719345
_cell_length_b                         9.668940
_cell_length_c                         9.819751
_cell_angle_alpha                      90.008133
_cell_angle_beta                       90.036766
_cell_angle_gamma                      60.110825
_cell_volume                           800.075112
_space_group_name_H-M_alt              'P 1'
_space_group_IT_number                 1

loop_
_space_group_symop_operation_xyz
   'x, y, z'

loop_
   _atom_site_label
   _atom_site_occupancy
   _atom_site_fract_x
   _atom_site_fract_y
   _atom_site_fract_z
   _atom_site_adp_type
   _atom_site_U_iso_or_equiv
   _atom_site_type_symbol
   Al1        1.0     0.108368     0.099318     0.379659    Uiso  ? Al
   Al2        1.0     0.215453     0.207739     0.130296    Uiso  ? Al
   Al3        1.0     0.779790     0.093717     0.883550    Uiso  ? Al
   Al4        1.0     0.895480     0.205116     0.631537    Uiso  ? Al
   Al5        1.0     0.104545     0.099551     0.883213    Uiso  ? Al
   Al6        1.0     0.211180     0.211628     0.634041    Uiso  ? Al
   Al7        1.0     0.791548     0.088054     0.377530    Uiso  ? Al
   Al8        1.0     0.891119     0.203447     0.131215    Uiso  ? Al
   Al9        1.0     0.443730     0.099409     0.888922    Uiso  ? Al
   Al10       1.0     0.106510     0.429328     0.379718    Uiso  ? Al
   Al11       1.0     0.217375     0.541633     0.131100    Uiso  ? Al
   Al12       1.0     0.782821     0.422438     0.882052    Uiso  ? Al
   Al13       1.0     0.894502     0.534378     0.631345    Uiso  ? Al
   Al14       1.0     0.558909     0.535447     0.135409    Uiso  ? Al
   Al15       1.0     0.110276     0.428581     0.880864    Uiso  ? Al
   Al16       1.0     0.216816     0.543428     0.631625    Uiso  ? Al
   Al17       1.0     0.779632     0.427445     0.378291    Uiso  ? Al
   Al18       1.0     0.890802     0.535719     0.131075    Uiso  ? Al
   Al19       1.0     0.442771     0.423674     0.885571    Uiso  ? Al
   Al20       1.0     0.557616     0.532861     0.626265    Uiso  ? Al
   Al21       1.0     0.109191     0.758643     0.379395    Uiso  ? Al
   Al22       1.0     0.216131     0.875272     0.134850    Uiso  ? Al
   Al23       1.0     0.783420     0.760204     0.884920    Uiso  ? Al
   Al24       1.0     0.901523     0.866136     0.633238    Uiso  ? Al
   Al25       1.0     0.442143     0.754481     0.375129    Uiso  ? Al
   Al26       1.0     0.558082     0.870370     0.142907    Uiso  ? Al
   Al27       1.0     0.105671     0.760489     0.883487    Uiso  ? Al
   Al28       1.0     0.208760     0.877226     0.625390    Uiso  ? Al
   Al29       1.0     0.792455     0.752669     0.372771    Uiso  ? Al
   Al30       1.0     0.892027     0.873278     0.129665    Uiso  ? Al
   Mg1        1.0     0.432693     0.102833     0.358839    Uiso  ? Mg
   Mg2        1.0     0.561719     0.204537     0.138035    Uiso  ? Mg
   Mg3        1.0     0.436212     0.437883     0.366110    Uiso  ? Mg
   Hf1        1.0     0.557450     0.210449     0.597520    Uiso  ? Hf
   Hf2        1.0     0.442107     0.761478     0.873878    Uiso  ? Hf
   Hf3        1.0     0.559975     0.870551     0.599929    Uiso  ? Hf
   N1         1.0     0.199341     0.217810     0.320338    Uiso  ? N
   N2         1.0     0.110116     0.093008     0.075388    Uiso  ? N
   N3         1.0     0.889401     0.206428     0.825077    Uiso  ? N
   N4         1.0     0.807144     0.079794     0.576129    Uiso  ? N
   N5         1.0     0.574662     0.197900     0.359943    Uiso  ? N
   N6         1.0     0.437139     0.085431     0.084235    Uiso  ? N
   N7         1.0     0.221066     0.204893     0.829418    Uiso  ? N
   N8         1.0     0.110544     0.096429     0.575641    Uiso  ? N
   N9         1.0     0.891505     0.205742     0.325507    Uiso  ? N
   N10        1.0     0.794368     0.086831     0.074092    Uiso  ? N
   N11        1.0     0.557099     0.203826     0.830065    Uiso  ? N
   N12        1.0     0.419184     0.107096     0.576934    Uiso  ? N
   N13        1.0     0.201165     0.547554     0.321955    Uiso  ? N
   N14        1.0     0.108630     0.429062     0.072448    Uiso  ? N
   N15        1.0     0.887170     0.539857     0.826505    Uiso  ? N
   N16        1.0     0.778388     0.428009     0.575802    Uiso  ? N
   N17        1.0     0.565966     0.543930     0.325245    Uiso  ? N
   N18        1.0     0.435428     0.444201     0.078547    Uiso  ? N
   N19        1.0     0.220150     0.540220     0.827302    Uiso  ? N
   N20        1.0     0.109738     0.428336     0.578367    Uiso  ? N
   N21        1.0     0.889708     0.536040     0.324500    Uiso  ? N
   N22        1.0     0.778608     0.426668     0.075396    Uiso  ? N
   N23        1.0     0.565478     0.521864     0.822840    Uiso  ? N
   N24        1.0     0.429269     0.450298     0.581739    Uiso  ? N
   N25        1.0     0.220931     0.872600     0.329434    Uiso  ? N
   N26        1.0     0.111113     0.762352     0.075478    Uiso  ? N
   N27        1.0     0.889386     0.870140     0.827041    Uiso  ? N
   N28        1.0     0.804559     0.749380     0.569633    Uiso  ? N
   N29        1.0     0.565625     0.855605     0.344411    Uiso  ? N
   N30        1.0     0.443814     0.762859     0.085511    Uiso  ? N
   N31        1.0     0.202653     0.881364     0.821552    Uiso  ? N
   N32        1.0     0.111792     0.759622     0.574470    Uiso  ? N
   N33        1.0     0.893162     0.870693     0.322807    Uiso  ? N
   N34        1.0     0.776843     0.761179     0.080179    Uiso  ? N
   N35        1.0     0.566002     0.878339     0.821108    Uiso  ? N
   N36        1.0     0.431555     0.754571     0.583248    Uiso  ? N
