
#======================================================================
# CRYSTAL DATA
#----------------------------------------------------------------------
data_VESTA_phase_1

_chemical_name_common                  'Al   Mg   Hf   N                      '
_cell_length_a                         9.672331
_cell_length_b                         9.621868
_cell_length_c                         9.950802
_cell_angle_alpha                      90.005630
_cell_angle_beta                       90.041924
_cell_angle_gamma                      60.110836
_cell_volume                           802.902999
_space_group_name_H-M_alt              'P 1'
_space_group_IT_number                 1

loop_
_space_group_symop_operation_xyz
   'x, y, z'

loop_
   _atom_site_label
   _atom_site_occupancy
   _atom_site_fract_x
   _atom_site_fract_y
   _atom_site_fract_z
   _atom_site_adp_type
   _atom_site_U_iso_or_equiv
   _atom_site_type_symbol
   Al1        1.0     0.108489     0.099170     0.380537    Uiso  ? Al
   Al2        1.0     0.216366     0.207301     0.131224    Uiso  ? Al
   Al3        1.0     0.779206     0.094021     0.884702    Uiso  ? Al
   Al4        1.0     0.895726     0.205188     0.632856    Uiso  ? Al
   Al5        1.0     0.104407     0.099652     0.884383    Uiso  ? Al
   Al6        1.0     0.210902     0.211719     0.635679    Uiso  ? Al
   Al7        1.0     0.791661     0.087974     0.379516    Uiso  ? Al
   Al8        1.0     0.890852     0.203374     0.132064    Uiso  ? Al
   Al9        1.0     0.443668     0.100239     0.889886    Uiso  ? Al
   Al10       1.0     0.106976     0.429151     0.379825    Uiso  ? Al
   Al11       1.0     0.218112     0.541373     0.131752    Uiso  ? Al
   Al12       1.0     0.783147     0.422532     0.883413    Uiso  ? Al
   Al13       1.0     0.894954     0.533859     0.631909    Uiso  ? Al
   Al14       1.0     0.558786     0.534812     0.136214    Uiso  ? Al
   Al15       1.0     0.110070     0.428644     0.882698    Uiso  ? Al
   Al16       1.0     0.216439     0.543490     0.633501    Uiso  ? Al
   Al17       1.0     0.778974     0.427494     0.379074    Uiso  ? Al
   Al18       1.0     0.890667     0.536010     0.132697    Uiso  ? Al
   Al19       1.0     0.442877     0.423318     0.886106    Uiso  ? Al
   Al20       1.0     0.557317     0.533743     0.629139    Uiso  ? Al
   Al21       1.0     0.109330     0.758581     0.380213    Uiso  ? Al
   Al22       1.0     0.215802     0.875469     0.136559    Uiso  ? Al
   Al23       1.0     0.784111     0.759759     0.886108    Uiso  ? Al
   Al24       1.0     0.901981     0.865861     0.634243    Uiso  ? Al
   Al25       1.0     0.443000     0.754546     0.375567    Uiso  ? Al
   Al26       1.0     0.558188     0.871281     0.144086    Uiso  ? Al
   Al27       1.0     0.105452     0.760752     0.884637    Uiso  ? Al
   Al28       1.0     0.209587     0.876679     0.626263    Uiso  ? Al
   Al29       1.0     0.791211     0.753454     0.374369    Uiso  ? Al
   Al30       1.0     0.891572     0.873495     0.130812    Uiso  ? Al
   Mg1        1.0     0.432560     0.101773     0.364105    Uiso  ? Mg
   Mg2        1.0     0.560863     0.205057     0.142318    Uiso  ? Mg
   Mg3        1.0     0.435889     0.438967     0.370881    Uiso  ? Mg
   Hf1        1.0     0.557960     0.209950     0.599139    Uiso  ? Hf
   Hf2        1.0     0.441538     0.761910     0.878979    Uiso  ? Hf
   Hf3        1.0     0.560153     0.869228     0.605323    Uiso  ? Hf
   N1         1.0     0.199986     0.217238     0.318923    Uiso  ? N
   N2         1.0     0.110182     0.092981     0.074342    Uiso  ? N
   N3         1.0     0.889222     0.206480     0.824276    Uiso  ? N
   N4         1.0     0.808074     0.079418     0.575313    Uiso  ? N
   N5         1.0     0.573952     0.198346     0.361983    Uiso  ? N
   N6         1.0     0.437503     0.085809     0.081928    Uiso  ? N
   N7         1.0     0.220828     0.205195     0.828695    Uiso  ? N
   N8         1.0     0.110683     0.096465     0.574704    Uiso  ? N
   N9         1.0     0.891410     0.205559     0.324334    Uiso  ? N
   N10        1.0     0.793147     0.087350     0.073036    Uiso  ? N
   N11        1.0     0.557210     0.203820     0.827947    Uiso  ? N
   N12        1.0     0.419290     0.105854     0.577365    Uiso  ? N
   N13        1.0     0.201892     0.547446     0.320331    Uiso  ? N
   N14        1.0     0.108609     0.429072     0.072026    Uiso  ? N
   N15        1.0     0.887507     0.539654     0.825155    Uiso  ? N
   N16        1.0     0.777801     0.428206     0.575002    Uiso  ? N
   N17        1.0     0.565781     0.543477     0.323190    Uiso  ? N
   N18        1.0     0.435780     0.443613     0.076189    Uiso  ? N
   N19        1.0     0.219769     0.540326     0.826780    Uiso  ? N
   N20        1.0     0.110238     0.428024     0.576777    Uiso  ? N
   N21        1.0     0.889500     0.536267     0.323954    Uiso  ? N
   N22        1.0     0.778737     0.426793     0.074419    Uiso  ? N
   N23        1.0     0.565148     0.523116     0.822775    Uiso  ? N
   N24        1.0     0.429222     0.450693     0.582748    Uiso  ? N
   N25        1.0     0.220743     0.872730     0.328513    Uiso  ? N
   N26        1.0     0.110973     0.762563     0.074447    Uiso  ? N
   N27        1.0     0.889260     0.870418     0.825882    Uiso  ? N
   N28        1.0     0.804333     0.749426     0.568844    Uiso  ? N
   N29        1.0     0.565717     0.855987     0.341907    Uiso  ? N
   N30        1.0     0.443588     0.763055     0.086761    Uiso  ? N
   N31        1.0     0.203300     0.881090     0.820271    Uiso  ? N
   N32        1.0     0.112056     0.759241     0.573415    Uiso  ? N
   N33        1.0     0.892901     0.870819     0.321943    Uiso  ? N
   N34        1.0     0.777026     0.761046     0.078764    Uiso  ? N
   N35        1.0     0.565645     0.877944     0.821681    Uiso  ? N
   N36        1.0     0.431665     0.754004     0.579539    Uiso  ? N
