
#======================================================================
# CRYSTAL DATA
#----------------------------------------------------------------------
data_VESTA_phase_1

_chemical_name_common                  'Al   Mg   Hf   N                      '
_cell_length_a                         9.742407
_cell_length_b                         9.699080
_cell_length_c                         9.734656
_cell_angle_alpha                      90.044075
_cell_angle_beta                       90.014488
_cell_angle_gamma                      60.121243
_cell_volume                           797.585477
_space_group_name_H-M_alt              'P 1'
_space_group_IT_number                 1

loop_
_space_group_symop_operation_xyz
   'x, y, z'

loop_
   _atom_site_label
   _atom_site_occupancy
   _atom_site_fract_x
   _atom_site_fract_y
   _atom_site_fract_z
   _atom_site_adp_type
   _atom_site_U_iso_or_equiv
   _atom_site_type_symbol
   Al1        1.0     0.107771     0.099243     0.326326    Uiso  ? Al
   Al2        1.0     0.216819     0.207107     0.076646    Uiso  ? Al
   Al3        1.0     0.786537     0.090323     0.834239    Uiso  ? Al
   Al4        1.0     0.894233     0.203886     0.574435    Uiso  ? Al
   Al5        1.0     0.104881     0.099989     0.825137    Uiso  ? Al
   Al6        1.0     0.210472     0.212201     0.573216    Uiso  ? Al
   Al7        1.0     0.783677     0.092263     0.322150    Uiso  ? Al
   Al8        1.0     0.892117     0.204898     0.077224    Uiso  ? Al
   Al9        1.0     0.439419     0.101099     0.855171    Uiso  ? Al
   Al10       1.0     0.106897     0.430610     0.325335    Uiso  ? Al
   Al11       1.0     0.219268     0.540767     0.076320    Uiso  ? Al
   Al12       1.0     0.784091     0.422261     0.824430    Uiso  ? Al
   Al13       1.0     0.895453     0.533774     0.573556    Uiso  ? Al
   Al14       1.0     0.562398     0.527279     0.083917    Uiso  ? Al
   Al15       1.0     0.109711     0.427816     0.827092    Uiso  ? Al
   Al16       1.0     0.215211     0.544611     0.575695    Uiso  ? Al
   Al17       1.0     0.779447     0.427954     0.328210    Uiso  ? Al
   Al18       1.0     0.890337     0.536008     0.076513    Uiso  ? Al
   Al19       1.0     0.441136     0.428138     0.844216    Uiso  ? Al
   Al20       1.0     0.554037     0.539124     0.569091    Uiso  ? Al
   Al21       1.0     0.109446     0.758057     0.326000    Uiso  ? Al
   Al22       1.0     0.208236     0.879053     0.084545    Uiso  ? Al
   Al23       1.0     0.791425     0.755469     0.829854    Uiso  ? Al
   Al24       1.0     0.899607     0.869081     0.573111    Uiso  ? Al
   Al25       1.0     0.444789     0.757801     0.316141    Uiso  ? Al
   Al26       1.0     0.561602     0.872730     0.083304    Uiso  ? Al
   Al27       1.0     0.104864     0.761931     0.825549    Uiso  ? Al
   Al28       1.0     0.215243     0.873926     0.571037    Uiso  ? Al
   Al29       1.0     0.783991     0.756859     0.322943    Uiso  ? Al
   Al30       1.0     0.893045     0.870792     0.077957    Uiso  ? Al
   Mg1        1.0     0.438160     0.101029     0.317760    Uiso  ? Mg
   Mg2        1.0     0.561302     0.204564     0.081984    Uiso  ? Mg
   Mg3        1.0     0.439121     0.431107     0.322901    Uiso  ? Mg
   Hf1        1.0     0.557200     0.209945     0.594529    Uiso  ? Hf
   Hf2        1.0     0.440238     0.758337     0.853205    Uiso  ? Hf
   Hf3        1.0     0.557418     0.868680     0.580634    Uiso  ? Hf
   N1         1.0     0.205070     0.215554     0.380734    Uiso  ? N
   N2         1.0     0.109049     0.097092     0.131414    Uiso  ? N
   N3         1.0     0.890662     0.207265     0.880379    Uiso  ? N
   N4         1.0     0.802107     0.082321     0.636858    Uiso  ? N
   N5         1.0     0.573239     0.196496     0.382383    Uiso  ? N
   N6         1.0     0.436236     0.089026     0.100992    Uiso  ? N
   N7         1.0     0.214063     0.208664     0.879628    Uiso  ? N
   N8         1.0     0.111342     0.092840     0.628992    Uiso  ? N
   N9         1.0     0.889764     0.205534     0.380423    Uiso  ? N
   N10        1.0     0.797433     0.085203     0.127754    Uiso  ? N
   N11        1.0     0.560963     0.203663     0.854232    Uiso  ? N
   N12        1.0     0.422319     0.102349     0.638635    Uiso  ? N
   N13        1.0     0.204876     0.546161     0.383467    Uiso  ? N
   N14        1.0     0.108856     0.428966     0.127794    Uiso  ? N
   N15        1.0     0.889192     0.536804     0.879695    Uiso  ? N
   N16        1.0     0.776700     0.428612     0.627533    Uiso  ? N
   N17        1.0     0.562021     0.546917     0.376395    Uiso  ? N
   N18        1.0     0.434318     0.441399     0.110661    Uiso  ? N
   N19        1.0     0.215858     0.542643     0.878242    Uiso  ? N
   N20        1.0     0.109621     0.428652     0.632184    Uiso  ? N
   N21        1.0     0.888284     0.539594     0.378947    Uiso  ? N
   N22        1.0     0.781380     0.425637     0.131684    Uiso  ? N
   N23        1.0     0.571736     0.518323     0.884782    Uiso  ? N
   N24        1.0     0.431173     0.451784     0.636733    Uiso  ? N
   N25        1.0     0.223653     0.871521     0.373623    Uiso  ? N
   N26        1.0     0.109614     0.759573     0.131311    Uiso  ? N
   N27        1.0     0.891340     0.869766     0.882366    Uiso  ? N
   N28        1.0     0.798334     0.752531     0.632542    Uiso  ? N
   N29        1.0     0.561954     0.858630     0.367977    Uiso  ? N
   N30        1.0     0.443460     0.760814     0.110855    Uiso  ? N
   N31        1.0     0.197609     0.884413     0.886705    Uiso  ? N
   N32        1.0     0.111832     0.763089     0.630140    Uiso  ? N
   N33        1.0     0.889972     0.871422     0.378659    Uiso  ? N
   N34        1.0     0.781448     0.758742     0.126755    Uiso  ? N
   N35        1.0     0.570289     0.872869     0.870475    Uiso  ? N
   N36        1.0     0.432142     0.755765     0.634021    Uiso  ? N
