
#======================================================================
# CRYSTAL DATA
#----------------------------------------------------------------------
data_VESTA_phase_1

_chemical_name_common                  'Al   Mg   Hf   N                      '
_cell_length_a                         9.876081
_cell_length_b                         9.825021
_cell_length_c                         9.354547
_cell_angle_alpha                      90.080086
_cell_angle_beta                       90.042229
_cell_angle_gamma                      60.106350
_cell_volume                           786.928918
_space_group_name_H-M_alt              'P 1'
_space_group_IT_number                 1

loop_
_space_group_symop_operation_xyz
   'x, y, z'

loop_
   _atom_site_label
   _atom_site_occupancy
   _atom_site_fract_x
   _atom_site_fract_y
   _atom_site_fract_z
   _atom_site_adp_type
   _atom_site_U_iso_or_equiv
   _atom_site_type_symbol
   Al1        1.0     0.106147     0.100024     0.329755    Uiso  ? Al
   Al2        1.0     0.215881     0.206917     0.082176    Uiso  ? Al
   Al3        1.0     0.785396     0.090635     0.844145    Uiso  ? Al
   Al4        1.0     0.893785     0.202762     0.580162    Uiso  ? Al
   Al5        1.0     0.106698     0.098920     0.828638    Uiso  ? Al
   Al6        1.0     0.209866     0.213053     0.575623    Uiso  ? Al
   Al7        1.0     0.785330     0.091943     0.321669    Uiso  ? Al
   Al8        1.0     0.893003     0.206003     0.078219    Uiso  ? Al
   Al9        1.0     0.441009     0.099474     0.868695    Uiso  ? Al
   Al10       1.0     0.105662     0.431468     0.326840    Uiso  ? Al
   Al11       1.0     0.217260     0.542165     0.079943    Uiso  ? Al
   Al12       1.0     0.782761     0.423433     0.826724    Uiso  ? Al
   Al13       1.0     0.895722     0.534262     0.578223    Uiso  ? Al
   Al14       1.0     0.563426     0.527654     0.093364    Uiso  ? Al
   Al15       1.0     0.110294     0.427186     0.832101    Uiso  ? Al
   Al16       1.0     0.216051     0.543512     0.579992    Uiso  ? Al
   Al17       1.0     0.781536     0.426601     0.332795    Uiso  ? Al
   Al18       1.0     0.889703     0.535677     0.078932    Uiso  ? Al
   Al19       1.0     0.442055     0.427190     0.859990    Uiso  ? Al
   Al20       1.0     0.553902     0.538727     0.570136    Uiso  ? Al
   Al21       1.0     0.108540     0.758167     0.329842    Uiso  ? Al
   Al22       1.0     0.207363     0.879412     0.090393    Uiso  ? Al
   Al23       1.0     0.790400     0.755768     0.834663    Uiso  ? Al
   Al24       1.0     0.898871     0.870358     0.577807    Uiso  ? Al
   Al25       1.0     0.443404     0.758131     0.321491    Uiso  ? Al
   Al26       1.0     0.560464     0.872025     0.104962    Uiso  ? Al
   Al27       1.0     0.105953     0.761498     0.828602    Uiso  ? Al
   Al28       1.0     0.215551     0.873872     0.573196    Uiso  ? Al
   Al29       1.0     0.786819     0.755582     0.326917    Uiso  ? Al
   Al30       1.0     0.894091     0.869459     0.080134    Uiso  ? Al
   Mg1        1.0     0.436066     0.102711     0.328002    Uiso  ? Mg
   Mg2        1.0     0.560580     0.203979     0.096489    Uiso  ? Mg
   Mg3        1.0     0.437121     0.432352     0.327647    Uiso  ? Mg
   Hf1        1.0     0.557902     0.210632     0.597553    Uiso  ? Hf
   Hf2        1.0     0.441167     0.757934     0.858654    Uiso  ? Hf
   Hf3        1.0     0.557928     0.869763     0.587983    Uiso  ? Hf
   N1         1.0     0.202615     0.217124     0.373767    Uiso  ? N
   N2         1.0     0.108198     0.097189     0.127207    Uiso  ? N
   N3         1.0     0.891571     0.208220     0.874268    Uiso  ? N
   N4         1.0     0.800831     0.082775     0.635761    Uiso  ? N
   N5         1.0     0.574259     0.197350     0.371043    Uiso  ? N
   N6         1.0     0.436117     0.087713     0.097137    Uiso  ? N
   N7         1.0     0.215925     0.207407     0.876147    Uiso  ? N
   N8         1.0     0.112057     0.092299     0.624181    Uiso  ? N
   N9         1.0     0.889592     0.204645     0.377324    Uiso  ? N
   N10        1.0     0.798549     0.085152     0.117559    Uiso  ? N
   N11        1.0     0.559803     0.203031     0.854718    Uiso  ? N
   N12        1.0     0.422763     0.104601     0.624053    Uiso  ? N
   N13        1.0     0.204069     0.545965     0.378067    Uiso  ? N
   N14        1.0     0.108146     0.429473     0.121732    Uiso  ? N
   N15        1.0     0.888635     0.536671     0.874860    Uiso  ? N
   N16        1.0     0.776045     0.429175     0.621552    Uiso  ? N
   N17        1.0     0.562359     0.545776     0.367118    Uiso  ? N
   N18        1.0     0.433549     0.441943     0.101775    Uiso  ? N
   N19        1.0     0.215516     0.542821     0.873835    Uiso  ? N
   N20        1.0     0.109553     0.428466     0.629091    Uiso  ? N
   N21        1.0     0.888875     0.539320     0.375055    Uiso  ? N
   N22        1.0     0.782857     0.424621     0.128610    Uiso  ? N
   N23        1.0     0.571882     0.519553     0.882530    Uiso  ? N
   N24        1.0     0.432350     0.450470     0.630061    Uiso  ? N
   N25        1.0     0.222807     0.871857     0.367414    Uiso  ? N
   N26        1.0     0.109299     0.759759     0.127640    Uiso  ? N
   N27        1.0     0.892361     0.868181     0.877665    Uiso  ? N
   N28        1.0     0.799304     0.752447     0.626968    Uiso  ? N
   N29        1.0     0.563062     0.858277     0.358715    Uiso  ? N
   N30        1.0     0.442639     0.761471     0.110238    Uiso  ? N
   N31        1.0     0.199383     0.883201     0.883386    Uiso  ? N
   N32        1.0     0.112195     0.763260     0.624850    Uiso  ? N
   N33        1.0     0.889800     0.872497     0.374042    Uiso  ? N
   N34        1.0     0.781815     0.758520     0.121643    Uiso  ? N
   N35        1.0     0.568671     0.873074     0.857671    Uiso  ? N
   N36        1.0     0.432353     0.755791     0.626500    Uiso  ? N
