
#======================================================================
# CRYSTAL DATA
#----------------------------------------------------------------------
data_VESTA_phase_1

_chemical_name_common                  'Al   Mg   Hf   N                      '
_cell_length_a                         9.652685
_cell_length_b                         9.602637
_cell_length_c                         10.004807
_cell_angle_alpha                      90.015114
_cell_angle_beta                       90.045090
_cell_angle_gamma                      60.108734
_cell_volume                           803.993722
_space_group_name_H-M_alt              'P 1'
_space_group_IT_number                 1

loop_
_space_group_symop_operation_xyz
   'x, y, z'

loop_
   _atom_site_label
   _atom_site_occupancy
   _atom_site_fract_x
   _atom_site_fract_y
   _atom_site_fract_z
   _atom_site_adp_type
   _atom_site_U_iso_or_equiv
   _atom_site_type_symbol
   Al1        1.0     0.108467     0.099165     0.398307    Uiso  ? Al
   Al2        1.0     0.216739     0.207141     0.149100    Uiso  ? Al
   Al3        1.0     0.778905     0.094157     0.902695    Uiso  ? Al
   Al4        1.0     0.895871     0.205178     0.650858    Uiso  ? Al
   Al5        1.0     0.104346     0.099679     0.902227    Uiso  ? Al
   Al6        1.0     0.210868     0.211635     0.653728    Uiso  ? Al
   Al7        1.0     0.791554     0.088041     0.397679    Uiso  ? Al
   Al8        1.0     0.890632     0.203448     0.149764    Uiso  ? Al
   Al9        1.0     0.443412     0.100736     0.907802    Uiso  ? Al
   Al10       1.0     0.107241     0.429088     0.397202    Uiso  ? Al
   Al11       1.0     0.218413     0.541337     0.149373    Uiso  ? Al
   Al12       1.0     0.783207     0.422646     0.901331    Uiso  ? Al
   Al13       1.0     0.895227     0.533594     0.649454    Uiso  ? Al
   Al14       1.0     0.558733     0.534439     0.154261    Uiso  ? Al
   Al15       1.0     0.109967     0.428657     0.900861    Uiso  ? Al
   Al16       1.0     0.216278     0.543489     0.651739    Uiso  ? Al
   Al17       1.0     0.778784     0.427482     0.396853    Uiso  ? Al
   Al18       1.0     0.890601     0.536155     0.150816    Uiso  ? Al
   Al19       1.0     0.442927     0.423212     0.903600    Uiso  ? Al
   Al20       1.0     0.557200     0.534218     0.647502    Uiso  ? Al
   Al21       1.0     0.109316     0.758593     0.397946    Uiso  ? Al
   Al22       1.0     0.215420     0.875706     0.154880    Uiso  ? Al
   Al23       1.0     0.784588     0.759396     0.904268    Uiso  ? Al
   Al24       1.0     0.902145     0.865754     0.651985    Uiso  ? Al
   Al25       1.0     0.443556     0.754810     0.392728    Uiso  ? Al
   Al26       1.0     0.558183     0.871866     0.161675    Uiso  ? Al
   Al27       1.0     0.105274     0.760942     0.902438    Uiso  ? Al
   Al28       1.0     0.210156     0.876317     0.643816    Uiso  ? Al
   Al29       1.0     0.790318     0.754005     0.392287    Uiso  ? Al
   Al30       1.0     0.891323     0.873660     0.148738    Uiso  ? Al
   Mg1        1.0     0.432672     0.100878     0.384043    Uiso  ? Mg
   Mg2        1.0     0.560170     0.205449     0.161503    Uiso  ? Mg
   Mg3        1.0     0.435651     0.439471     0.390593    Uiso  ? Mg
   Hf1        1.0     0.558280     0.209556     0.617358    Uiso  ? Hf
   Hf2        1.0     0.441020     0.761841     0.899137    Uiso  ? Hf
   Hf3        1.0     0.560376     0.868302     0.626335    Uiso  ? Hf
   N1         1.0     0.200437     0.216891     0.335933    Uiso  ? N
   N2         1.0     0.110159     0.093018     0.091370    Uiso  ? N
   N3         1.0     0.889090     0.206492     0.841481    Uiso  ? N
   N4         1.0     0.808491     0.079270     0.592443    Uiso  ? N
   N5         1.0     0.573431     0.198564     0.380517    Uiso  ? N
   N6         1.0     0.437485     0.086168     0.098347    Uiso  ? N
   N7         1.0     0.220630     0.205368     0.845823    Uiso  ? N
   N8         1.0     0.110769     0.096442     0.591789    Uiso  ? N
   N9         1.0     0.891301     0.205522     0.341275    Uiso  ? N
   N10        1.0     0.792448     0.087671     0.090191    Uiso  ? N
   N11        1.0     0.557242     0.203736     0.844683    Uiso  ? N
   N12        1.0     0.419724     0.104689     0.595495    Uiso  ? N
   N13        1.0     0.202265     0.547425     0.337091    Uiso  ? N
   N14        1.0     0.108595     0.429079     0.089336    Uiso  ? N
   N15        1.0     0.887664     0.539568     0.842024    Uiso  ? N
   N16        1.0     0.777689     0.428210     0.592195    Uiso  ? N
   N17        1.0     0.565713     0.543124     0.340108    Uiso  ? N
   N18        1.0     0.435905     0.443476     0.092583    Uiso  ? N
   N19        1.0     0.219533     0.540411     0.844070    Uiso  ? N
   N20        1.0     0.110601     0.427791     0.593571    Uiso  ? N
   N21        1.0     0.889430     0.536387     0.341244    Uiso  ? N
   N22        1.0     0.778685     0.426970     0.091479    Uiso  ? N
   N23        1.0     0.564978     0.523756     0.840099    Uiso  ? N
   N24        1.0     0.429277     0.450700     0.600985    Uiso  ? N
   N25        1.0     0.220536     0.872882     0.345725    Uiso  ? N
   N26        1.0     0.110840     0.762756     0.091443    Uiso  ? N
   N27        1.0     0.889079     0.870564     0.842839    Uiso  ? N
   N28        1.0     0.803949     0.749572     0.585941    Uiso  ? N
   N29        1.0     0.565791     0.856205     0.357377    Uiso  ? N
   N30        1.0     0.443311     0.763088     0.105340    Uiso  ? N
   N31        1.0     0.203640     0.880926     0.837111    Uiso  ? N
   N32        1.0     0.112195     0.759001     0.590453    Uiso  ? N
   N33        1.0     0.892708     0.870931     0.339091    Uiso  ? N
   N34        1.0     0.777250     0.760947     0.095711    Uiso  ? N
   N35        1.0     0.565320     0.877485     0.840444    Uiso  ? N
   N36        1.0     0.431923     0.753795     0.595098    Uiso  ? N
