
#======================================================================
# CRYSTAL DATA
#----------------------------------------------------------------------
data_VESTA_phase_1

_chemical_name_common                  'Al   Mg   Hf   N                      '
_cell_length_a                         9.943244
_cell_length_b                         9.891330
_cell_length_c                         9.160858
_cell_angle_alpha                      90.054588
_cell_angle_beta                       90.029709
_cell_angle_gamma                      60.092052
_cell_volume                           781.000778
_space_group_name_H-M_alt              'P 1'
_space_group_IT_number                 1

loop_
_space_group_symop_operation_xyz
   'x, y, z'

loop_
   _atom_site_label
   _atom_site_occupancy
   _atom_site_fract_x
   _atom_site_fract_y
   _atom_site_fract_z
   _atom_site_adp_type
   _atom_site_U_iso_or_equiv
   _atom_site_type_symbol
   Al1        1.0     0.106941     0.100051     0.373727    Uiso  ? Al
   Al2        1.0     0.214403     0.208609     0.125529    Uiso  ? Al
   Al3        1.0     0.782290     0.092708     0.878191    Uiso  ? Al
   Al4        1.0     0.894638     0.204605     0.625101    Uiso  ? Al
   Al5        1.0     0.106354     0.098748     0.875545    Uiso  ? Al
   Al6        1.0     0.212490     0.210467     0.623158    Uiso  ? Al
   Al7        1.0     0.788047     0.089835     0.360245    Uiso  ? Al
   Al8        1.0     0.892068     0.204659     0.123503    Uiso  ? Al
   Al9        1.0     0.440946     0.098812     0.880876    Uiso  ? Al
   Al10       1.0     0.105059     0.430268     0.376699    Uiso  ? Al
   Al11       1.0     0.216497     0.541606     0.126787    Uiso  ? Al
   Al12       1.0     0.780609     0.423703     0.873934    Uiso  ? Al
   Al13       1.0     0.892995     0.535926     0.626300    Uiso  ? Al
   Al14       1.0     0.559955     0.533839     0.133273    Uiso  ? Al
   Al15       1.0     0.111442     0.428003     0.870802    Uiso  ? Al
   Al16       1.0     0.217714     0.543199     0.620955    Uiso  ? Al
   Al17       1.0     0.783283     0.426372     0.372905    Uiso  ? Al
   Al18       1.0     0.892026     0.534197     0.122328    Uiso  ? Al
   Al19       1.0     0.441534     0.427207     0.877275    Uiso  ? Al
   Al20       1.0     0.557750     0.533801     0.604376    Uiso  ? Al
   Al21       1.0     0.107460     0.759673     0.373574    Uiso  ? Al
   Al22       1.0     0.213783     0.876389     0.128865    Uiso  ? Al
   Al23       1.0     0.783627     0.759328     0.881054    Uiso  ? Al
   Al24       1.0     0.899481     0.867404     0.627068    Uiso  ? Al
   Al25       1.0     0.441645     0.758022     0.356861    Uiso  ? Al
   Al26       1.0     0.557674     0.871449     0.131627    Uiso  ? Al
   Al27       1.0     0.107523     0.759085     0.876137    Uiso  ? Al
   Al28       1.0     0.209691     0.877113     0.615416    Uiso  ? Al
   Al29       1.0     0.792519     0.752759     0.360927    Uiso  ? Al
   Al30       1.0     0.893979     0.871949     0.121544    Uiso  ? Al
   Mg1        1.0     0.434747     0.103631     0.344659    Uiso  ? Mg
   Mg2        1.0     0.559945     0.204887     0.116954    Uiso  ? Mg
   Mg3        1.0     0.436823     0.433842     0.351984    Uiso  ? Mg
   Hf1        1.0     0.558496     0.209954     0.595984    Uiso  ? Hf
   Hf2        1.0     0.442099     0.758121     0.862602    Uiso  ? Hf
   Hf3        1.0     0.560571     0.871470     0.592322    Uiso  ? Hf
   N1         1.0     0.200498     0.217938     0.332541    Uiso  ? N
   N2         1.0     0.110446     0.093428     0.083691    Uiso  ? N
   N3         1.0     0.890183     0.206655     0.834540    Uiso  ? N
   N4         1.0     0.802909     0.081782     0.586555    Uiso  ? N
   N5         1.0     0.574174     0.197490     0.354897    Uiso  ? N
   N6         1.0     0.434236     0.086138     0.091254    Uiso  ? N
   N7         1.0     0.220338     0.204859     0.834631    Uiso  ? N
   N8         1.0     0.109937     0.095826     0.583635    Uiso  ? N
   N9         1.0     0.891091     0.206639     0.333167    Uiso  ? N
   N10        1.0     0.796529     0.086198     0.085375    Uiso  ? N
   N11        1.0     0.557331     0.203643     0.845185    Uiso  ? N
   N12        1.0     0.423918     0.105803     0.588562    Uiso  ? N
   N13        1.0     0.201060     0.547109     0.334087    Uiso  ? N
   N14        1.0     0.109622     0.428457     0.078217    Uiso  ? N
   N15        1.0     0.886511     0.540364     0.836275    Uiso  ? N
   N16        1.0     0.781290     0.426793     0.584114    Uiso  ? N
   N17        1.0     0.566015     0.543510     0.343056    Uiso  ? N
   N18        1.0     0.433987     0.446634     0.088561    Uiso  ? N
   N19        1.0     0.220188     0.540398     0.832862    Uiso  ? N
   N20        1.0     0.108518     0.429049     0.589144    Uiso  ? N
   N21        1.0     0.890543     0.535688     0.330915    Uiso  ? N
   N22        1.0     0.777441     0.427276     0.083944    Uiso  ? N
   N23        1.0     0.565788     0.521177     0.828209    Uiso  ? N
   N24        1.0     0.431505     0.446439     0.590435    Uiso  ? N
   N25        1.0     0.219886     0.873306     0.339041    Uiso  ? N
   N26        1.0     0.112054     0.761260     0.083756    Uiso  ? N
   N27        1.0     0.889839     0.868864     0.837402    Uiso  ? N
   N28        1.0     0.802064     0.750745     0.576607    Uiso  ? N
   N29        1.0     0.565475     0.856458     0.345847    Uiso  ? N
   N30        1.0     0.443020     0.761369     0.097748    Uiso  ? N
   N31        1.0     0.202877     0.880852     0.830507    Uiso  ? N
   N32        1.0     0.110763     0.760921     0.582904    Uiso  ? N
   N33        1.0     0.893042     0.870731     0.329627    Uiso  ? N
   N34        1.0     0.778140     0.760606     0.090980    Uiso  ? N
   N35        1.0     0.566464     0.875602     0.834446    Uiso  ? N
   N36        1.0     0.432719     0.757649     0.595263    Uiso  ? N
