
#======================================================================
# CRYSTAL DATA
#----------------------------------------------------------------------
data_VESTA_phase_1

_chemical_name_common                  'Al   Mg   Hf   N '
_cell_length_a                         9.619718
_cell_length_b                         9.592021
_cell_length_c                         10.053139
_cell_angle_alpha                      89.951736
_cell_angle_beta                       89.989708
_cell_angle_gamma                      60.097107
_cell_volume                           804.134531
_space_group_name_H-M_alt              'P 1'
_space_group_IT_number                 1

loop_
_space_group_symop_operation_xyz
   'x, y, z'

loop_
   _atom_site_label
   _atom_site_occupancy
   _atom_site_fract_x
   _atom_site_fract_y
   _atom_site_fract_z
   _atom_site_adp_type
   _atom_site_U_iso_or_equiv
   _atom_site_type_symbol
   Al1        1.0     0.109347     0.098529     0.295947    Uiso  ? Al
   Al2        1.0     0.219779     0.206115     0.045881    Uiso  ? Al
   Al3        1.0     0.786608     0.090412     0.800562    Uiso  ? Al
   Al4        1.0     0.894768     0.204423     0.543083    Uiso  ? Al
   Al5        1.0     0.103598     0.100796     0.795958    Uiso  ? Al
   Al6        1.0     0.209920     0.211921     0.543774    Uiso  ? Al
   Al7        1.0     0.782539     0.092239     0.293915    Uiso  ? Al
   Al8        1.0     0.890957     0.204383     0.049319    Uiso  ? Al
   Al9        1.0     0.438126     0.101048     0.810906    Uiso  ? Al
   Al10       1.0     0.108375     0.429478     0.296390    Uiso  ? Al
   Al11       1.0     0.222149     0.539185     0.047291    Uiso  ? Al
   Al12       1.0     0.784060     0.421838     0.795845    Uiso  ? Al
   Al13       1.0     0.895495     0.533290     0.543338    Uiso  ? Al
   Al14       1.0     0.559962     0.528572     0.051530    Uiso  ? Al
   Al15       1.0     0.109481     0.428542     0.797062    Uiso  ? Al
   Al16       1.0     0.213987     0.545720     0.544537    Uiso  ? Al
   Al17       1.0     0.778828     0.428396     0.297231    Uiso  ? Al
   Al18       1.0     0.890676     0.536318     0.047079    Uiso  ? Al
   Al19       1.0     0.439705     0.429883     0.803381    Uiso  ? Al
   Al20       1.0     0.555642     0.538826     0.539371    Uiso  ? Al
   Al21       1.0     0.110410     0.757919     0.295502    Uiso  ? Al
   Al22       1.0     0.211086     0.877857     0.053321    Uiso  ? Al
   Al23       1.0     0.789400     0.757051     0.800207    Uiso  ? Al
   Al24       1.0     0.899854     0.868015     0.542484    Uiso  ? Al
   Al25       1.0     0.445286     0.756792     0.285479    Uiso  ? Al
   Al26       1.0     0.559850     0.875055     0.050197    Uiso  ? Al
   Al27       1.0     0.104203     0.762106     0.796414    Uiso  ? Al
   Al28       1.0     0.214257     0.874380     0.541439    Uiso  ? Al
   Al29       1.0     0.784033     0.756648     0.290970    Uiso  ? Al
   Al30       1.0     0.892018     0.872105     0.048742    Uiso  ? Al
   Mg1        1.0     0.439533     0.101606     0.285497    Uiso  ? Mg
   Mg2        1.0     0.559320     0.205678     0.042569    Uiso  ? Mg
   Mg3        1.0     0.441876     0.428914     0.294349    Uiso  ? Mg
   Hf1        1.0     0.557542     0.209248     0.563913    Uiso  ? Hf
   Hf2        1.0     0.440389     0.759592     0.817063    Uiso  ? Hf
   Hf3        1.0     0.558181     0.867446     0.542494    Uiso  ? Hf
   N1         1.0     0.206580     0.214377     0.357860    Uiso  ? N
   N2         1.0     0.109897     0.096797     0.105794    Uiso  ? N
   N3         1.0     0.889369     0.206746     0.856513    Uiso  ? N
   N4         1.0     0.803336     0.081720     0.609817    Uiso  ? N
   N5         1.0     0.573753     0.194635     0.362348    Uiso  ? N
   N6         1.0     0.436638     0.090158     0.082042    Uiso  ? N
   N7         1.0     0.214952     0.208391     0.853371    Uiso  ? N
   N8         1.0     0.110964     0.093057     0.604811    Uiso  ? N
   N9         1.0     0.890098     0.205647     0.354512    Uiso  ? N
   N10        1.0     0.794523     0.086197     0.105410    Uiso  ? N
   N11        1.0     0.559355     0.204966     0.823357    Uiso  ? N
   N12        1.0     0.423034     0.098856     0.613769    Uiso  ? N
   N13        1.0     0.205552     0.546165     0.358885    Uiso  ? N
   N14        1.0     0.109815     0.428243     0.103314    Uiso  ? N
   N15        1.0     0.888744     0.537465     0.854632    Uiso  ? N
   N16        1.0     0.777428     0.427834     0.603650    Uiso  ? N
   N17        1.0     0.562863     0.547076     0.354050    Uiso  ? N
   N18        1.0     0.435914     0.440114     0.091647    Uiso  ? N
   N19        1.0     0.217451     0.542073     0.853141    Uiso  ? N
   N20        1.0     0.110207     0.428593     0.606999    Uiso  ? N
   N21        1.0     0.888386     0.539484     0.353852    Uiso  ? N
   N22        1.0     0.780012     0.426678     0.105589    Uiso  ? N
   N23        1.0     0.569292     0.518707     0.858071    Uiso  ? N
   N24        1.0     0.430550     0.453135     0.608899    Uiso  ? N
   N25        1.0     0.223803     0.871488     0.349847    Uiso  ? N
   N26        1.0     0.110212     0.759650     0.105586    Uiso  ? N
   N27        1.0     0.890105     0.871288     0.857218    Uiso  ? N
   N28        1.0     0.796291     0.753015     0.608043    Uiso  ? N
   N29        1.0     0.562173     0.858581     0.339606    Uiso  ? N
   N30        1.0     0.443937     0.760342     0.086289    Uiso  ? N
   N31        1.0     0.198133     0.884412     0.860786    Uiso  ? N
   N32        1.0     0.111569     0.762763     0.605913    Uiso  ? N
   N33        1.0     0.890257     0.870481     0.353613    Uiso  ? N
   N34        1.0     0.781404     0.758813     0.100878    Uiso  ? N
   N35        1.0     0.568800     0.875636     0.850045    Uiso  ? N
   N36        1.0     0.433367     0.756093     0.606805    Uiso  ? N
