
#======================================================================
# CRYSTAL DATA
#----------------------------------------------------------------------
data_VESTA_phase_1

_chemical_name_common                  'Al   Mg   Hf   N                      '
_cell_length_a                         9.767152
_cell_length_b                         9.716499
_cell_length_c                         9.684333
_cell_angle_alpha                      90.018982
_cell_angle_beta                       90.034889
_cell_angle_gamma                      60.108044
_cell_volume                           796.800905
_space_group_name_H-M_alt              'P 1'
_space_group_IT_number                 1

loop_
_space_group_symop_operation_xyz
   'x, y, z'

loop_
   _atom_site_label
   _atom_site_occupancy
   _atom_site_fract_x
   _atom_site_fract_y
   _atom_site_fract_z
   _atom_site_adp_type
   _atom_site_U_iso_or_equiv
   _atom_site_type_symbol
   Al1        1.0     0.108133     0.099533     0.378893    Uiso  ? Al
   Al2        1.0     0.214767     0.208098     0.129604    Uiso  ? Al
   Al3        1.0     0.780390     0.093427     0.882805    Uiso  ? Al
   Al4        1.0     0.895308     0.204988     0.630447    Uiso  ? Al
   Al5        1.0     0.104766     0.099410     0.882072    Uiso  ? Al
   Al6        1.0     0.211517     0.211403     0.632419    Uiso  ? Al
   Al7        1.0     0.791114     0.088307     0.375423    Uiso  ? Al
   Al8        1.0     0.891303     0.203641     0.130359    Uiso  ? Al
   Al9        1.0     0.443417     0.098912     0.888018    Uiso  ? Al
   Al10       1.0     0.106145     0.429523     0.379601    Uiso  ? Al
   Al11       1.0     0.216819     0.541865     0.130547    Uiso  ? Al
   Al12       1.0     0.782354     0.422537     0.880732    Uiso  ? Al
   Al13       1.0     0.894160     0.534814     0.630786    Uiso  ? Al
   Al14       1.0     0.559117     0.535661     0.135342    Uiso  ? Al
   Al15       1.0     0.110499     0.428490     0.879151    Uiso  ? Al
   Al16       1.0     0.217124     0.543343     0.629927    Uiso  ? Al
   Al17       1.0     0.780449     0.427295     0.377702    Uiso  ? Al
   Al18       1.0     0.890999     0.535407     0.129603    Uiso  ? Al
   Al19       1.0     0.442634     0.424278     0.884787    Uiso  ? Al
   Al20       1.0     0.557816     0.532469     0.622867    Uiso  ? Al
   Al21       1.0     0.108923     0.758776     0.378685    Uiso  ? Al
   Al22       1.0     0.215999     0.875333     0.133680    Uiso  ? Al
   Al23       1.0     0.783139     0.760329     0.884270    Uiso  ? Al
   Al24       1.0     0.901060     0.866419     0.632272    Uiso  ? Al
   Al25       1.0     0.441676     0.754955     0.373520    Uiso  ? Al
   Al26       1.0     0.557980     0.869996     0.141409    Uiso  ? Al
   Al27       1.0     0.105908     0.760287     0.882349    Uiso  ? Al
   Al28       1.0     0.208470     0.877473     0.624198    Uiso  ? Al
   Al29       1.0     0.793039     0.752304     0.370981    Uiso  ? Al
   Al30       1.0     0.892463     0.873096     0.128651    Uiso  ? Al
   Mg1        1.0     0.433045     0.103343     0.354703    Uiso  ? Mg
   Mg2        1.0     0.561952     0.204322     0.133770    Uiso  ? Mg
   Mg3        1.0     0.436380     0.436888     0.362347    Uiso  ? Mg
   Hf1        1.0     0.557276     0.210613     0.596672    Uiso  ? Hf
   Hf2        1.0     0.442331     0.760799     0.870411    Uiso  ? Hf
   Hf3        1.0     0.560014     0.871251     0.596979    Uiso  ? Hf
   N1         1.0     0.199145     0.218121     0.322399    Uiso  ? N
   N2         1.0     0.110062     0.093087     0.076830    Uiso  ? N
   N3         1.0     0.889529     0.206392     0.826466    Uiso  ? N
   N4         1.0     0.806293     0.080183     0.577385    Uiso  ? N
   N5         1.0     0.574957     0.197597     0.358594    Uiso  ? N
   N6         1.0     0.436578     0.085353     0.086430    Uiso  ? N
   N7         1.0     0.221125     0.204719     0.830439    Uiso  ? N
   N8         1.0     0.110443     0.096343     0.577029    Uiso  ? N
   N9         1.0     0.891510     0.205967     0.327009    Uiso  ? N
   N10        1.0     0.795267     0.086488     0.075873    Uiso  ? N
   N11        1.0     0.557091     0.203771     0.832970    Uiso  ? N
   N12        1.0     0.419766     0.107379     0.578046    Uiso  ? N
   N13        1.0     0.200709     0.547618     0.324045    Uiso  ? N
   N14        1.0     0.108740     0.429001     0.073328    Uiso  ? N
   N15        1.0     0.886918     0.540043     0.828266    Uiso  ? N
   N16        1.0     0.779141     0.427725     0.577166    Uiso  ? N
   N17        1.0     0.566143     0.544017     0.328394    Uiso  ? N
   N18        1.0     0.435098     0.444889     0.081025    Uiso  ? N
   N19        1.0     0.220372     0.540191     0.828275    Uiso  ? N
   N20        1.0     0.109419     0.428530     0.580369    Uiso  ? N
   N21        1.0     0.889937     0.535865     0.325510    Uiso  ? N
   N22        1.0     0.778345     0.426710     0.076802    Uiso  ? N
   N23        1.0     0.565678     0.521137     0.823154    Uiso  ? N
   N24        1.0     0.429481     0.449611     0.582103    Uiso  ? N
   N25        1.0     0.220830     0.872674     0.330991    Uiso  ? N
   N26        1.0     0.111232     0.762210     0.076880    Uiso  ? N
   N27        1.0     0.889420     0.869921     0.828651    Uiso  ? N
   N28        1.0     0.804328     0.749542     0.570759    Uiso  ? N
   N29        1.0     0.565596     0.855500     0.345632    Uiso  ? N
   N30        1.0     0.443812     0.762554     0.086204    Uiso  ? N
   N31        1.0     0.202380     0.881442     0.823128    Uiso  ? N
   N32        1.0     0.111573     0.759901     0.575987    Uiso  ? N
   N33        1.0     0.893294     0.870641     0.324099    Uiso  ? N
   N34        1.0     0.776938     0.761209     0.082116    Uiso  ? N
   N35        1.0     0.566173     0.878185     0.822577    Uiso  ? N
   N36        1.0     0.431697     0.755240     0.586359    Uiso  ? N
