
#======================================================================
# CRYSTAL DATA
#----------------------------------------------------------------------
data_VESTA_phase_1

_chemical_name_common                  'Al   Mg   Hf   N                      '
_cell_length_a                         9.858778
_cell_length_b                         9.807154
_cell_length_c                         9.416639
_cell_angle_alpha                      90.040253
_cell_angle_beta                       90.033096
_cell_angle_gamma                      60.100285
_cell_volume                           789.278910
_space_group_name_H-M_alt              'P 1'
_space_group_IT_number                 1

loop_
_space_group_symop_operation_xyz
   'x, y, z'

loop_
   _atom_site_label
   _atom_site_occupancy
   _atom_site_fract_x
   _atom_site_fract_y
   _atom_site_fract_z
   _atom_site_adp_type
   _atom_site_U_iso_or_equiv
   _atom_site_type_symbol
   Al1        1.0     0.107530     0.099916     0.376754    Uiso  ? Al
   Al2        1.0     0.214180     0.208513     0.127832    Uiso  ? Al
   Al3        1.0     0.781502     0.092966     0.881135    Uiso  ? Al
   Al4        1.0     0.894984     0.204741     0.628000    Uiso  ? Al
   Al5        1.0     0.105436     0.099073     0.879153    Uiso  ? Al
   Al6        1.0     0.212079     0.210896     0.628347    Uiso  ? Al
   Al7        1.0     0.789768     0.088996     0.369683    Uiso  ? Al
   Al8        1.0     0.891642     0.204107     0.127690    Uiso  ? Al
   Al9        1.0     0.442310     0.098547     0.885072    Uiso  ? Al
   Al10       1.0     0.105541     0.429909     0.378613    Uiso  ? Al
   Al11       1.0     0.216323     0.541957     0.128961    Uiso  ? Al
   Al12       1.0     0.781340     0.423036     0.877570    Uiso  ? Al
   Al13       1.0     0.893544     0.535498     0.628994    Uiso  ? Al
   Al14       1.0     0.559632     0.535046     0.135092    Uiso  ? Al
   Al15       1.0     0.110978     0.428257     0.875230    Uiso  ? Al
   Al16       1.0     0.217501     0.543234     0.625914    Uiso  ? Al
   Al17       1.0     0.782117     0.426814     0.375879    Uiso  ? Al
   Al18       1.0     0.891514     0.534745     0.126192    Uiso  ? Al
   Al19       1.0     0.442197     0.425796     0.881744    Uiso  ? Al
   Al20       1.0     0.557890     0.532800     0.614177    Uiso  ? Al
   Al21       1.0     0.108204     0.759162     0.376622    Uiso  ? Al
   Al22       1.0     0.214990     0.875818     0.131431    Uiso  ? Al
   Al23       1.0     0.783179     0.760057     0.882913    Uiso  ? Al
   Al24       1.0     0.900183     0.866953     0.629901    Uiso  ? Al
   Al25       1.0     0.441406     0.756576     0.366421    Uiso  ? Al
   Al26       1.0     0.557837     0.870365     0.137174    Uiso  ? Al
   Al27       1.0     0.106594     0.759787     0.879507    Uiso  ? Al
   Al28       1.0     0.208802     0.877452     0.620500    Uiso  ? Al
   Al29       1.0     0.793193     0.752250     0.366397    Uiso  ? Al
   Al30       1.0     0.893264     0.872659     0.125796    Uiso  ? Al
   Mg1        1.0     0.433873     0.103757     0.348620    Uiso  ? Mg
   Mg2        1.0     0.561361     0.204391     0.125047    Uiso  ? Mg
   Mg3        1.0     0.436556     0.435155     0.356442    Uiso  ? Mg
   Hf1        1.0     0.557585     0.210443     0.595956    Uiso  ? Hf
   Hf2        1.0     0.442367     0.759363     0.865736    Uiso  ? Hf
   Hf3        1.0     0.560251     0.871665     0.593780    Uiso  ? Hf
   N1         1.0     0.199543     0.218231     0.327085    Uiso  ? N
   N2         1.0     0.110119     0.093280     0.079950    Uiso  ? N
   N3         1.0     0.889770     0.206409     0.829916    Uiso  ? N
   N4         1.0     0.804680     0.080945     0.580523    Uiso  ? N
   N5         1.0     0.574816     0.197375     0.356488    Uiso  ? N
   N6         1.0     0.435360     0.085614     0.089446    Uiso  ? N
   N7         1.0     0.220890     0.204644     0.832436    Uiso  ? N
   N8         1.0     0.110203     0.096120     0.580102    Uiso  ? N
   N9         1.0     0.891381     0.206383     0.329968    Uiso  ? N
   N10        1.0     0.796292     0.086171     0.080187    Uiso  ? N
   N11        1.0     0.557258     0.203649     0.839209    Uiso  ? N
   N12        1.0     0.421700     0.106846     0.582451    Uiso  ? N
   N13        1.0     0.200514     0.547498     0.328687    Uiso  ? N
   N14        1.0     0.109148     0.428752     0.075428    Uiso  ? N
   N15        1.0     0.886609     0.540303     0.832074    Uiso  ? N
   N16        1.0     0.780544     0.427152     0.580346    Uiso  ? N
   N17        1.0     0.566283     0.543713     0.335748    Uiso  ? N
   N18        1.0     0.434524     0.446014     0.085210    Uiso  ? N
   N19        1.0     0.220450     0.540256     0.830398    Uiso  ? N
   N20        1.0     0.108923     0.428812     0.584598    Uiso  ? N
   N21        1.0     0.890329     0.535657     0.327854    Uiso  ? N
   N22        1.0     0.777782     0.426953     0.079984    Uiso  ? N
   N23        1.0     0.565815     0.520769     0.824460    Uiso  ? N
   N24        1.0     0.430263     0.447937     0.585149    Uiso  ? N
   N25        1.0     0.220266     0.873051     0.334679    Uiso  ? N
   N26        1.0     0.111558     0.761824     0.079964    Uiso  ? N
   N27        1.0     0.889506     0.869515     0.832438    Uiso  ? N
   N28        1.0     0.803335     0.750073     0.573257    Uiso  ? N
   N29        1.0     0.565583     0.855842     0.346144    Uiso  ? N
   N30        1.0     0.443529     0.761866     0.090895    Uiso  ? N
   N31        1.0     0.202464     0.881243     0.826481    Uiso  ? N
   N32        1.0     0.111141     0.760404     0.579272    Uiso  ? N
   N33        1.0     0.893318     0.870614     0.326732    Uiso  ? N
   N34        1.0     0.777468     0.761032     0.086349    Uiso  ? N
   N35        1.0     0.566359     0.877085     0.827717    Uiso  ? N
   N36        1.0     0.432124     0.756615     0.591227    Uiso  ? N
