
#======================================================================
# CRYSTAL DATA
#----------------------------------------------------------------------
data_VESTA_phase_1

_chemical_name_common                  'Al   Mg   Hf   N                      '
_cell_length_a                         9.652683
_cell_length_b                         9.602632
_cell_length_c                         10.004818
_cell_angle_alpha                      90.015106
_cell_angle_beta                       90.045044
_cell_angle_gamma                      60.108643
_cell_volume                           803.993266
_space_group_name_H-M_alt              'P 1'
_space_group_IT_number                 1

loop_
_space_group_symop_operation_xyz
   'x, y, z'

loop_
   _atom_site_label
   _atom_site_occupancy
   _atom_site_fract_x
   _atom_site_fract_y
   _atom_site_fract_z
   _atom_site_adp_type
   _atom_site_U_iso_or_equiv
   _atom_site_type_symbol
   Al1        1.0     0.108464     0.099164     0.401612    Uiso  ? Al
   Al2        1.0     0.216736     0.207140     0.152403    Uiso  ? Al
   Al3        1.0     0.778900     0.094157     0.906010    Uiso  ? Al
   Al4        1.0     0.895867     0.205176     0.654169    Uiso  ? Al
   Al5        1.0     0.104342     0.099678     0.905541    Uiso  ? Al
   Al6        1.0     0.210863     0.211634     0.657037    Uiso  ? Al
   Al7        1.0     0.791550     0.088039     0.400984    Uiso  ? Al
   Al8        1.0     0.890628     0.203448     0.153073    Uiso  ? Al
   Al9        1.0     0.443408     0.100734     0.911107    Uiso  ? Al
   Al10       1.0     0.107238     0.429087     0.400505    Uiso  ? Al
   Al11       1.0     0.218409     0.541335     0.152677    Uiso  ? Al
   Al12       1.0     0.783202     0.422646     0.904644    Uiso  ? Al
   Al13       1.0     0.895224     0.533592     0.652760    Uiso  ? Al
   Al14       1.0     0.558728     0.534440     0.157576    Uiso  ? Al
   Al15       1.0     0.109962     0.428656     0.904169    Uiso  ? Al
   Al16       1.0     0.216274     0.543489     0.655053    Uiso  ? Al
   Al17       1.0     0.778781     0.427480     0.400158    Uiso  ? Al
   Al18       1.0     0.890596     0.536156     0.154127    Uiso  ? Al
   Al19       1.0     0.442926     0.423211     0.906912    Uiso  ? Al
   Al20       1.0     0.557197     0.534216     0.650805    Uiso  ? Al
   Al21       1.0     0.109312     0.758592     0.401251    Uiso  ? Al
   Al22       1.0     0.215418     0.875704     0.158188    Uiso  ? Al
   Al23       1.0     0.784584     0.759394     0.907577    Uiso  ? Al
   Al24       1.0     0.902142     0.865754     0.655300    Uiso  ? Al
   Al25       1.0     0.443550     0.754810     0.396041    Uiso  ? Al
   Al26       1.0     0.558179     0.871864     0.164985    Uiso  ? Al
   Al27       1.0     0.105270     0.760941     0.905753    Uiso  ? Al
   Al28       1.0     0.210150     0.876317     0.647130    Uiso  ? Al
   Al29       1.0     0.790314     0.754005     0.395602    Uiso  ? Al
   Al30       1.0     0.891318     0.873658     0.152044    Uiso  ? Al
   Mg1        1.0     0.432667     0.100878     0.387353    Uiso  ? Mg
   Mg2        1.0     0.560164     0.205448     0.164814    Uiso  ? Mg
   Mg3        1.0     0.435645     0.439470     0.393903    Uiso  ? Mg
   Hf1        1.0     0.558277     0.209554     0.620667    Uiso  ? Hf
   Hf2        1.0     0.441018     0.761838     0.902446    Uiso  ? Hf
   Hf3        1.0     0.560371     0.868302     0.629645    Uiso  ? Hf
   N1         1.0     0.200434     0.216889     0.339237    Uiso  ? N
   N2         1.0     0.110154     0.093017     0.094681    Uiso  ? N
   N3         1.0     0.889085     0.206491     0.844793    Uiso  ? N
   N4         1.0     0.808488     0.079268     0.595751    Uiso  ? N
   N5         1.0     0.573427     0.198563     0.383826    Uiso  ? N
   N6         1.0     0.437482     0.086166     0.101653    Uiso  ? N
   N7         1.0     0.220626     0.205367     0.849133    Uiso  ? N
   N8         1.0     0.110765     0.096440     0.595096    Uiso  ? N
   N9         1.0     0.891297     0.205521     0.344582    Uiso  ? N
   N10        1.0     0.792442     0.087671     0.093504    Uiso  ? N
   N11        1.0     0.557239     0.203735     0.847993    Uiso  ? N
   N12        1.0     0.419719     0.104689     0.598805    Uiso  ? N
   N13        1.0     0.202261     0.547424     0.340395    Uiso  ? N
   N14        1.0     0.108590     0.429078     0.092643    Uiso  ? N
   N15        1.0     0.887660     0.539566     0.845331    Uiso  ? N
   N16        1.0     0.777686     0.428207     0.595501    Uiso  ? N
   N17        1.0     0.565707     0.543124     0.343421    Uiso  ? N
   N18        1.0     0.435903     0.443475     0.095893    Uiso  ? N
   N19        1.0     0.219529     0.540411     0.847384    Uiso  ? N
   N20        1.0     0.110598     0.427790     0.596878    Uiso  ? N
   N21        1.0     0.889426     0.536387     0.344555    Uiso  ? N
   N22        1.0     0.778679     0.426970     0.094791    Uiso  ? N
   N23        1.0     0.564975     0.523754     0.843405    Uiso  ? N
   N24        1.0     0.429271     0.450699     0.604294    Uiso  ? N
   N25        1.0     0.220533     0.872881     0.349032    Uiso  ? N
   N26        1.0     0.110836     0.762755     0.094755    Uiso  ? N
   N27        1.0     0.889075     0.870563     0.846154    Uiso  ? N
   N28        1.0     0.803946     0.749572     0.589255    Uiso  ? N
   N29        1.0     0.565787     0.856203     0.360687    Uiso  ? N
   N30        1.0     0.443308     0.763085     0.108648    Uiso  ? N
   N31        1.0     0.203636     0.880924     0.840424    Uiso  ? N
   N32        1.0     0.112191     0.759000     0.593762    Uiso  ? N
   N33        1.0     0.892703     0.870929     0.342397    Uiso  ? N
   N34        1.0     0.777245     0.760945     0.099018    Uiso  ? N
   N35        1.0     0.565316     0.877484     0.843752    Uiso  ? N
   N36        1.0     0.431918     0.753796     0.598409    Uiso  ? N
