
#======================================================================
# CRYSTAL DATA
#----------------------------------------------------------------------
data_VESTA_phase_1

_chemical_name_common                  'Al   Mg   Hf   N                      '
_cell_length_a                         9.693694
_cell_length_b                         9.655643
_cell_length_c                         9.865878
_cell_angle_alpha                      90.018715
_cell_angle_beta                       90.003105
_cell_angle_gamma                      60.122181
_cell_volume                           800.700796
_space_group_name_H-M_alt              'P 1'
_space_group_IT_number                 1

loop_
_space_group_symop_operation_xyz
   'x, y, z'

loop_
   _atom_site_label
   _atom_site_occupancy
   _atom_site_fract_x
   _atom_site_fract_y
   _atom_site_fract_z
   _atom_site_adp_type
   _atom_site_U_iso_or_equiv
   _atom_site_type_symbol
   Al1        1.0     0.108421     0.099003     0.325381    Uiso  ? Al
   Al2        1.0     0.217927     0.206766     0.075286    Uiso  ? Al
   Al3        1.0     0.786724     0.090282     0.831690    Uiso  ? Al
   Al4        1.0     0.894434     0.204183     0.572927    Uiso  ? Al
   Al5        1.0     0.104283     0.100322     0.824487    Uiso  ? Al
   Al6        1.0     0.210429     0.212018     0.572713    Uiso  ? Al
   Al7        1.0     0.783060     0.092346     0.322182    Uiso  ? Al
   Al8        1.0     0.891708     0.204621     0.077230    Uiso  ? Al
   Al9        1.0     0.438755     0.101359     0.848277    Uiso  ? Al
   Al10       1.0     0.107491     0.430147     0.324951    Uiso  ? Al
   Al11       1.0     0.220496     0.540063     0.075754    Uiso  ? Al
   Al12       1.0     0.784248     0.421973     0.824120    Uiso  ? Al
   Al13       1.0     0.895418     0.533576     0.572438    Uiso  ? Al
   Al14       1.0     0.561536     0.527497     0.081793    Uiso  ? Al
   Al15       1.0     0.109559     0.428112     0.826106    Uiso  ? Al
   Al16       1.0     0.214662     0.545081     0.574366    Uiso  ? Al
   Al17       1.0     0.778963     0.428268     0.326917    Uiso  ? Al
   Al18       1.0     0.890487     0.536152     0.076002    Uiso  ? Al
   Al19       1.0     0.440634     0.428727     0.838294    Uiso  ? Al
   Al20       1.0     0.554525     0.539134     0.568606    Uiso  ? Al
   Al21       1.0     0.109788     0.758007     0.324911    Uiso  ? Al
   Al22       1.0     0.209128     0.878713     0.083126    Uiso  ? Al
   Al23       1.0     0.791043     0.755799     0.829002    Uiso  ? Al
   Al24       1.0     0.899746     0.868615     0.571902    Uiso  ? Al
   Al25       1.0     0.445113     0.757526     0.314928    Uiso  ? Al
   Al26       1.0     0.561265     0.873674     0.079589    Uiso  ? Al
   Al27       1.0     0.104543     0.762016     0.824996    Uiso  ? Al
   Al28       1.0     0.214933     0.874029     0.570441    Uiso  ? Al
   Al29       1.0     0.783533     0.757022     0.321519    Uiso  ? Al
   Al30       1.0     0.892616     0.871318     0.077503    Uiso  ? Al
   Mg1        1.0     0.438887     0.100854     0.315312    Uiso  ? Mg
   Mg2        1.0     0.560729     0.205061     0.076825    Uiso  ? Mg
   Mg3        1.0     0.440119     0.430295     0.322558    Uiso  ? Mg
   Hf1        1.0     0.557300     0.209549     0.593436    Uiso  ? Hf
   Hf2        1.0     0.440124     0.758661     0.850734    Uiso  ? Hf
   Hf3        1.0     0.557491     0.868216     0.577450    Uiso  ? Hf
   N1         1.0     0.205920     0.215000     0.383033    Uiso  ? N
   N2         1.0     0.109390     0.097035     0.132561    Uiso  ? N
   N3         1.0     0.890208     0.206998     0.882198    Uiso  ? N
   N4         1.0     0.802579     0.082097     0.637237    Uiso  ? N
   N5         1.0     0.573223     0.195755     0.385976    Uiso  ? N
   N6         1.0     0.436418     0.089401     0.104267    Uiso  ? N
   N7         1.0     0.214075     0.208732     0.880471    Uiso  ? N
   N8         1.0     0.111157     0.092953     0.630574    Uiso  ? N
   N9         1.0     0.889835     0.205709     0.381342    Uiso  ? N
   N10        1.0     0.796384     0.085552     0.130403    Uiso  ? N
   N11        1.0     0.560606     0.204175     0.853431    Uiso  ? N
   N12        1.0     0.422420     0.101200     0.641466    Uiso  ? N
   N13        1.0     0.205059     0.546246     0.385033    Uiso  ? N
   N14        1.0     0.109241     0.428676     0.129402    Uiso  ? N
   N15        1.0     0.889135     0.536990     0.881105    Uiso  ? N
   N16        1.0     0.776980     0.428334     0.629363    Uiso  ? N
   N17        1.0     0.562195     0.547171     0.379040    Uiso  ? N
   N18        1.0     0.434856     0.440988     0.114731    Uiso  ? N
   N19        1.0     0.216543     0.542382     0.879498    Uiso  ? N
   N20        1.0     0.109752     0.428671     0.633357    Uiso  ? N
   N21        1.0     0.888226     0.539603     0.380126    Uiso  ? N
   N22        1.0     0.780767     0.426051     0.132523    Uiso  ? N
   N23        1.0     0.570986     0.518091     0.885304    Uiso  ? N
   N24        1.0     0.430872     0.452209     0.637143    Uiso  ? N
   N25        1.0     0.223797     0.871482     0.375469    Uiso  ? N
   N26        1.0     0.109819     0.759562     0.132319    Uiso  ? N
   N27        1.0     0.890875     0.870348     0.883700    Uiso  ? N
   N28        1.0     0.797690     0.752614     0.634141    Uiso  ? N
   N29        1.0     0.561829     0.858678     0.369168    Uiso  ? N
   N30        1.0     0.443753     0.760658     0.111624    Uiso  ? N
   N31        1.0     0.197427     0.884611     0.887660    Uiso  ? N
   N32        1.0     0.111675     0.762977     0.631789    Uiso  ? N
   N33        1.0     0.890018     0.871073     0.379958    Uiso  ? N
   N34        1.0     0.781216     0.758893     0.127874    Uiso  ? N
   N35        1.0     0.570070     0.873651     0.873593    Uiso  ? N
   N36        1.0     0.432390     0.755793     0.635297    Uiso  ? N
