
#======================================================================
# CRYSTAL DATA
#----------------------------------------------------------------------
data_VESTA_phase_1

_chemical_name_common                  'Al   Mg   Hf   N                      '
_cell_length_a                         10.056759
_cell_length_b                         10.005589
_cell_length_c                         8.814246
_cell_angle_alpha                      90.066689
_cell_angle_beta                       90.028000
_cell_angle_gamma                      60.082905
_cell_volume                           768.738077
_space_group_name_H-M_alt              'P 1'
_space_group_IT_number                 1

loop_
_space_group_symop_operation_xyz
   'x, y, z'

loop_
   _atom_site_label
   _atom_site_occupancy
   _atom_site_fract_x
   _atom_site_fract_y
   _atom_site_fract_z
   _atom_site_adp_type
   _atom_site_U_iso_or_equiv
   _atom_site_type_symbol
   Al1        1.0     0.106471     0.099633     0.366312    Uiso  ? Al
   Al2        1.0     0.215660     0.208181     0.120194    Uiso  ? Al
   Al3        1.0     0.783193     0.092289     0.868055    Uiso  ? Al
   Al4        1.0     0.894033     0.204503     0.617195    Uiso  ? Al
   Al5        1.0     0.107529     0.098622     0.867997    Uiso  ? Al
   Al6        1.0     0.212747     0.210259     0.613184    Uiso  ? Al
   Al7        1.0     0.785553     0.091157     0.338128    Uiso  ? Al
   Al8        1.0     0.892674     0.205520     0.112956    Uiso  ? Al
   Al9        1.0     0.438898     0.100201     0.873635    Uiso  ? Al
   Al10       1.0     0.104773     0.430686     0.370901    Uiso  ? Al
   Al11       1.0     0.217608     0.540711     0.121611    Uiso  ? Al
   Al12       1.0     0.780517     0.424445     0.866561    Uiso  ? Al
   Al13       1.0     0.892633     0.535953     0.619654    Uiso  ? Al
   Al14       1.0     0.559677     0.532545     0.126109    Uiso  ? Al
   Al15       1.0     0.111814     0.427724     0.863767    Uiso  ? Al
   Al16       1.0     0.217756     0.543194     0.611969    Uiso  ? Al
   Al17       1.0     0.783169     0.426320     0.365081    Uiso  ? Al
   Al18       1.0     0.892246     0.534017     0.115433    Uiso  ? Al
   Al19       1.0     0.440352     0.428535     0.869986    Uiso  ? Al
   Al20       1.0     0.557658     0.534840     0.593271    Uiso  ? Al
   Al21       1.0     0.106933     0.760348     0.366144    Uiso  ? Al
   Al22       1.0     0.212948     0.876776     0.123032    Uiso  ? Al
   Al23       1.0     0.784883     0.757890     0.875784    Uiso  ? Al
   Al24       1.0     0.898770     0.868160     0.619627    Uiso  ? Al
   Al25       1.0     0.442410     0.758747     0.347509    Uiso  ? Al
   Al26       1.0     0.557293     0.873026     0.121718    Uiso  ? Al
   Al27       1.0     0.108531     0.758125     0.869541    Uiso  ? Al
   Al28       1.0     0.211175     0.876448     0.605850    Uiso  ? Al
   Al29       1.0     0.790578     0.754096     0.352205    Uiso  ? Al
   Al30       1.0     0.894624     0.870568     0.112177    Uiso  ? Al
   Mg1        1.0     0.436127     0.102804     0.341150    Uiso  ? Mg
   Mg2        1.0     0.557570     0.205834     0.107961    Uiso  ? Mg
   Mg3        1.0     0.437767     0.432718     0.347165    Uiso  ? Mg
   Hf1        1.0     0.560091     0.209196     0.597143    Uiso  ? Hf
   Hf2        1.0     0.441318     0.757029     0.860302    Uiso  ? Hf
   Hf3        1.0     0.561142     0.871117     0.592167    Uiso  ? Hf
   N1         1.0     0.202445     0.217014     0.342244    Uiso  ? N
   N2         1.0     0.110879     0.093747     0.091561    Uiso  ? N
   N3         1.0     0.891202     0.207567     0.844163    Uiso  ? N
   N4         1.0     0.799845     0.083269     0.607162    Uiso  ? N
   N5         1.0     0.574048     0.197306     0.353689    Uiso  ? N
   N6         1.0     0.433127     0.087048     0.092896    Uiso  ? N
   N7         1.0     0.219134     0.205681     0.839487    Uiso  ? N
   N8         1.0     0.109909     0.094929     0.590454    Uiso  ? N
   N9         1.0     0.890057     0.206178     0.341243    Uiso  ? N
   N10        1.0     0.796388     0.086312     0.093505    Uiso  ? N
   N11        1.0     0.556774     0.204075     0.852138    Uiso  ? N
   N12        1.0     0.426728     0.104344     0.599045    Uiso  ? N
   N13        1.0     0.202856     0.546261     0.343432    Uiso  ? N
   N14        1.0     0.110040     0.428160     0.084848    Uiso  ? N
   N15        1.0     0.886837     0.539911     0.843356    Uiso  ? N
   N16        1.0     0.780567     0.427048     0.591465    Uiso  ? N
   N17        1.0     0.565166     0.543663     0.350161    Uiso  ? N
   N18        1.0     0.433303     0.446521     0.092352    Uiso  ? N
   N19        1.0     0.219418     0.540623     0.838193    Uiso  ? N
   N20        1.0     0.108188     0.429326     0.596248    Uiso  ? N
   N21        1.0     0.890320     0.536384     0.337843    Uiso  ? N
   N22        1.0     0.777711     0.427468     0.092134    Uiso  ? N
   N23        1.0     0.565619     0.522350     0.839413    Uiso  ? N
   N24        1.0     0.433643     0.445201     0.600309    Uiso  ? N
   N25        1.0     0.220198     0.873165     0.345967    Uiso  ? N
   N26        1.0     0.112477     0.760490     0.091723    Uiso  ? N
   N27        1.0     0.890966     0.867206     0.847009    Uiso  ? N
   N28        1.0     0.799762     0.751970     0.584866    Uiso  ? N
   N29        1.0     0.565068     0.857322     0.345240    Uiso  ? N
   N30        1.0     0.442041     0.761298     0.105842    Uiso  ? N
   N31        1.0     0.203761     0.880177     0.839254    Uiso  ? N
   N32        1.0     0.110655     0.761692     0.589484    Uiso  ? N
   N33        1.0     0.891714     0.871947     0.336981    Uiso  ? N
   N34        1.0     0.779204     0.759891     0.097843    Uiso  ? N
   N35        1.0     0.566395     0.873488     0.845535    Uiso  ? N
   N36        1.0     0.433938     0.758093     0.598439    Uiso  ? N
