
#======================================================================
# CRYSTAL DATA
#----------------------------------------------------------------------
data_VESTA_phase_1

_chemical_name_common                  'Al   Mg   Hf   N                      '
_cell_length_a                         9.622575
_cell_length_b                         9.594261
_cell_length_c                         10.052663
_cell_angle_alpha                      89.951180
_cell_angle_beta                       89.989784
_cell_angle_gamma                      60.098927
_cell_volume                           804.537830
_space_group_name_H-M_alt              'P 1'
_space_group_IT_number                 1

loop_
_space_group_symop_operation_xyz
   'x, y, z'

loop_
   _atom_site_label
   _atom_site_occupancy
   _atom_site_fract_x
   _atom_site_fract_y
   _atom_site_fract_z
   _atom_site_adp_type
   _atom_site_U_iso_or_equiv
   _atom_site_type_symbol
   Al1        1.0     0.109344     0.098528     0.305969    Uiso  ? Al
   Al2        1.0     0.219761     0.206127     0.055892    Uiso  ? Al
   Al3        1.0     0.786608     0.090405     0.810566    Uiso  ? Al
   Al4        1.0     0.894762     0.204403     0.553108    Uiso  ? Al
   Al5        1.0     0.103590     0.100784     0.805978    Uiso  ? Al
   Al6        1.0     0.209885     0.211925     0.553810    Uiso  ? Al
   Al7        1.0     0.782574     0.092215     0.303937    Uiso  ? Al
   Al8        1.0     0.890973     0.204376     0.059327    Uiso  ? Al
   Al9        1.0     0.438115     0.101063     0.820943    Uiso  ? Al
   Al10       1.0     0.108342     0.429486     0.306417    Uiso  ? Al
   Al11       1.0     0.222141     0.539186     0.057300    Uiso  ? Al
   Al12       1.0     0.784048     0.421834     0.805854    Uiso  ? Al
   Al13       1.0     0.895449     0.533298     0.553351    Uiso  ? Al
   Al14       1.0     0.559968     0.528556     0.061531    Uiso  ? Al
   Al15       1.0     0.109450     0.428548     0.807080    Uiso  ? Al
   Al16       1.0     0.213961     0.545705     0.554569    Uiso  ? Al
   Al17       1.0     0.778828     0.428389     0.307251    Uiso  ? Al
   Al18       1.0     0.890658     0.536333     0.057096    Uiso  ? Al
   Al19       1.0     0.439708     0.429860     0.813412    Uiso  ? Al
   Al20       1.0     0.555610     0.538824     0.549388    Uiso  ? Al
   Al21       1.0     0.110408     0.757892     0.305520    Uiso  ? Al
   Al22       1.0     0.211053     0.877869     0.063348    Uiso  ? Al
   Al23       1.0     0.789380     0.757052     0.810210    Uiso  ? Al
   Al24       1.0     0.899834     0.868002     0.552501    Uiso  ? Al
   Al25       1.0     0.445302     0.756777     0.295479    Uiso  ? Al
   Al26       1.0     0.559831     0.875081     0.060190    Uiso  ? Al
   Al27       1.0     0.104191     0.762102     0.806428    Uiso  ? Al
   Al28       1.0     0.214243     0.874357     0.551443    Uiso  ? Al
   Al29       1.0     0.784014     0.756652     0.300984    Uiso  ? Al
   Al30       1.0     0.892022     0.872102     0.058749    Uiso  ? Al
   Mg1        1.0     0.439504     0.101617     0.295522    Uiso  ? Mg
   Mg2        1.0     0.559348     0.205665     0.052619    Uiso  ? Mg
   Mg3        1.0     0.441860     0.428919     0.304362    Uiso  ? Mg
   Hf1        1.0     0.557536     0.209239     0.573918    Uiso  ? Hf
   Hf2        1.0     0.440351     0.759593     0.827124    Uiso  ? Hf
   Hf3        1.0     0.558127     0.867455     0.552544    Uiso  ? Hf
   N1         1.0     0.206545     0.214393     0.367868    Uiso  ? N
   N2         1.0     0.109895     0.096802     0.115793    Uiso  ? N
   N3         1.0     0.889369     0.206743     0.866497    Uiso  ? N
   N4         1.0     0.803312     0.081711     0.619798    Uiso  ? N
   N5         1.0     0.573782     0.194620     0.372311    Uiso  ? N
   N6         1.0     0.436620     0.090165     0.092007    Uiso  ? N
   N7         1.0     0.214934     0.208395     0.863359    Uiso  ? N
   N8         1.0     0.110948     0.093035     0.614807    Uiso  ? N
   N9         1.0     0.890114     0.205635     0.364516    Uiso  ? N
   N10        1.0     0.794565     0.086178     0.115405    Uiso  ? N
   N11        1.0     0.559367     0.204948     0.833357    Uiso  ? N
   N12        1.0     0.423016     0.098875     0.623742    Uiso  ? N
   N13        1.0     0.205537     0.546149     0.368887    Uiso  ? N
   N14        1.0     0.109792     0.428258     0.113311    Uiso  ? N
   N15        1.0     0.888725     0.537472     0.864628    Uiso  ? N
   N16        1.0     0.777411     0.427822     0.613639    Uiso  ? N
   N17        1.0     0.562871     0.547072     0.364035    Uiso  ? N
   N18        1.0     0.435901     0.440129     0.101613    Uiso  ? N
   N19        1.0     0.217441     0.542064     0.863127    Uiso  ? N
   N20        1.0     0.110141     0.428607     0.616998    Uiso  ? N
   N21        1.0     0.888367     0.539491     0.363842    Uiso  ? N
   N22        1.0     0.780005     0.426675     0.115580    Uiso  ? N
   N23        1.0     0.569284     0.518714     0.868044    Uiso  ? N
   N24        1.0     0.430537     0.453097     0.618880    Uiso  ? N
   N25        1.0     0.223815     0.871464     0.359823    Uiso  ? N
   N26        1.0     0.110200     0.759643     0.115583    Uiso  ? N
   N27        1.0     0.890099     0.871272     0.867199    Uiso  ? N
   N28        1.0     0.796240     0.753024     0.618021    Uiso  ? N
   N29        1.0     0.562167     0.858571     0.349624    Uiso  ? N
   N30        1.0     0.443929     0.760346     0.096250    Uiso  ? N
   N31        1.0     0.198118     0.884402     0.870786    Uiso  ? N
   N32        1.0     0.111538     0.762757     0.615901    Uiso  ? N
   N33        1.0     0.890271     0.870453     0.363609    Uiso  ? N
   N34        1.0     0.781374     0.758839     0.110864    Uiso  ? N
   N35        1.0     0.568778     0.875624     0.860004    Uiso  ? N
   N36        1.0     0.433332     0.756091     0.616820    Uiso  ? N
