
#======================================================================
# CRYSTAL DATA
#----------------------------------------------------------------------
data_VESTA_phase_1

_chemical_name_common                  'Al   Mg   Hf   N                      '
_cell_length_a                         10.081618
_cell_length_b                         10.031671
_cell_length_c                         8.735755
_cell_angle_alpha                      90.076935
_cell_angle_beta                       90.050224
_cell_angle_gamma                      60.088291
_cell_volume                           765.807968
_space_group_name_H-M_alt              'P 1'
_space_group_IT_number                 1

loop_
_space_group_symop_operation_xyz
   'x, y, z'

loop_
   _atom_site_label
   _atom_site_occupancy
   _atom_site_fract_x
   _atom_site_fract_y
   _atom_site_fract_z
   _atom_site_adp_type
   _atom_site_U_iso_or_equiv
   _atom_site_type_symbol
   Al1        1.0     0.105635     0.100195     0.340987    Uiso  ? Al
   Al2        1.0     0.217339     0.205863     0.096573    Uiso  ? Al
   Al3        1.0     0.784317     0.091074     0.859049    Uiso  ? Al
   Al4        1.0     0.893338     0.202723     0.593839    Uiso  ? Al
   Al5        1.0     0.107907     0.098246     0.842000    Uiso  ? Al
   Al6        1.0     0.211277     0.212335     0.588561    Uiso  ? Al
   Al7        1.0     0.785347     0.091964     0.326468    Uiso  ? Al
   Al8        1.0     0.893038     0.206441     0.087884    Uiso  ? Al
   Al9        1.0     0.438949     0.100611     0.869623    Uiso  ? Al
   Al10       1.0     0.105584     0.431068     0.338154    Uiso  ? Al
   Al11       1.0     0.218762     0.541531     0.096244    Uiso  ? Al
   Al12       1.0     0.781450     0.424412     0.840144    Uiso  ? Al
   Al13       1.0     0.894870     0.534926     0.592737    Uiso  ? Al
   Al14       1.0     0.561141     0.530155     0.111523    Uiso  ? Al
   Al15       1.0     0.110740     0.427464     0.846462    Uiso  ? Al
   Al16       1.0     0.216587     0.542657     0.591903    Uiso  ? Al
   Al17       1.0     0.782482     0.425862     0.344416    Uiso  ? Al
   Al18       1.0     0.889686     0.535188     0.091674    Uiso  ? Al
   Al19       1.0     0.441190     0.428153     0.866612    Uiso  ? Al
   Al20       1.0     0.556503     0.536304     0.580220    Uiso  ? Al
   Al21       1.0     0.107734     0.759044     0.341000    Uiso  ? Al
   Al22       1.0     0.210351     0.878134     0.104839    Uiso  ? Al
   Al23       1.0     0.787748     0.756615     0.853541    Uiso  ? Al
   Al24       1.0     0.897704     0.870749     0.592055    Uiso  ? Al
   Al25       1.0     0.443442     0.758575     0.337332    Uiso  ? Al
   Al26       1.0     0.558448     0.873305     0.113156    Uiso  ? Al
   Al27       1.0     0.107244     0.760029     0.842842    Uiso  ? Al
   Al28       1.0     0.213826     0.875104     0.582708    Uiso  ? Al
   Al29       1.0     0.787908     0.755427     0.336381    Uiso  ? Al
   Al30       1.0     0.894639     0.869457     0.090942    Uiso  ? Al
   Mg1        1.0     0.436168     0.102568     0.337112    Uiso  ? Mg
   Mg2        1.0     0.557705     0.205269     0.105240    Uiso  ? Mg
   Mg3        1.0     0.437440     0.432514     0.340124    Uiso  ? Mg
   Hf1        1.0     0.559755     0.209671     0.600008    Uiso  ? Hf
   Hf2        1.0     0.440705     0.756707     0.861603    Uiso  ? Hf
   Hf3        1.0     0.560125     0.871101     0.593806    Uiso  ? Hf
   N1         1.0     0.203378     0.216513     0.361174    Uiso  ? N
   N2         1.0     0.108197     0.096355     0.114674    Uiso  ? N
   N3         1.0     0.891685     0.208407     0.861355    Uiso  ? N
   N4         1.0     0.798263     0.083963     0.626898    Uiso  ? N
   N5         1.0     0.574672     0.196804     0.357543    Uiso  ? N
   N6         1.0     0.435024     0.086990     0.095647    Uiso  ? N
   N7         1.0     0.217582     0.206594     0.863480    Uiso  ? N
   N8         1.0     0.112153     0.092210     0.612614    Uiso  ? N
   N9         1.0     0.889179     0.204454     0.366619    Uiso  ? N
   N10        1.0     0.797654     0.085912     0.102387    Uiso  ? N
   N11        1.0     0.557553     0.203832     0.856019    Uiso  ? N
   N12        1.0     0.425794     0.104539     0.612898    Uiso  ? N
   N13        1.0     0.204431     0.545711     0.363475    Uiso  ? N
   N14        1.0     0.108529     0.429020     0.107779    Uiso  ? N
   N15        1.0     0.887826     0.537324     0.862957    Uiso  ? N
   N16        1.0     0.777197     0.428638     0.609859    Uiso  ? N
   N17        1.0     0.563802     0.544104     0.355455    Uiso  ? N
   N18        1.0     0.433903     0.443622     0.097085    Uiso  ? N
   N19        1.0     0.217773     0.541520     0.861208    Uiso  ? N
   N20        1.0     0.109499     0.428645     0.618177    Uiso  ? N
   N21        1.0     0.889220     0.538911     0.362128    Uiso  ? N
   N22        1.0     0.781311     0.424897     0.115694    Uiso  ? N
   N23        1.0     0.567799     0.522130     0.865909    Uiso  ? N
   N24        1.0     0.434133     0.447005     0.615249    Uiso  ? N
   N25        1.0     0.221065     0.872780     0.355828    Uiso  ? N
   N26        1.0     0.109907     0.760504     0.115009    Uiso  ? N
   N27        1.0     0.892202     0.867600     0.865352    Uiso  ? N
   N28        1.0     0.797582     0.753299     0.613333    Uiso  ? N
   N29        1.0     0.565147     0.857947     0.348656    Uiso  ? N
   N30        1.0     0.442299     0.761911     0.111068    Uiso  ? N
   N31        1.0     0.203375     0.880671     0.870059    Uiso  ? N
   N32        1.0     0.112156     0.762806     0.612396    Uiso  ? N
   N33        1.0     0.889494     0.873223     0.361471    Uiso  ? N
   N34        1.0     0.780731     0.759375     0.107902    Uiso  ? N
   N35        1.0     0.565978     0.872497     0.854718    Uiso  ? N
   N36        1.0     0.433927     0.757193     0.606982    Uiso  ? N
