
#======================================================================
# CRYSTAL DATA
#----------------------------------------------------------------------
data_VESTA_phase_1

_chemical_name_common                  'Al   Mg   Hf   N                      '
_cell_length_a                         9.652836
_cell_length_b                         9.602757
_cell_length_c                         10.004433
_cell_angle_alpha                      90.014824
_cell_angle_beta                       90.045082
_cell_angle_gamma                      60.108738
_cell_volume                           803.986241
_space_group_name_H-M_alt              'P 1'
_space_group_IT_number                 1

loop_
_space_group_symop_operation_xyz
   'x, y, z'

loop_
   _atom_site_label
   _atom_site_occupancy
   _atom_site_fract_x
   _atom_site_fract_y
   _atom_site_fract_z
   _atom_site_adp_type
   _atom_site_U_iso_or_equiv
   _atom_site_type_symbol
   Al1        1.0     0.108481     0.099166     0.387859    Uiso  ? Al
   Al2        1.0     0.216750     0.207144     0.138649    Uiso  ? Al
   Al3        1.0     0.778922     0.094159     0.892248    Uiso  ? Al
   Al4        1.0     0.895881     0.205182     0.640412    Uiso  ? Al
   Al5        1.0     0.104360     0.099683     0.891781    Uiso  ? Al
   Al6        1.0     0.210878     0.211641     0.643276    Uiso  ? Al
   Al7        1.0     0.791569     0.088041     0.387230    Uiso  ? Al
   Al8        1.0     0.890648     0.203448     0.139321    Uiso  ? Al
   Al9        1.0     0.443429     0.100736     0.897350    Uiso  ? Al
   Al10       1.0     0.107250     0.429092     0.386756    Uiso  ? Al
   Al11       1.0     0.218425     0.541338     0.138926    Uiso  ? Al
   Al12       1.0     0.783219     0.422648     0.890888    Uiso  ? Al
   Al13       1.0     0.895235     0.533599     0.639011    Uiso  ? Al
   Al14       1.0     0.558746     0.534446     0.143806    Uiso  ? Al
   Al15       1.0     0.109981     0.428660     0.890414    Uiso  ? Al
   Al16       1.0     0.216290     0.543493     0.641290    Uiso  ? Al
   Al17       1.0     0.778796     0.427485     0.386402    Uiso  ? Al
   Al18       1.0     0.890613     0.536158     0.140369    Uiso  ? Al
   Al19       1.0     0.442940     0.423218     0.893153    Uiso  ? Al
   Al20       1.0     0.557213     0.534219     0.637049    Uiso  ? Al
   Al21       1.0     0.109330     0.758595     0.387497    Uiso  ? Al
   Al22       1.0     0.215438     0.875705     0.144421    Uiso  ? Al
   Al23       1.0     0.784596     0.759404     0.893810    Uiso  ? Al
   Al24       1.0     0.902157     0.865759     0.641541    Uiso  ? Al
   Al25       1.0     0.443562     0.754810     0.382283    Uiso  ? Al
   Al26       1.0     0.558198     0.871863     0.151228    Uiso  ? Al
   Al27       1.0     0.105290     0.760942     0.891993    Uiso  ? Al
   Al28       1.0     0.210161     0.876324     0.633372    Uiso  ? Al
   Al29       1.0     0.790340     0.754002     0.381844    Uiso  ? Al
   Al30       1.0     0.891338     0.873659     0.138288    Uiso  ? Al
   Mg1        1.0     0.432682     0.100895     0.373574    Uiso  ? Mg
   Mg2        1.0     0.560191     0.205448     0.151044    Uiso  ? Mg
   Mg3        1.0     0.435666     0.439470     0.380129    Uiso  ? Mg
   Hf1        1.0     0.558289     0.209565     0.606906    Uiso  ? Hf
   Hf2        1.0     0.441041     0.761850     0.888662    Uiso  ? Hf
   Hf3        1.0     0.560382     0.868319     0.615847    Uiso  ? Hf
   N1         1.0     0.200445     0.216896     0.325488    Uiso  ? N
   N2         1.0     0.110172     0.093021     0.080928    Uiso  ? N
   N3         1.0     0.889104     0.206496     0.831040    Uiso  ? N
   N4         1.0     0.808501     0.079274     0.582001    Uiso  ? N
   N5         1.0     0.573451     0.198566     0.370061    Uiso  ? N
   N6         1.0     0.437500     0.086167     0.087908    Uiso  ? N
   N7         1.0     0.220646     0.205370     0.835379    Uiso  ? N
   N8         1.0     0.110780     0.096446     0.581346    Uiso  ? N
   N9         1.0     0.891316     0.205524     0.330835    Uiso  ? N
   N10        1.0     0.792468     0.087671     0.079749    Uiso  ? N
   N11        1.0     0.557257     0.203741     0.834242    Uiso  ? N
   N12        1.0     0.419728     0.104711     0.585038    Uiso  ? N
   N13        1.0     0.202275     0.547427     0.326650    Uiso  ? N
   N14        1.0     0.108607     0.429081     0.078893    Uiso  ? N
   N15        1.0     0.887676     0.539571     0.831585    Uiso  ? N
   N16        1.0     0.777700     0.428214     0.581750    Uiso  ? N
   N17        1.0     0.565724     0.543132     0.329661    Uiso  ? N
   N18        1.0     0.435917     0.443479     0.082143    Uiso  ? N
   N19        1.0     0.219547     0.540413     0.833627    Uiso  ? N
   N20        1.0     0.110606     0.427799     0.583130    Uiso  ? N
   N21        1.0     0.889442     0.536390     0.330802    Uiso  ? N
   N22        1.0     0.778699     0.426970     0.081040    Uiso  ? N
   N23        1.0     0.564993     0.523755     0.829654    Uiso  ? N
   N24        1.0     0.429286     0.450706     0.590531    Uiso  ? N
   N25        1.0     0.220551     0.872883     0.335275    Uiso  ? N
   N26        1.0     0.110854     0.762755     0.081002    Uiso  ? N
   N27        1.0     0.889096     0.870566     0.832399    Uiso  ? N
   N28        1.0     0.803965     0.749574     0.575502    Uiso  ? N
   N29        1.0     0.565803     0.856207     0.346951    Uiso  ? N
   N30        1.0     0.443328     0.763091     0.094877    Uiso  ? N
   N31        1.0     0.203651     0.880930     0.826671    Uiso  ? N
   N32        1.0     0.112206     0.759007     0.580010    Uiso  ? N
   N33        1.0     0.892723     0.870931     0.328647    Uiso  ? N
   N34        1.0     0.777259     0.760951     0.085264    Uiso  ? N
   N35        1.0     0.565337     0.877498     0.829974    Uiso  ? N
   N36        1.0     0.431930     0.753802     0.584666    Uiso  ? N
