
#======================================================================
# CRYSTAL DATA
#----------------------------------------------------------------------
data_VESTA_phase_1

_chemical_name_common                  'Al   Mg   Hf   N                      '
_cell_length_a                         10.120417
_cell_length_b                         10.069801
_cell_length_c                         8.624223
_cell_angle_alpha                      90.073677
_cell_angle_beta                       90.041382
_cell_angle_gamma                      60.081337
_cell_volume                           761.771810
_space_group_name_H-M_alt              'P 1'
_space_group_IT_number                 1

loop_
_space_group_symop_operation_xyz
   'x, y, z'

loop_
   _atom_site_label
   _atom_site_occupancy
   _atom_site_fract_x
   _atom_site_fract_y
   _atom_site_fract_z
   _atom_site_adp_type
   _atom_site_U_iso_or_equiv
   _atom_site_type_symbol
   Al1        1.0     0.106622     0.099187     0.356889    Uiso  ? Al
   Al2        1.0     0.216696     0.207388     0.113184    Uiso  ? Al
   Al3        1.0     0.784018     0.091625     0.862910    Uiso  ? Al
   Al4        1.0     0.893402     0.204106     0.605456    Uiso  ? Al
   Al5        1.0     0.107515     0.098791     0.858316    Uiso  ? Al
   Al6        1.0     0.212570     0.210632     0.604761    Uiso  ? Al
   Al7        1.0     0.785038     0.091653     0.331916    Uiso  ? Al
   Al8        1.0     0.892678     0.205643     0.101923    Uiso  ? Al
   Al9        1.0     0.437964     0.101257     0.869596    Uiso  ? Al
   Al10       1.0     0.105217     0.430725     0.362608    Uiso  ? Al
   Al11       1.0     0.218514     0.540384     0.115292    Uiso  ? Al
   Al12       1.0     0.781027     0.424361     0.857163    Uiso  ? Al
   Al13       1.0     0.893000     0.535506     0.611476    Uiso  ? Al
   Al14       1.0     0.559597     0.531665     0.119023    Uiso  ? Al
   Al15       1.0     0.111481     0.427775     0.858765    Uiso  ? Al
   Al16       1.0     0.217525     0.543102     0.605375    Uiso  ? Al
   Al17       1.0     0.782215     0.426622     0.356039    Uiso  ? Al
   Al18       1.0     0.891657     0.534530     0.108639    Uiso  ? Al
   Al19       1.0     0.439905     0.428927     0.866578    Uiso  ? Al
   Al20       1.0     0.557782     0.535018     0.588783    Uiso  ? Al
   Al21       1.0     0.107462     0.760203     0.357829    Uiso  ? Al
   Al22       1.0     0.212409     0.877048     0.115890    Uiso  ? Al
   Al23       1.0     0.786241     0.757164     0.868453    Uiso  ? Al
   Al24       1.0     0.898183     0.869359     0.608987    Uiso  ? Al
   Al25       1.0     0.442956     0.758543     0.344469    Uiso  ? Al
   Al26       1.0     0.557484     0.873713     0.115400    Uiso  ? Al
   Al27       1.0     0.108088     0.758327     0.861820    Uiso  ? Al
   Al28       1.0     0.212212     0.875946     0.597643    Uiso  ? Al
   Al29       1.0     0.789059     0.754951     0.346735    Uiso  ? Al
   Al30       1.0     0.894378     0.870291     0.104756    Uiso  ? Al
   Mg1        1.0     0.436650     0.102342     0.339779    Uiso  ? Mg
   Mg2        1.0     0.557070     0.205912     0.105668    Uiso  ? Mg
   Mg3        1.0     0.438326     0.432573     0.344928    Uiso  ? Mg
   Hf1        1.0     0.560280     0.209211     0.598662    Uiso  ? Hf
   Hf2        1.0     0.440809     0.756700     0.860309    Uiso  ? Hf
   Hf3        1.0     0.561133     0.871154     0.593108    Uiso  ? Hf
   N1         1.0     0.203769     0.216140     0.349778    Uiso  ? N
   N2         1.0     0.110144     0.094574     0.100136    Uiso  ? N
   N3         1.0     0.891356     0.207803     0.852078    Uiso  ? N
   N4         1.0     0.798379     0.084119     0.616683    Uiso  ? N
   N5         1.0     0.574291     0.197034     0.353598    Uiso  ? N
   N6         1.0     0.433135     0.087428     0.093699    Uiso  ? N
   N7         1.0     0.218150     0.206575     0.846098    Uiso  ? N
   N8         1.0     0.110530     0.093815     0.598571    Uiso  ? N
   N9         1.0     0.889318     0.205569     0.352250    Uiso  ? N
   N10        1.0     0.796878     0.086007     0.097289    Uiso  ? N
   N11        1.0     0.556950     0.204135     0.854972    Uiso  ? N
   N12        1.0     0.427598     0.103851     0.606058    Uiso  ? N
   N13        1.0     0.204344     0.545800     0.350219    Uiso  ? N
   N14        1.0     0.109798     0.428239     0.092594    Uiso  ? N
   N15        1.0     0.887495     0.539027     0.849496    Uiso  ? N
   N16        1.0     0.779135     0.427674     0.599332    Uiso  ? N
   N17        1.0     0.564654     0.543715     0.352564    Uiso  ? N
   N18        1.0     0.433152     0.445705     0.094260    Uiso  ? N
   N19        1.0     0.218714     0.540726     0.844566    Uiso  ? N
   N20        1.0     0.108453     0.429321     0.601691    Uiso  ? N
   N21        1.0     0.889664     0.537438     0.345663    Uiso  ? N
   N22        1.0     0.778769     0.426698     0.100577    Uiso  ? N
   N23        1.0     0.565749     0.523011     0.849863    Uiso  ? N
   N24        1.0     0.434623     0.445202     0.606983    Uiso  ? N
   N25        1.0     0.220550     0.872989     0.350324    Uiso  ? N
   N26        1.0     0.111644     0.760403     0.099573    Uiso  ? N
   N27        1.0     0.891421     0.867169     0.853494    Uiso  ? N
   N28        1.0     0.797939     0.752905     0.594559    Uiso  ? N
   N29        1.0     0.565042     0.857749     0.345224    Uiso  ? N
   N30        1.0     0.441612     0.761532     0.109289    Uiso  ? N
   N31        1.0     0.204415     0.879802     0.849802    Uiso  ? N
   N32        1.0     0.111195     0.762126     0.596614    Uiso  ? N
   N33        1.0     0.890556     0.872862     0.346512    Uiso  ? N
   N34        1.0     0.780160     0.759652     0.101574    Uiso  ? N
   N35        1.0     0.566178     0.872321     0.852186    Uiso  ? N
   N36        1.0     0.434585     0.757894     0.599651    Uiso  ? N
