
#======================================================================
# CRYSTAL DATA
#----------------------------------------------------------------------
data_VESTA_phase_1

_chemical_name_common                  'Al   Mg   Hf   N '
_cell_length_a                         9.652318
_cell_length_b                         9.602546
_cell_length_c                         10.005666
_cell_angle_alpha                      90.014412
_cell_angle_beta                       90.044426
_cell_angle_gamma                      60.108055
_cell_volume                           804.019052
_space_group_name_H-M_alt              'P 1'
_space_group_IT_number                 1

loop_
_space_group_symop_operation_xyz
   'x, y, z'

loop_
   _atom_site_label
   _atom_site_occupancy
   _atom_site_fract_x
   _atom_site_fract_y
   _atom_site_fract_z
   _atom_site_adp_type
   _atom_site_U_iso_or_equiv
   _atom_site_type_symbol
   Al1        1.0     0.108470     0.099173     0.408064    Uiso  ? Al
   Al2        1.0     0.216734     0.207151     0.158853    Uiso  ? Al
   Al3        1.0     0.778871     0.094163     0.912461    Uiso  ? Al
   Al4        1.0     0.895866     0.205176     0.660622    Uiso  ? Al
   Al5        1.0     0.104324     0.099680     0.911993    Uiso  ? Al
   Al6        1.0     0.210858     0.211630     0.663491    Uiso  ? Al
   Al7        1.0     0.791551     0.088044     0.407439    Uiso  ? Al
   Al8        1.0     0.890616     0.203458     0.159529    Uiso  ? Al
   Al9        1.0     0.443378     0.100728     0.917543    Uiso  ? Al
   Al10       1.0     0.107250     0.429096     0.406953    Uiso  ? Al
   Al11       1.0     0.218414     0.541343     0.159131    Uiso  ? Al
   Al12       1.0     0.783196     0.422643     0.911098    Uiso  ? Al
   Al13       1.0     0.895225     0.533591     0.659203    Uiso  ? Al
   Al14       1.0     0.558722     0.534429     0.164010    Uiso  ? Al
   Al15       1.0     0.109948     0.428664     0.910624    Uiso  ? Al
   Al16       1.0     0.216276     0.543484     0.661498    Uiso  ? Al
   Al17       1.0     0.778781     0.427491     0.406606    Uiso  ? Al
   Al18       1.0     0.890589     0.536172     0.160589    Uiso  ? Al
   Al19       1.0     0.442915     0.423188     0.913342    Uiso  ? Al
   Al20       1.0     0.557203     0.534192     0.657269    Uiso  ? Al
   Al21       1.0     0.109314     0.758602     0.407700    Uiso  ? Al
   Al22       1.0     0.215407     0.875716     0.164645    Uiso  ? Al
   Al23       1.0     0.784560     0.759388     0.914034    Uiso  ? Al
   Al24       1.0     0.902133     0.865753     0.661752    Uiso  ? Al
   Al25       1.0     0.443562     0.754798     0.402475    Uiso  ? Al
   Al26       1.0     0.558157     0.871871     0.171413    Uiso  ? Al
   Al27       1.0     0.105240     0.760945     0.912206    Uiso  ? Al
   Al28       1.0     0.210146     0.876310     0.653568    Uiso  ? Al
   Al29       1.0     0.790290     0.754030     0.402045    Uiso  ? Al
   Al30       1.0     0.891297     0.873675     0.158501    Uiso  ? Al
   Mg1        1.0     0.432672     0.100841     0.393822    Uiso  ? Mg
   Mg2        1.0     0.560139     0.205446     0.171271    Uiso  ? Mg
   Mg3        1.0     0.435663     0.439460     0.400374    Uiso  ? Mg
   Hf1        1.0     0.558275     0.209514     0.627104    Uiso  ? Hf
   Hf2        1.0     0.440981     0.761810     0.908911    Uiso  ? Hf
   Hf3        1.0     0.560356     0.868270     0.636143    Uiso  ? Hf
   N1         1.0     0.200440     0.216898     0.345673    Uiso  ? N
   N2         1.0     0.110148     0.093026     0.101124    Uiso  ? N
   N3         1.0     0.889066     0.206494     0.851235    Uiso  ? N
   N4         1.0     0.808496     0.079264     0.602191    Uiso  ? N
   N5         1.0     0.573416     0.198548     0.390280    Uiso  ? N
   N6         1.0     0.437470     0.086169     0.108067    Uiso  ? N
   N7         1.0     0.220600     0.205375     0.855571    Uiso  ? N
   N8         1.0     0.110767     0.096438     0.601536    Uiso  ? N
   N9         1.0     0.891295     0.205529     0.351027    Uiso  ? N
   N10        1.0     0.792422     0.087689     0.099946    Uiso  ? N
   N11        1.0     0.557218     0.203714     0.854412    Uiso  ? N
   N12        1.0     0.419725     0.104636     0.605250    Uiso  ? N
   N13        1.0     0.202281     0.547434     0.346837    Uiso  ? N
   N14        1.0     0.108585     0.429094     0.099088    Uiso  ? N
   N15        1.0     0.887644     0.539568     0.851765    Uiso  ? N
   N16        1.0     0.777686     0.428210     0.601939    Uiso  ? N
   N17        1.0     0.565710     0.543114     0.349837    Uiso  ? N
   N18        1.0     0.435903     0.443462     0.102309    Uiso  ? N
   N19        1.0     0.219512     0.540418     0.853818    Uiso  ? N
   N20        1.0     0.110605     0.427784     0.603314    Uiso  ? N
   N21        1.0     0.889427     0.536405     0.351003    Uiso  ? N
   N22        1.0     0.778681     0.426979     0.101232    Uiso  ? N
   N23        1.0     0.564966     0.523734     0.849847    Uiso  ? N
   N24        1.0     0.429287     0.450668     0.610748    Uiso  ? N
   N25        1.0     0.220534     0.872891     0.355473    Uiso  ? N
   N26        1.0     0.110825     0.762767     0.101199    Uiso  ? N
   N27        1.0     0.889043     0.870566     0.852595    Uiso  ? N
   N28        1.0     0.803925     0.749583     0.595692    Uiso  ? N
   N29        1.0     0.565779     0.856197     0.367079    Uiso  ? N
   N30        1.0     0.443291     0.763079     0.115090    Uiso  ? N
   N31        1.0     0.203606     0.880927     0.846854    Uiso  ? N
   N32        1.0     0.112185     0.758995     0.600198    Uiso  ? N
   N33        1.0     0.892698     0.870941     0.348840    Uiso  ? N
   N34        1.0     0.777233     0.760956     0.105458    Uiso  ? N
   N35        1.0     0.565274     0.877457     0.850214    Uiso  ? N
   N36        1.0     0.431918     0.753758     0.604824    Uiso  ? N
