
#======================================================================
# CRYSTAL DATA
#----------------------------------------------------------------------
data_VESTA_phase_1

_chemical_name_common                  'Al   Mg   Hf   N                      '
_cell_length_a                         9.901909
_cell_length_b                         9.850047
_cell_length_c                         9.286823
_cell_angle_alpha                      90.048317
_cell_angle_beta                       90.031708
_cell_angle_gamma                      60.096127
_cell_volume                           785.189972
_space_group_name_H-M_alt              'P 1'
_space_group_IT_number                 1

loop_
_space_group_symop_operation_xyz
   'x, y, z'

loop_
   _atom_site_label
   _atom_site_occupancy
   _atom_site_fract_x
   _atom_site_fract_y
   _atom_site_fract_z
   _atom_site_adp_type
   _atom_site_U_iso_or_equiv
   _atom_site_type_symbol
   Al1        1.0     0.107223     0.100023     0.375371    Uiso  ? Al
   Al2        1.0     0.214208     0.208597     0.126755    Uiso  ? Al
   Al3        1.0     0.781942     0.092815     0.879941    Uiso  ? Al
   Al4        1.0     0.894813     0.204658     0.626634    Uiso  ? Al
   Al5        1.0     0.105872     0.098901     0.877435    Uiso  ? Al
   Al6        1.0     0.212302     0.210664     0.625899    Uiso  ? Al
   Al7        1.0     0.788951     0.089392     0.365640    Uiso  ? Al
   Al8        1.0     0.891839     0.204366     0.125823    Uiso  ? Al
   Al9        1.0     0.441646     0.098605     0.883101    Uiso  ? Al
   Al10       1.0     0.105283     0.430092     0.377787    Uiso  ? Al
   Al11       1.0     0.216336     0.541827     0.127958    Uiso  ? Al
   Al12       1.0     0.780918     0.423360     0.875812    Uiso  ? Al
   Al13       1.0     0.893254     0.535747     0.627775    Uiso  ? Al
   Al14       1.0     0.559843     0.534446     0.134457    Uiso  ? Al
   Al15       1.0     0.111218     0.428129     0.873068    Uiso  ? Al
   Al16       1.0     0.217620     0.543212     0.623559    Uiso  ? Al
   Al17       1.0     0.782803     0.426566     0.374561    Uiso  ? Al
   Al18       1.0     0.891786     0.534445     0.124312    Uiso  ? Al
   Al19       1.0     0.441893     0.426540     0.879644    Uiso  ? Al
   Al20       1.0     0.557829     0.533280     0.609255    Uiso  ? Al
   Al21       1.0     0.107820     0.759405     0.375241    Uiso  ? Al
   Al22       1.0     0.214350     0.876122     0.130218    Uiso  ? Al
   Al23       1.0     0.783366     0.759739     0.882075    Uiso  ? Al
   Al24       1.0     0.899803     0.867191     0.628563    Uiso  ? Al
   Al25       1.0     0.441483     0.757381     0.361609    Uiso  ? Al
   Al26       1.0     0.557772     0.870871     0.134546    Uiso  ? Al
   Al27       1.0     0.107039     0.759458     0.877885    Uiso  ? Al
   Al28       1.0     0.209215     0.877302     0.618115    Uiso  ? Al
   Al29       1.0     0.792941     0.752449     0.363749    Uiso  ? Al
   Al30       1.0     0.893630     0.872353     0.123873    Uiso  ? Al
   Mg1        1.0     0.434303     0.103757     0.346431    Uiso  ? Mg
   Mg2        1.0     0.560733     0.204594     0.120873    Uiso  ? Mg
   Mg3        1.0     0.436659     0.434440     0.354070    Uiso  ? Mg
   Hf1        1.0     0.557972     0.210228     0.595905    Uiso  ? Hf
   Hf2        1.0     0.442266     0.758701     0.864022    Uiso  ? Hf
   Hf3        1.0     0.560394     0.871603     0.592892    Uiso  ? Hf
   N1         1.0     0.199972     0.218123     0.329709    Uiso  ? N
   N2         1.0     0.110252     0.093364     0.081717    Uiso  ? N
   N3         1.0     0.889940     0.206492     0.832051    Uiso  ? N
   N4         1.0     0.803836     0.081344     0.582913    Uiso  ? N
   N5         1.0     0.574519     0.197411     0.355635    Uiso  ? N
   N6         1.0     0.434776     0.085857     0.090458    Uiso  ? N
   N7         1.0     0.220647     0.204718     0.833487    Uiso  ? N
   N8         1.0     0.110066     0.095987     0.581805    Uiso  ? N
   N9         1.0     0.891262     0.206542     0.331496    Uiso  ? N
   N10        1.0     0.796490     0.086153     0.082668    Uiso  ? N
   N11        1.0     0.557333     0.203620     0.842274    Uiso  ? N
   N12        1.0     0.422804     0.106349     0.585353    Uiso  ? N
   N13        1.0     0.200706     0.547331     0.331288    Uiso  ? N
   N14        1.0     0.109390     0.428603     0.076712    Uiso  ? N
   N15        1.0     0.886533     0.540362     0.834128    Uiso  ? N
   N16        1.0     0.781030     0.426931     0.582149    Uiso  ? N
   N17        1.0     0.566200     0.543567     0.339534    Uiso  ? N
   N18        1.0     0.434254     0.446388     0.086979    Uiso  ? N
   N19        1.0     0.220353     0.540322     0.831571    Uiso  ? N
   N20        1.0     0.108709     0.428934     0.586838    Uiso  ? N
   N21        1.0     0.890464     0.535639     0.329270    Uiso  ? N
   N22        1.0     0.777573     0.427110     0.081849    Uiso  ? N
   N23        1.0     0.565815     0.520907     0.825946    Uiso  ? N
   N24        1.0     0.430830     0.447137     0.587569    Uiso  ? N
   N25        1.0     0.220016     0.873216     0.336790    Uiso  ? N
   N26        1.0     0.111789     0.761558     0.081746    Uiso  ? N
   N27        1.0     0.889626     0.869245     0.834744    Uiso  ? N
   N28        1.0     0.802721     0.750393     0.574785    Uiso  ? N
   N29        1.0     0.565552     0.856143     0.346033    Uiso  ? N
   N30        1.0     0.443298     0.761578     0.094259    Uiso  ? N
   N31        1.0     0.202648     0.881059     0.828385    Uiso  ? N
   N32        1.0     0.110937     0.760661     0.581041    Uiso  ? N
   N33        1.0     0.893223     0.870640     0.328108    Uiso  ? N
   N34        1.0     0.777801     0.760843     0.088626    Uiso  ? N
   N35        1.0     0.566422     0.876360     0.830943    Uiso  ? N
   N36        1.0     0.432394     0.757200     0.593387    Uiso  ? N
