
#======================================================================
# CRYSTAL DATA
#----------------------------------------------------------------------
data_VESTA_phase_1

_chemical_name_common                  'Al   Mg   Hf   N                      '
_cell_length_a                         9.813829
_cell_length_b                         9.762662
_cell_length_c                         9.549407
_cell_angle_alpha                      90.030373
_cell_angle_beta                       90.033989
_cell_angle_gamma                      60.104336
_cell_volume                           793.175585
_space_group_name_H-M_alt              'P 1'
_space_group_IT_number                 1

loop_
_space_group_symop_operation_xyz
   'x, y, z'

loop_
   _atom_site_label
   _atom_site_occupancy
   _atom_site_fract_x
   _atom_site_fract_y
   _atom_site_fract_z
   _atom_site_adp_type
   _atom_site_U_iso_or_equiv
   _atom_site_type_symbol
   Al1        1.0     0.107842     0.099745     0.377922    Uiso  ? Al
   Al2        1.0     0.214353     0.208351     0.128779    Uiso  ? Al
   Al3        1.0     0.780975     0.093172     0.882035    Uiso  ? Al
   Al4        1.0     0.895149     0.204855     0.629266    Uiso  ? Al
   Al5        1.0     0.105065     0.099246     0.880704    Uiso  ? Al
   Al6        1.0     0.211819     0.211148     0.630519    Uiso  ? Al
   Al7        1.0     0.790499     0.088633     0.372849    Uiso  ? Al
   Al8        1.0     0.891469     0.203867     0.129186    Uiso  ? Al
   Al9        1.0     0.442916     0.098642     0.886728    Uiso  ? Al
   Al10       1.0     0.105827     0.429718     0.379218    Uiso  ? Al
   Al11       1.0     0.216475     0.541975     0.129825    Uiso  ? Al
   Al12       1.0     0.781838     0.422751     0.879219    Uiso  ? Al
   Al13       1.0     0.893847     0.535185     0.629993    Uiso  ? Al
   Al14       1.0     0.559373     0.535493     0.135319    Uiso  ? Al
   Al15       1.0     0.110735     0.428380     0.877265    Uiso  ? Al
   Al16       1.0     0.217343     0.543277     0.628031    Uiso  ? Al
   Al17       1.0     0.781305     0.427071     0.376909    Uiso  ? Al
   Al18       1.0     0.891244     0.535074     0.127964    Uiso  ? Al
   Al19       1.0     0.442444     0.425019     0.883486    Uiso  ? Al
   Al20       1.0     0.557897     0.532489     0.618791    Uiso  ? Al
   Al21       1.0     0.108582     0.758951     0.377761    Uiso  ? Al
   Al22       1.0     0.215579     0.875536     0.132567    Uiso  ? Al
   Al23       1.0     0.783088     0.760261     0.883627    Uiso  ? Al
   Al24       1.0     0.900609     0.866693     0.631141    Uiso  ? Al
   Al25       1.0     0.441455     0.755716     0.370546    Uiso  ? Al
   Al26       1.0     0.557900     0.870035     0.139476    Uiso  ? Al
   Al27       1.0     0.106214     0.760061     0.881004    Uiso  ? Al
   Al28       1.0     0.208524     0.877526     0.622539    Uiso  ? Al
   Al29       1.0     0.793246     0.752189     0.368827    Uiso  ? Al
   Al30       1.0     0.892876     0.872897     0.127372    Uiso  ? Al
   Mg1        1.0     0.433451     0.103625     0.351337    Uiso  ? Mg
   Mg2        1.0     0.561791     0.204292     0.129387    Uiso  ? Mg
   Mg3        1.0     0.436477     0.435977     0.359166    Uiso  ? Mg
   Hf1        1.0     0.557343     0.210586     0.596186    Uiso  ? Hf
   Hf2        1.0     0.442396     0.760074     0.867805    Uiso  ? Hf
   Hf3        1.0     0.560123     0.871579     0.595076    Uiso  ? Hf
   N1         1.0     0.199246     0.218242     0.324651    Uiso  ? N
   N2         1.0     0.110058     0.093183     0.078336    Uiso  ? N
   N3         1.0     0.889643     0.206382     0.828070    Uiso  ? N
   N4         1.0     0.805485     0.080563     0.578794    Uiso  ? N
   N5         1.0     0.574982     0.197429     0.357464    Uiso  ? N
   N6         1.0     0.435968     0.085433     0.088135    Uiso  ? N
   N7         1.0     0.221056     0.204642     0.831433    Uiso  ? N
   N8         1.0     0.110331     0.096238     0.578513    Uiso  ? N
   N9         1.0     0.891464     0.206186     0.328487    Uiso  ? N
   N10        1.0     0.795896     0.086275     0.077918    Uiso  ? N
   N11        1.0     0.557161     0.203706     0.836069    Uiso  ? N
   N12        1.0     0.420658     0.107226     0.579965    Uiso  ? N
   N13        1.0     0.200504     0.547598     0.326280    Uiso  ? N
   N14        1.0     0.108922     0.428891     0.074312    Uiso  ? N
   N15        1.0     0.886736     0.540194     0.830119    Uiso  ? N
   N16        1.0     0.779889     0.427427     0.578685    Uiso  ? N
   N17        1.0     0.566259     0.543898     0.331960    Uiso  ? N
   N18        1.0     0.434800     0.445510     0.083236    Uiso  ? N
   N19        1.0     0.220463     0.540209     0.829306    Uiso  ? N
   N20        1.0     0.109157     0.428680     0.582442    Uiso  ? N
   N21        1.0     0.890149     0.535735     0.326616    Uiso  ? N
   N22        1.0     0.778051     0.426816     0.078315    Uiso  ? N
   N23        1.0     0.565777     0.520817     0.823609    Uiso  ? N
   N24        1.0     0.429814     0.448788     0.583290    Uiso  ? N
   N25        1.0     0.220570     0.872850     0.332743    Uiso  ? N
   N26        1.0     0.111375     0.762041     0.078358    Uiso  ? N
   N27        1.0     0.889448     0.869725     0.830429    Uiso  ? N
   N28        1.0     0.803886     0.749786     0.571941    Uiso  ? N
   N29        1.0     0.565590     0.855606     0.346077    Uiso  ? N
   N30        1.0     0.443705     0.762206     0.088099    Uiso  ? N
   N31        1.0     0.202354     0.881383     0.824746    Uiso  ? N
   N32        1.0     0.111357     0.760153     0.577588    Uiso  ? N
   N33        1.0     0.893341     0.870618     0.325407    Uiso  ? N
   N34        1.0     0.777167     0.761156     0.084174    Uiso  ? N
   N35        1.0     0.566278     0.877721     0.824879    Uiso  ? N
   N36        1.0     0.431896     0.755942     0.588910    Uiso  ? N
