
#======================================================================
# CRYSTAL DATA
#----------------------------------------------------------------------
data_VESTA_phase_1

_chemical_name_common                  'Al   Mg   Hf   N                      '
_cell_length_a                         9.919497
_cell_length_b                         9.868093
_cell_length_c                         9.224771
_cell_angle_alpha                      90.082558
_cell_angle_beta                       90.047035
_cell_angle_gamma                      60.101288
_cell_volume                           782.800390
_space_group_name_H-M_alt              'P 1'
_space_group_IT_number                 1

loop_
_space_group_symop_operation_xyz
   'x, y, z'

loop_
   _atom_site_label
   _atom_site_occupancy
   _atom_site_fract_x
   _atom_site_fract_y
   _atom_site_fract_z
   _atom_site_adp_type
   _atom_site_U_iso_or_equiv
   _atom_site_type_symbol
   Al1        1.0     0.105780     0.100278     0.331324    Uiso  ? Al
   Al2        1.0     0.216141     0.206594     0.084486    Uiso  ? Al
   Al3        1.0     0.785024     0.090759     0.848028    Uiso  ? Al
   Al4        1.0     0.893667     0.202460     0.582587    Uiso  ? Al
   Al5        1.0     0.107192     0.098602     0.830452    Uiso  ? Al
   Al6        1.0     0.209930     0.213162     0.577171    Uiso  ? Al
   Al7        1.0     0.785578     0.091910     0.321804    Uiso  ? Al
   Al8        1.0     0.893192     0.206361     0.079112    Uiso  ? Al
   Al9        1.0     0.440894     0.099366     0.870170    Uiso  ? Al
   Al10       1.0     0.105489     0.431561     0.327772    Uiso  ? Al
   Al11       1.0     0.217269     0.542301     0.081960    Uiso  ? Al
   Al12       1.0     0.782270     0.423805     0.828173    Uiso  ? Al
   Al13       1.0     0.895751     0.534455     0.580305    Uiso  ? Al
   Al14       1.0     0.563230     0.528053     0.097428    Uiso  ? Al
   Al15       1.0     0.110421     0.427105     0.834521    Uiso  ? Al
   Al16       1.0     0.216129     0.543238     0.581743    Uiso  ? Al
   Al17       1.0     0.782157     0.426194     0.334711    Uiso  ? Al
   Al18       1.0     0.889510     0.535556     0.080391    Uiso  ? Al
   Al19       1.0     0.442150     0.427169     0.863176    Uiso  ? Al
   Al20       1.0     0.554237     0.538443     0.570865    Uiso  ? Al
   Al21       1.0     0.108281     0.758195     0.331459    Uiso  ? Al
   Al22       1.0     0.207689     0.879294     0.093115    Uiso  ? Al
   Al23       1.0     0.789824     0.755953     0.837510    Uiso  ? Al
   Al24       1.0     0.898521     0.870666     0.579893    Uiso  ? Al
   Al25       1.0     0.443248     0.758358     0.323927    Uiso  ? Al
   Al26       1.0     0.560032     0.872276     0.109408    Uiso  ? Al
   Al27       1.0     0.106267     0.761310     0.830312    Uiso  ? Al
   Al28       1.0     0.215423     0.873995     0.574181    Uiso  ? Al
   Al29       1.0     0.787389     0.755347     0.328208    Uiso  ? Al
   Al30       1.0     0.894394     0.869134     0.081450    Uiso  ? Al
   Mg1        1.0     0.435835     0.102893     0.330695    Uiso  ? Mg
   Mg2        1.0     0.559877     0.204143     0.099808    Uiso  ? Mg
   Mg3        1.0     0.436809     0.432436     0.330155    Uiso  ? Mg
   Hf1        1.0     0.558340     0.210546     0.598432    Uiso  ? Hf
   Hf2        1.0     0.441228     0.757647     0.859932    Uiso  ? Hf
   Hf3        1.0     0.558296     0.870101     0.589929    Uiso  ? Hf
   N1         1.0     0.202367     0.217331     0.371430    Uiso  ? N
   N2         1.0     0.107984     0.097189     0.125401    Uiso  ? N
   N3         1.0     0.891738     0.208487     0.871856    Uiso  ? N
   N4         1.0     0.800303     0.082946     0.635000    Uiso  ? N
   N5         1.0     0.574552     0.197234     0.367631    Uiso  ? N
   N6         1.0     0.436071     0.087356     0.096859    Uiso  ? N
   N7         1.0     0.216470     0.207030     0.874526    Uiso  ? N
   N8         1.0     0.112311     0.092100     0.622330    Uiso  ? N
   N9         1.0     0.889499     0.204375     0.375978    Uiso  ? N
   N10        1.0     0.798428     0.085367     0.113711    Uiso  ? N
   N11        1.0     0.559160     0.203147     0.854834    Uiso  ? N
   N12        1.0     0.423198     0.104890     0.620513    Uiso  ? N
   N13        1.0     0.203871     0.545901     0.375917    Uiso  ? N
   N14        1.0     0.108069     0.429524     0.119241    Uiso  ? N
   N15        1.0     0.888357     0.536678     0.872985    Uiso  ? N
   N16        1.0     0.775963     0.429276     0.619320    Uiso  ? N
   N17        1.0     0.562596     0.545416     0.363850    Uiso  ? N
   N18        1.0     0.433489     0.442133     0.100313    Uiso  ? N
   N19        1.0     0.215892     0.542684     0.871966    Uiso  ? N
   N20        1.0     0.109592     0.428402     0.627898    Uiso  ? N
   N21        1.0     0.889070     0.539283     0.373340    Uiso  ? N
   N22        1.0     0.783051     0.424400     0.127097    Uiso  ? N
   N23        1.0     0.571328     0.519988     0.880904    Uiso  ? N
   N24        1.0     0.432813     0.449886     0.626786    Uiso  ? N
   N25        1.0     0.222485     0.872025     0.364971    Uiso  ? N
   N26        1.0     0.109308     0.759846     0.125970    Uiso  ? N
   N27        1.0     0.892557     0.867806     0.875757    Uiso  ? N
   N28        1.0     0.799177     0.752554     0.625081    Uiso  ? N
   N29        1.0     0.563552     0.858180     0.355971    Uiso  ? N
   N30        1.0     0.442536     0.761781     0.110269    Uiso  ? N
   N31        1.0     0.200138     0.882676     0.881858    Uiso  ? N
   N32        1.0     0.112262     0.763273     0.622818    Uiso  ? N
   N33        1.0     0.889646     0.872799     0.372094    Uiso  ? N
   N34        1.0     0.781592     0.758649     0.119183    Uiso  ? N
   N35        1.0     0.567948     0.873158     0.855401    Uiso  ? N
   N36        1.0     0.432670     0.755910     0.623024    Uiso  ? N
