
#======================================================================
# CRYSTAL DATA
#----------------------------------------------------------------------
data_VESTA_phase_1

_chemical_name_common                  'Al   Mg   Hf   N                      '
_cell_length_a                         9.622574
_cell_length_b                         9.594261
_cell_length_c                         10.052654
_cell_angle_alpha                      89.951164
_cell_angle_beta                       89.989807
_cell_angle_gamma                      60.099026
_cell_volume                           804.537864
_space_group_name_H-M_alt              'P 1'
_space_group_IT_number                 1

loop_
_space_group_symop_operation_xyz
   'x, y, z'

loop_
   _atom_site_label
   _atom_site_occupancy
   _atom_site_fract_x
   _atom_site_fract_y
   _atom_site_fract_z
   _atom_site_adp_type
   _atom_site_U_iso_or_equiv
   _atom_site_type_symbol
   Al1        1.0     0.109352     0.098531     0.299257    Uiso  ? Al
   Al2        1.0     0.219769     0.206130     0.049180    Uiso  ? Al
   Al3        1.0     0.786615     0.090407     0.803858    Uiso  ? Al
   Al4        1.0     0.894770     0.204406     0.546400    Uiso  ? Al
   Al5        1.0     0.103599     0.100786     0.799266    Uiso  ? Al
   Al6        1.0     0.209894     0.211927     0.547099    Uiso  ? Al
   Al7        1.0     0.782583     0.092216     0.297229    Uiso  ? Al
   Al8        1.0     0.890981     0.204378     0.052614    Uiso  ? Al
   Al9        1.0     0.438124     0.101065     0.814236    Uiso  ? Al
   Al10       1.0     0.108350     0.429489     0.299704    Uiso  ? Al
   Al11       1.0     0.222148     0.539189     0.050585    Uiso  ? Al
   Al12       1.0     0.784055     0.421837     0.799143    Uiso  ? Al
   Al13       1.0     0.895457     0.533301     0.546642    Uiso  ? Al
   Al14       1.0     0.559976     0.528560     0.054824    Uiso  ? Al
   Al15       1.0     0.109459     0.428550     0.800364    Uiso  ? Al
   Al16       1.0     0.213971     0.545707     0.547856    Uiso  ? Al
   Al17       1.0     0.778838     0.428391     0.300537    Uiso  ? Al
   Al18       1.0     0.890667     0.536335     0.050381    Uiso  ? Al
   Al19       1.0     0.439717     0.429862     0.806705    Uiso  ? Al
   Al20       1.0     0.555618     0.538825     0.542675    Uiso  ? Al
   Al21       1.0     0.110415     0.757894     0.298808    Uiso  ? Al
   Al22       1.0     0.211062     0.877871     0.056639    Uiso  ? Al
   Al23       1.0     0.789388     0.757054     0.803500    Uiso  ? Al
   Al24       1.0     0.899841     0.868005     0.545794    Uiso  ? Al
   Al25       1.0     0.445310     0.756780     0.288770    Uiso  ? Al
   Al26       1.0     0.559839     0.875083     0.053477    Uiso  ? Al
   Al27       1.0     0.104199     0.762104     0.799715    Uiso  ? Al
   Al28       1.0     0.214251     0.874360     0.544731    Uiso  ? Al
   Al29       1.0     0.784022     0.756654     0.294273    Uiso  ? Al
   Al30       1.0     0.892031     0.872104     0.052036    Uiso  ? Al
   Mg1        1.0     0.439512     0.101619     0.288809    Uiso  ? Mg
   Mg2        1.0     0.559357     0.205667     0.045908    Uiso  ? Mg
   Mg3        1.0     0.441867     0.428921     0.297650    Uiso  ? Mg
   Hf1        1.0     0.557544     0.209241     0.567208    Uiso  ? Hf
   Hf2        1.0     0.440359     0.759595     0.820411    Uiso  ? Hf
   Hf3        1.0     0.558135     0.867459     0.545834    Uiso  ? Hf
   N1         1.0     0.206554     0.214395     0.361155    Uiso  ? N
   N2         1.0     0.109902     0.096805     0.109080    Uiso  ? N
   N3         1.0     0.889378     0.206745     0.859784    Uiso  ? N
   N4         1.0     0.803319     0.081714     0.613088    Uiso  ? N
   N5         1.0     0.573790     0.194622     0.365599    Uiso  ? N
   N6         1.0     0.436628     0.090167     0.085293    Uiso  ? N
   N7         1.0     0.214941     0.208399     0.856647    Uiso  ? N
   N8         1.0     0.110956     0.093037     0.608095    Uiso  ? N
   N9         1.0     0.890122     0.205638     0.357805    Uiso  ? N
   N10        1.0     0.794574     0.086180     0.108695    Uiso  ? N
   N11        1.0     0.559375     0.204951     0.826649    Uiso  ? N
   N12        1.0     0.423024     0.098878     0.617033    Uiso  ? N
   N13        1.0     0.205545     0.546152     0.362173    Uiso  ? N
   N14        1.0     0.109799     0.428260     0.106597    Uiso  ? N
   N15        1.0     0.888734     0.537474     0.857913    Uiso  ? N
   N16        1.0     0.777418     0.427825     0.606928    Uiso  ? N
   N17        1.0     0.562880     0.547073     0.357320    Uiso  ? N
   N18        1.0     0.435909     0.440131     0.094900    Uiso  ? N
   N19        1.0     0.217448     0.542067     0.856413    Uiso  ? N
   N20        1.0     0.110150     0.428609     0.610284    Uiso  ? N
   N21        1.0     0.888375     0.539493     0.357131    Uiso  ? N
   N22        1.0     0.780015     0.426677     0.108866    Uiso  ? N
   N23        1.0     0.569292     0.518717     0.861334    Uiso  ? N
   N24        1.0     0.430546     0.453099     0.612170    Uiso  ? N
   N25        1.0     0.223822     0.871466     0.353110    Uiso  ? N
   N26        1.0     0.110208     0.759645     0.108870    Uiso  ? N
   N27        1.0     0.890107     0.871274     0.860486    Uiso  ? N
   N28        1.0     0.796248     0.753026     0.611309    Uiso  ? N
   N29        1.0     0.562176     0.858574     0.342912    Uiso  ? N
   N30        1.0     0.443937     0.760349     0.089540    Uiso  ? N
   N31        1.0     0.198127     0.884404     0.864075    Uiso  ? N
   N32        1.0     0.111547     0.762759     0.609188    Uiso  ? N
   N33        1.0     0.890279     0.870455     0.356899    Uiso  ? N
   N34        1.0     0.781382     0.758841     0.104151    Uiso  ? N
   N35        1.0     0.568786     0.875625     0.853293    Uiso  ? N
   N36        1.0     0.433341     0.756093     0.610106    Uiso  ? N
