
#======================================================================
# CRYSTAL DATA
#----------------------------------------------------------------------
data_VESTA_phase_1

_chemical_name_common                  'Al   Mg   Hf   N                      '
_cell_length_a                         9.643600
_cell_length_b                         9.612219
_cell_length_c                         9.997740
_cell_angle_alpha                      89.979607
_cell_angle_beta                       89.992767
_cell_angle_gamma                      60.112774
_cell_volume                           803.503281
_space_group_name_H-M_alt              'P 1'
_space_group_IT_number                 1

loop_
_space_group_symop_operation_xyz
   'x, y, z'

loop_
   _atom_site_label
   _atom_site_occupancy
   _atom_site_fract_x
   _atom_site_fract_y
   _atom_site_fract_z
   _atom_site_adp_type
   _atom_site_U_iso_or_equiv
   _atom_site_type_symbol
   Al1        1.0     0.109057     0.098704     0.324224    Uiso  ? Al
   Al2        1.0     0.219235     0.206311     0.074068    Uiso  ? Al
   Al3        1.0     0.786692     0.090325     0.829259    Uiso  ? Al
   Al4        1.0     0.894654     0.204360     0.571421    Uiso  ? Al
   Al5        1.0     0.103778     0.100641     0.823889    Uiso  ? Al
   Al6        1.0     0.210065     0.211958     0.571902    Uiso  ? Al
   Al7        1.0     0.782646     0.092299     0.321840    Uiso  ? Al
   Al8        1.0     0.891206     0.204431     0.077103    Uiso  ? Al
   Al9        1.0     0.438265     0.101237     0.841328    Uiso  ? Al
   Al10       1.0     0.108070     0.429685     0.324366    Uiso  ? Al
   Al11       1.0     0.221694     0.539417     0.075220    Uiso  ? Al
   Al12       1.0     0.784165     0.421817     0.823735    Uiso  ? Al
   Al13       1.0     0.895422     0.533366     0.571412    Uiso  ? Al
   Al14       1.0     0.560473     0.528084     0.079944    Uiso  ? Al
   Al15       1.0     0.109478     0.428408     0.825177    Uiso  ? Al
   Al16       1.0     0.214109     0.545528     0.572894    Uiso  ? Al
   Al17       1.0     0.778763     0.428404     0.325546    Uiso  ? Al
   Al18       1.0     0.890592     0.536292     0.075227    Uiso  ? Al
   Al19       1.0     0.440015     0.429454     0.832986    Uiso  ? Al
   Al20       1.0     0.555212     0.538972     0.567668    Uiso  ? Al
   Al21       1.0     0.110180     0.757945     0.323728    Uiso  ? Al
   Al22       1.0     0.210348     0.878199     0.081670    Uiso  ? Al
   Al23       1.0     0.790036     0.756555     0.828196    Uiso  ? Al
   Al24       1.0     0.899817     0.868169     0.570682    Uiso  ? Al
   Al25       1.0     0.445261     0.757051     0.313707    Uiso  ? Al
   Al26       1.0     0.560366     0.874716     0.078010    Uiso  ? Al
   Al27       1.0     0.104278     0.762070     0.824390    Uiso  ? Al
   Al28       1.0     0.214476     0.874216     0.569621    Uiso  ? Al
   Al29       1.0     0.783683     0.756854     0.319670    Uiso  ? Al
   Al30       1.0     0.892173     0.871868     0.076814    Uiso  ? Al
   Mg1        1.0     0.439380     0.101218     0.313755    Uiso  ? Mg
   Mg2        1.0     0.559775     0.205527     0.072130    Uiso  ? Mg
   Mg3        1.0     0.441266     0.429361     0.322295    Uiso  ? Mg
   Hf1        1.0     0.557496     0.209256     0.592125    Uiso  ? Hf
   Hf2        1.0     0.440234     0.759222     0.847069    Uiso  ? Hf
   Hf3        1.0     0.557830     0.867625     0.572843    Uiso  ? Hf
   N1         1.0     0.206404     0.214584     0.384903    Uiso  ? N
   N2         1.0     0.109732     0.096907     0.133310    Uiso  ? N
   N3         1.0     0.889653     0.206795     0.883673    Uiso  ? N
   N4         1.0     0.803100     0.081814     0.637455    Uiso  ? N
   N5         1.0     0.573542     0.194964     0.388914    Uiso  ? N
   N6         1.0     0.436574     0.089888     0.108145    Uiso  ? N
   N7         1.0     0.214628     0.208519     0.880956    Uiso  ? N
   N8         1.0     0.110991     0.093024     0.631966    Uiso  ? N
   N9         1.0     0.889985     0.205714     0.382005    Uiso  ? N
   N10        1.0     0.795110     0.085994     0.132406    Uiso  ? N
   N11        1.0     0.559803     0.204710     0.851900    Uiso  ? N
   N12        1.0     0.422753     0.099680     0.641808    Uiso  ? N
   N13        1.0     0.205299     0.546243     0.386206    Uiso  ? N
   N14        1.0     0.109623     0.428380     0.130592    Uiso  ? N
   N15        1.0     0.888885     0.537297     0.882078    Uiso  ? N
   N16        1.0     0.777261     0.427986     0.630832    Uiso  ? N
   N17        1.0     0.562587     0.547197     0.381093    Uiso  ? N
   N18        1.0     0.435538     0.440413     0.118215    Uiso  ? N
   N19        1.0     0.217237     0.542134     0.880479    Uiso  ? N
   N20        1.0     0.109969     0.428639     0.634357    Uiso  ? N
   N21        1.0     0.888281     0.539539     0.381138    Uiso  ? N
   N22        1.0     0.780195     0.426484     0.133114    Uiso  ? N
   N23        1.0     0.569883     0.518305     0.885656    Uiso  ? N
   N24        1.0     0.430605     0.452748     0.636775    Uiso  ? N
   N25        1.0     0.223825     0.871474     0.376998    Uiso  ? N
   N26        1.0     0.110058     0.759611     0.133051    Uiso  ? N
   N27        1.0     0.890344     0.870968     0.884637    Uiso  ? N
   N28        1.0     0.796761     0.752835     0.635327    Uiso  ? N
   N29        1.0     0.561976     0.858600     0.368420    Uiso  ? N
   N30        1.0     0.443907     0.760453     0.112994    Uiso  ? N
   N31        1.0     0.197730     0.884562     0.888318    Uiso  ? N
   N32        1.0     0.111543     0.762818     0.633132    Uiso  ? N
   N33        1.0     0.890146     0.870680     0.380957    Uiso  ? N
   N34        1.0     0.781219     0.758908     0.128499    Uiso  ? N
   N35        1.0     0.569282     0.874988     0.876395    Uiso  ? N
   N36        1.0     0.432918     0.755922     0.635245    Uiso  ? N
