
#======================================================================
# CRYSTAL DATA
#----------------------------------------------------------------------
data_VESTA_phase_1

_chemical_name_common                  'Al   Mg   Hf   N                      '
_cell_length_a                         10.113639
_cell_length_b                         10.063821
_cell_length_c                         8.641568
_cell_angle_alpha                      90.075371
_cell_angle_beta                       90.049446
_cell_angle_gamma                      60.085590
_cell_volume                           762.372218
_space_group_name_H-M_alt              'P 1'
_space_group_IT_number                 1

loop_
_space_group_symop_operation_xyz
   'x, y, z'

loop_
   _atom_site_label
   _atom_site_occupancy
   _atom_site_fract_x
   _atom_site_fract_y
   _atom_site_fract_z
   _atom_site_adp_type
   _atom_site_U_iso_or_equiv
   _atom_site_type_symbol
   Al1        1.0     0.105984     0.099806     0.344834    Uiso  ? Al
   Al2        1.0     0.217387     0.206109     0.101061    Uiso  ? Al
   Al3        1.0     0.784305     0.091169     0.860426    Uiso  ? Al
   Al4        1.0     0.893284     0.203157     0.596892    Uiso  ? Al
   Al5        1.0     0.107706     0.098438     0.846279    Uiso  ? Al
   Al6        1.0     0.211746     0.211774     0.593273    Uiso  ? Al
   Al7        1.0     0.785171     0.091926     0.328496    Uiso  ? Al
   Al8        1.0     0.892863     0.206122     0.091755    Uiso  ? Al
   Al9        1.0     0.438429     0.101039     0.868984    Uiso  ? Al
   Al10       1.0     0.105667     0.430818     0.344696    Uiso  ? Al
   Al11       1.0     0.218992     0.541090     0.102317    Uiso  ? Al
   Al12       1.0     0.781418     0.424347     0.845278    Uiso  ? Al
   Al13       1.0     0.894281     0.534982     0.597946    Uiso  ? Al
   Al14       1.0     0.560528     0.530653     0.113957    Uiso  ? Al
   Al15       1.0     0.110841     0.427674     0.850277    Uiso  ? Al
   Al16       1.0     0.216898     0.542723     0.596095    Uiso  ? Al
   Al17       1.0     0.782168     0.426132     0.347573    Uiso  ? Al
   Al18       1.0     0.890128     0.535164     0.096773    Uiso  ? Al
   Al19       1.0     0.440682     0.428516     0.866299    Uiso  ? Al
   Al20       1.0     0.557151     0.535661     0.583781    Uiso  ? Al
   Al21       1.0     0.107745     0.759473     0.345193    Uiso  ? Al
   Al22       1.0     0.211052     0.877791     0.107608    Uiso  ? Al
   Al23       1.0     0.787371     0.756738     0.857997    Uiso  ? Al
   Al24       1.0     0.897742     0.870514     0.596440    Uiso  ? Al
   Al25       1.0     0.443374     0.758450     0.340498    Uiso  ? Al
   Al26       1.0     0.558145     0.873528     0.113114    Uiso  ? Al
   Al27       1.0     0.107427     0.759540     0.848192    Uiso  ? Al
   Al28       1.0     0.213311     0.875419     0.586684    Uiso  ? Al
   Al29       1.0     0.788021     0.755452     0.339711    Uiso  ? Al
   Al30       1.0     0.894422     0.869807     0.094801    Uiso  ? Al
   Mg1        1.0     0.436333     0.102440     0.338139    Uiso  ? Mg
   Mg2        1.0     0.557414     0.205512     0.105465    Uiso  ? Mg
   Mg3        1.0     0.437886     0.432576     0.342152    Uiso  ? Mg
   Hf1        1.0     0.559975     0.209485     0.599873    Uiso  ? Hf
   Hf2        1.0     0.440637     0.756627     0.861285    Uiso  ? Hf
   Hf3        1.0     0.560491     0.871254     0.593959    Uiso  ? Hf
   N1         1.0     0.203830     0.216027     0.357983    Uiso  ? N
   N2         1.0     0.108637     0.095880     0.110720    Uiso  ? N
   N3         1.0     0.891543     0.208155     0.858664    Uiso  ? N
   N4         1.0     0.798001     0.084235     0.623594    Uiso  ? N
   N5         1.0     0.574508     0.196822     0.355715    Uiso  ? N
   N6         1.0     0.434455     0.087093     0.095024    Uiso  ? N
   N7         1.0     0.217647     0.206745     0.858595    Uiso  ? N
   N8         1.0     0.111681     0.092566     0.609083    Uiso  ? N
   N9         1.0     0.889153     0.204808     0.362712    Uiso  ? N
   N10        1.0     0.797490     0.085885     0.100699    Uiso  ? N
   N11        1.0     0.557402     0.203942     0.856163    Uiso  ? N
   N12        1.0     0.426574     0.104251     0.611404    Uiso  ? N
   N13        1.0     0.204770     0.545747     0.359009    Uiso  ? N
   N14        1.0     0.108867     0.428740     0.103978    Uiso  ? N
   N15        1.0     0.887854     0.537751     0.858996    Uiso  ? N
   N16        1.0     0.777830     0.428228     0.607092    Uiso  ? N
   N17        1.0     0.564150     0.543863     0.354504    Uiso  ? N
   N18        1.0     0.433859     0.444251     0.096221    Uiso  ? N
   N19        1.0     0.218131     0.541129     0.856448    Uiso  ? N
   N20        1.0     0.109285     0.428861     0.613002    Uiso  ? N
   N21        1.0     0.889100     0.538630     0.357435    Uiso  ? N
   N22        1.0     0.780429     0.425397     0.110988    Uiso  ? N
   N23        1.0     0.566927     0.522654     0.860493    Uiso  ? N
   N24        1.0     0.434407     0.446232     0.612771    Uiso  ? N
   N25        1.0     0.220778     0.872918     0.354080    Uiso  ? N
   N26        1.0     0.110258     0.760631     0.110586    Uiso  ? N
   N27        1.0     0.891866     0.867649     0.861763    Uiso  ? N
   N28        1.0     0.797277     0.753406     0.608180    Uiso  ? N
   N29        1.0     0.565242     0.857926     0.347182    Uiso  ? N
   N30        1.0     0.442115     0.761716     0.111013    Uiso  ? N
   N31        1.0     0.204066     0.880266     0.864840    Uiso  ? N
   N32        1.0     0.111961     0.762605     0.608309    Uiso  ? N
   N33        1.0     0.889704     0.873167     0.357628    Uiso  ? N
   N34        1.0     0.780643     0.759518     0.105486    Uiso  ? N
   N35        1.0     0.565887     0.872193     0.854824    Uiso  ? N
   N36        1.0     0.434205     0.757550     0.603566    Uiso  ? N
