
#======================================================================
# CRYSTAL DATA
#----------------------------------------------------------------------
data_VESTA_phase_1

_chemical_name_common                  'Al   Mg   Hf   N                      '
_cell_length_a                         9.982777
_cell_length_b                         9.931022
_cell_length_c                         9.039771
_cell_angle_alpha                      90.059288
_cell_angle_beta                       90.027504
_cell_angle_gamma                      60.088341
_cell_volume                           776.817550
_space_group_name_H-M_alt              'P 1'
_space_group_IT_number                 1

loop_
_space_group_symop_operation_xyz
   'x, y, z'

loop_
   _atom_site_label
   _atom_site_occupancy
   _atom_site_fract_x
   _atom_site_fract_y
   _atom_site_fract_z
   _atom_site_adp_type
   _atom_site_U_iso_or_equiv
   _atom_site_type_symbol
   Al1        1.0     0.106703     0.099993     0.371758    Uiso  ? Al
   Al2        1.0     0.214734     0.208546     0.124105    Uiso  ? Al
   Al3        1.0     0.782568     0.092619     0.875553    Uiso  ? Al
   Al4        1.0     0.894463     0.204576     0.623254    Uiso  ? Al
   Al5        1.0     0.106840     0.098637     0.873445    Uiso  ? Al
   Al6        1.0     0.212638     0.210322     0.620133    Uiso  ? Al
   Al7        1.0     0.787087     0.090319     0.353136    Uiso  ? Al
   Al8        1.0     0.892322     0.204991     0.120630    Uiso  ? Al
   Al9        1.0     0.440235     0.099162     0.878488    Uiso  ? Al
   Al10       1.0     0.104882     0.430431     0.375283    Uiso  ? Al
   Al11       1.0     0.216783     0.541323     0.125406    Uiso  ? Al
   Al12       1.0     0.780437     0.424030     0.871885    Uiso  ? Al
   Al13       1.0     0.892790     0.536025     0.624526    Uiso  ? Al
   Al14       1.0     0.559941     0.533324     0.131478    Uiso  ? Al
   Al15       1.0     0.111633     0.427885     0.868482    Uiso  ? Al
   Al16       1.0     0.217781     0.543189     0.618136    Uiso  ? Al
   Al17       1.0     0.783503     0.426259     0.370849    Uiso  ? Al
   Al18       1.0     0.892202     0.534028     0.120235    Uiso  ? Al
   Al19       1.0     0.441135     0.427766     0.874775    Uiso  ? Al
   Al20       1.0     0.557683     0.534260     0.599974    Uiso  ? Al
   Al21       1.0     0.107162     0.759944     0.371568    Uiso  ? Al
   Al22       1.0     0.213374     0.876578     0.127305    Uiso  ? Al
   Al23       1.0     0.783957     0.758852     0.879768    Uiso  ? Al
   Al24       1.0     0.899221     0.867602     0.625288    Uiso  ? Al
   Al25       1.0     0.441866     0.758449     0.352851    Uiso  ? Al
   Al26       1.0     0.557535     0.872021     0.128475    Uiso  ? Al
   Al27       1.0     0.107995     0.758696     0.874240    Uiso  ? Al
   Al28       1.0     0.210178     0.876908     0.612467    Uiso  ? Al
   Al29       1.0     0.791962     0.753154     0.358017    Uiso  ? Al
   Al30       1.0     0.894301     0.871445     0.118772    Uiso  ? Al
   Mg1        1.0     0.435206     0.103407     0.343232    Uiso  ? Mg
   Mg2        1.0     0.559058     0.205242     0.113386    Uiso  ? Mg
   Mg3        1.0     0.437067     0.433362     0.350156    Uiso  ? Mg
   Hf1        1.0     0.559120     0.209642     0.596193    Uiso  ? Hf
   Hf2        1.0     0.441875     0.757651     0.861502    Uiso  ? Hf
   Hf3        1.0     0.560777     0.871327     0.592035    Uiso  ? Hf
   N1         1.0     0.201094     0.217689     0.335571    Uiso  ? N
   N2         1.0     0.110670     0.093483     0.085924    Uiso  ? N
   N3         1.0     0.890510     0.206919     0.837426    Uiso  ? N
   N4         1.0     0.801890     0.082265     0.592145    Uiso  ? N
   N5         1.0     0.573913     0.197536     0.354304    Uiso  ? N
   N6         1.0     0.433764     0.086437     0.091895    Uiso  ? N
   N7         1.0     0.219978     0.205066     0.835928    Uiso  ? N
   N8         1.0     0.109843     0.095616     0.585612    Uiso  ? N
   N9         1.0     0.890841     0.206627     0.335147    Uiso  ? N
   N10        1.0     0.796466     0.086272     0.088268    Uiso  ? N
   N11        1.0     0.557204     0.203742     0.847861    Uiso  ? N
   N12        1.0     0.424984     0.105259     0.591967    Uiso  ? N
   N13        1.0     0.201549     0.546846     0.337059    Uiso  ? N
   N14        1.0     0.109823     0.428327     0.080003    Uiso  ? N
   N15        1.0     0.886546     0.540299     0.838505    Uiso  ? N
   N16        1.0     0.781295     0.426758     0.586258    Uiso  ? N
   N17        1.0     0.565761     0.543534     0.346043    Uiso  ? N
   N18        1.0     0.433727     0.446748     0.089969    Uiso  ? N
   N19        1.0     0.219970     0.540477     0.834323    Uiso  ? N
   N20        1.0     0.108357     0.429156     0.591483    Uiso  ? N
   N21        1.0     0.890554     0.535817     0.332835    Uiso  ? N
   N22        1.0     0.777403     0.427431     0.086300    Uiso  ? N
   N23        1.0     0.565739     0.521535     0.831251    Uiso  ? N
   N24        1.0     0.432245     0.445873     0.593596    Uiso  ? N
   N25        1.0     0.219893     0.873316     0.341359    Uiso  ? N
   N26        1.0     0.112315     0.760956     0.086040    Uiso  ? N
   N27        1.0     0.890163     0.868338     0.840425    Uiso  ? N
   N28        1.0     0.801366     0.751127     0.578806    Uiso  ? N
   N29        1.0     0.565351     0.856762     0.345632    Uiso  ? N
   N30        1.0     0.442705     0.761257     0.100930    Uiso  ? N
   N31        1.0     0.203142     0.880633     0.832913    Uiso  ? N
   N32        1.0     0.110640     0.761181     0.584875    Uiso  ? N
   N33        1.0     0.892741     0.870955     0.331442    Uiso  ? N
   N34        1.0     0.778473     0.760345     0.093349    Uiso  ? N
   N35        1.0     0.566477     0.874856     0.838107    Uiso  ? N
   N36        1.0     0.433097     0.757939     0.596703    Uiso  ? N
