
#======================================================================
# CRYSTAL DATA
#----------------------------------------------------------------------
data_VESTA_phase_1

_chemical_name_common                  'Al   Mg   Hf   N                      '
_cell_length_a                         9.652680
_cell_length_b                         9.602626
_cell_length_c                         10.004828
_cell_angle_alpha                      90.015144
_cell_angle_beta                       90.045135
_cell_angle_gamma                      60.108727
_cell_volume                           803.994068
_space_group_name_H-M_alt              'P 1'
_space_group_IT_number                 1

loop_
_space_group_symop_operation_xyz
   'x, y, z'

loop_
   _atom_site_label
   _atom_site_occupancy
   _atom_site_fract_x
   _atom_site_fract_y
   _atom_site_fract_z
   _atom_site_adp_type
   _atom_site_U_iso_or_equiv
   _atom_site_type_symbol
   Al1        1.0     0.108472     0.099166     0.394935    Uiso  ? Al
   Al2        1.0     0.216744     0.207142     0.145726    Uiso  ? Al
   Al3        1.0     0.778908     0.094159     0.899330    Uiso  ? Al
   Al4        1.0     0.895875     0.205179     0.647493    Uiso  ? Al
   Al5        1.0     0.104350     0.099681     0.898861    Uiso  ? Al
   Al6        1.0     0.210871     0.211637     0.650355    Uiso  ? Al
   Al7        1.0     0.791559     0.088041     0.394307    Uiso  ? Al
   Al8        1.0     0.890636     0.203449     0.146396    Uiso  ? Al
   Al9        1.0     0.443416     0.100737     0.904429    Uiso  ? Al
   Al10       1.0     0.107247     0.429089     0.393827    Uiso  ? Al
   Al11       1.0     0.218418     0.541338     0.145999    Uiso  ? Al
   Al12       1.0     0.783210     0.422647     0.897967    Uiso  ? Al
   Al13       1.0     0.895232     0.533594     0.646084    Uiso  ? Al
   Al14       1.0     0.558736     0.534441     0.150891    Uiso  ? Al
   Al15       1.0     0.109971     0.428658     0.897493    Uiso  ? Al
   Al16       1.0     0.216281     0.543491     0.648373    Uiso  ? Al
   Al17       1.0     0.778789     0.427482     0.393479    Uiso  ? Al
   Al18       1.0     0.890604     0.536159     0.147450    Uiso  ? Al
   Al19       1.0     0.442933     0.423213     0.900228    Uiso  ? Al
   Al20       1.0     0.557206     0.534218     0.644125    Uiso  ? Al
   Al21       1.0     0.109321     0.758594     0.394571    Uiso  ? Al
   Al22       1.0     0.215425     0.875707     0.151505    Uiso  ? Al
   Al23       1.0     0.784592     0.759396     0.900894    Uiso  ? Al
   Al24       1.0     0.902150     0.865757     0.648620    Uiso  ? Al
   Al25       1.0     0.443559     0.754813     0.389355    Uiso  ? Al
   Al26       1.0     0.558189     0.871866     0.158300    Uiso  ? Al
   Al27       1.0     0.105278     0.760943     0.899073    Uiso  ? Al
   Al28       1.0     0.210158     0.876319     0.640448    Uiso  ? Al
   Al29       1.0     0.790322     0.754007     0.388923    Uiso  ? Al
   Al30       1.0     0.891326     0.873660     0.145365    Uiso  ? Al
   Mg1        1.0     0.432676     0.100879     0.380670    Uiso  ? Mg
   Mg2        1.0     0.560173     0.205451     0.158132    Uiso  ? Mg
   Mg3        1.0     0.435654     0.439472     0.387222    Uiso  ? Mg
   Hf1        1.0     0.558284     0.209556     0.613985    Uiso  ? Hf
   Hf2        1.0     0.441025     0.761840     0.895762    Uiso  ? Hf
   Hf3        1.0     0.560378     0.868306     0.622963    Uiso  ? Hf
   N1         1.0     0.200442     0.216891     0.332558    Uiso  ? N
   N2         1.0     0.110162     0.093020     0.088001    Uiso  ? N
   N3         1.0     0.889093     0.206494     0.838115    Uiso  ? N
   N4         1.0     0.808497     0.079271     0.589072    Uiso  ? N
   N5         1.0     0.573436     0.198565     0.377146    Uiso  ? N
   N6         1.0     0.437490     0.086169     0.094973    Uiso  ? N
   N7         1.0     0.220634     0.205370     0.842451    Uiso  ? N
   N8         1.0     0.110772     0.096443     0.588417    Uiso  ? N
   N9         1.0     0.891306     0.205522     0.337904    Uiso  ? N
   N10        1.0     0.792451     0.087673     0.086824    Uiso  ? N
   N11        1.0     0.557247     0.203737     0.841312    Uiso  ? N
   N12        1.0     0.419727     0.104691     0.592122    Uiso  ? N
   N13        1.0     0.202270     0.547426     0.333716    Uiso  ? N
   N14        1.0     0.108598     0.429080     0.085966    Uiso  ? N
   N15        1.0     0.887669     0.539567     0.838653    Uiso  ? N
   N16        1.0     0.777694     0.428210     0.588821    Uiso  ? N
   N17        1.0     0.565716     0.543126     0.336737    Uiso  ? N
   N18        1.0     0.435910     0.443477     0.089209    Uiso  ? N
   N19        1.0     0.219537     0.540413     0.840702    Uiso  ? N
   N20        1.0     0.110605     0.427794     0.590198    Uiso  ? N
   N21        1.0     0.889434     0.536390     0.337876    Uiso  ? N
   N22        1.0     0.778688     0.426972     0.088113    Uiso  ? N
   N23        1.0     0.564984     0.523755     0.836724    Uiso  ? N
   N24        1.0     0.429279     0.450702     0.597613    Uiso  ? N
   N25        1.0     0.220541     0.872883     0.342349    Uiso  ? N
   N26        1.0     0.110844     0.762757     0.088074    Uiso  ? N
   N27        1.0     0.889084     0.870566     0.839472    Uiso  ? N
   N28        1.0     0.803953     0.749574     0.582575    Uiso  ? N
   N29        1.0     0.565797     0.856205     0.354003    Uiso  ? N
   N30        1.0     0.443316     0.763088     0.101964    Uiso  ? N
   N31        1.0     0.203643     0.880927     0.833742    Uiso  ? N
   N32        1.0     0.112199     0.759002     0.587081    Uiso  ? N
   N33        1.0     0.892712     0.870931     0.335718    Uiso  ? N
   N34        1.0     0.777254     0.760947     0.092335    Uiso  ? N
   N35        1.0     0.565323     0.877487     0.837070    Uiso  ? N
   N36        1.0     0.431926     0.753797     0.591726    Uiso  ? N
