
#======================================================================
# CRYSTAL DATA
#----------------------------------------------------------------------
data_VESTA_phase_1

_chemical_name_common                  'Al   Mg   Hf   N                      '
_cell_length_a                         9.652686
_cell_length_b                         9.602632
_cell_length_c                         10.004824
_cell_angle_alpha                      90.015129
_cell_angle_beta                       90.045097
_cell_angle_gamma                      60.108612
_cell_volume                           803.993718
_space_group_name_H-M_alt              'P 1'
_space_group_IT_number                 1

loop_
_space_group_symop_operation_xyz
   'x, y, z'

loop_
   _atom_site_label
   _atom_site_occupancy
   _atom_site_fract_x
   _atom_site_fract_y
   _atom_site_fract_z
   _atom_site_adp_type
   _atom_site_U_iso_or_equiv
   _atom_site_type_symbol
   Al1        1.0     0.108460     0.099162     0.404855    Uiso  ? Al
   Al2        1.0     0.216731     0.207139     0.155648    Uiso  ? Al
   Al3        1.0     0.778897     0.094155     0.909245    Uiso  ? Al
   Al4        1.0     0.895862     0.205176     0.657410    Uiso  ? Al
   Al5        1.0     0.104338     0.099678     0.908776    Uiso  ? Al
   Al6        1.0     0.210859     0.211633     0.660273    Uiso  ? Al
   Al7        1.0     0.791546     0.088038     0.404228    Uiso  ? Al
   Al8        1.0     0.890624     0.203446     0.156315    Uiso  ? Al
   Al9        1.0     0.443403     0.100735     0.914350    Uiso  ? Al
   Al10       1.0     0.107233     0.429086     0.403749    Uiso  ? Al
   Al11       1.0     0.218406     0.541335     0.155920    Uiso  ? Al
   Al12       1.0     0.783199     0.422644     0.907883    Uiso  ? Al
   Al13       1.0     0.895220     0.533591     0.656004    Uiso  ? Al
   Al14       1.0     0.558725     0.534437     0.160807    Uiso  ? Al
   Al15       1.0     0.109959     0.428655     0.907412    Uiso  ? Al
   Al16       1.0     0.216269     0.543487     0.658289    Uiso  ? Al
   Al17       1.0     0.778776     0.427480     0.403399    Uiso  ? Al
   Al18       1.0     0.890592     0.536155     0.157368    Uiso  ? Al
   Al19       1.0     0.442920     0.423210     0.910145    Uiso  ? Al
   Al20       1.0     0.557193     0.534215     0.654047    Uiso  ? Al
   Al21       1.0     0.109309     0.758591     0.404492    Uiso  ? Al
   Al22       1.0     0.215412     0.875704     0.161424    Uiso  ? Al
   Al23       1.0     0.784581     0.759393     0.910812    Uiso  ? Al
   Al24       1.0     0.902137     0.865753     0.658534    Uiso  ? Al
   Al25       1.0     0.443548     0.754808     0.399271    Uiso  ? Al
   Al26       1.0     0.558177     0.871863     0.168218    Uiso  ? Al
   Al27       1.0     0.105266     0.760940     0.908987    Uiso  ? Al
   Al28       1.0     0.210148     0.876315     0.650363    Uiso  ? Al
   Al29       1.0     0.790309     0.754003     0.398839    Uiso  ? Al
   Al30       1.0     0.891315     0.873657     0.155286    Uiso  ? Al
   Mg1        1.0     0.432665     0.100875     0.390589    Uiso  ? Mg
   Mg2        1.0     0.560161     0.205448     0.168051    Uiso  ? Mg
   Mg3        1.0     0.435643     0.439469     0.397141    Uiso  ? Mg
   Hf1        1.0     0.558271     0.209553     0.623905    Uiso  ? Hf
   Hf2        1.0     0.441012     0.761839     0.905682    Uiso  ? Hf
   Hf3        1.0     0.560366     0.868301     0.632883    Uiso  ? Hf
   N1         1.0     0.200429     0.216888     0.342480    Uiso  ? N
   N2         1.0     0.110150     0.093017     0.097918    Uiso  ? N
   N3         1.0     0.889081     0.206490     0.848031    Uiso  ? N
   N4         1.0     0.808483     0.079268     0.598991    Uiso  ? N
   N5         1.0     0.573424     0.198562     0.387065    Uiso  ? N
   N6         1.0     0.437477     0.086167     0.104894    Uiso  ? N
   N7         1.0     0.220622     0.205366     0.852369    Uiso  ? N
   N8         1.0     0.110760     0.096440     0.598337    Uiso  ? N
   N9         1.0     0.891294     0.205519     0.347824    Uiso  ? N
   N10        1.0     0.792440     0.087670     0.096741    Uiso  ? N
   N11        1.0     0.557235     0.203733     0.851230    Uiso  ? N
   N12        1.0     0.419715     0.104687     0.602040    Uiso  ? N
   N13        1.0     0.202258     0.547423     0.343638    Uiso  ? N
   N14        1.0     0.108587     0.429076     0.095886    Uiso  ? N
   N15        1.0     0.887657     0.539564     0.848572    Uiso  ? N
   N16        1.0     0.777682     0.428207     0.598742    Uiso  ? N
   N17        1.0     0.565704     0.543122     0.346653    Uiso  ? N
   N18        1.0     0.435897     0.443474     0.099127    Uiso  ? N
   N19        1.0     0.219524     0.540409     0.850619    Uiso  ? N
   N20        1.0     0.110592     0.427790     0.600118    Uiso  ? N
   N21        1.0     0.889422     0.536386     0.347794    Uiso  ? N
   N22        1.0     0.778677     0.426968     0.098029    Uiso  ? N
   N23        1.0     0.564971     0.523753     0.846645    Uiso  ? N
   N24        1.0     0.429268     0.450697     0.607532    Uiso  ? N
   N25        1.0     0.220528     0.872880     0.352269    Uiso  ? N
   N26        1.0     0.110831     0.762753     0.097991    Uiso  ? N
   N27        1.0     0.889071     0.870562     0.849388    Uiso  ? N
   N28        1.0     0.803940     0.749570     0.592492    Uiso  ? N
   N29        1.0     0.565785     0.856202     0.363920    Uiso  ? N
   N30        1.0     0.443303     0.763085     0.111884    Uiso  ? N
   N31        1.0     0.203631     0.880924     0.843657    Uiso  ? N
   N32        1.0     0.112187     0.758999     0.597000    Uiso  ? N
   N33        1.0     0.892700     0.870928     0.345639    Uiso  ? N
   N34        1.0     0.777242     0.760945     0.102255    Uiso  ? N
   N35        1.0     0.565311     0.877484     0.846990    Uiso  ? N
   N36        1.0     0.431915     0.753793     0.601643    Uiso  ? N
