
#======================================================================
# CRYSTAL DATA
#----------------------------------------------------------------------
data_VESTA_phase_1

_chemical_name_common                  'Al   Mg   Hf   N                      '
_cell_length_a                         9.788503
_cell_length_b                         9.741323
_cell_length_c                         9.607100
_cell_angle_alpha                      90.061745
_cell_angle_beta                       90.025284
_cell_angle_gamma                      60.117191
_cell_volume                           794.270625
_space_group_name_H-M_alt              'P 1'
_space_group_IT_number                 1

loop_
_space_group_symop_operation_xyz
   'x, y, z'

loop_
   _atom_site_label
   _atom_site_occupancy
   _atom_site_fract_x
   _atom_site_fract_y
   _atom_site_fract_z
   _atom_site_adp_type
   _atom_site_U_iso_or_equiv
   _atom_site_type_symbol
   Al1        1.0     0.107155     0.099484     0.327330    Uiso  ? Al
   Al2        1.0     0.216107     0.207243     0.078284    Uiso  ? Al
   Al3        1.0     0.786206     0.090404     0.837148    Uiso  ? Al
   Al4        1.0     0.894063     0.203520     0.576130    Uiso  ? Al
   Al5        1.0     0.105516     0.099637     0.826035    Uiso  ? Al
   Al6        1.0     0.210256     0.212504     0.573751    Uiso  ? Al
   Al7        1.0     0.784336     0.092136     0.321990    Uiso  ? Al
   Al8        1.0     0.892459     0.205235     0.077354    Uiso  ? Al
   Al9        1.0     0.440148     0.100557     0.861261    Uiso  ? Al
   Al10       1.0     0.106365     0.431001     0.325732    Uiso  ? Al
   Al11       1.0     0.218256     0.541394     0.077183    Uiso  ? Al
   Al12       1.0     0.783747     0.422626     0.824932    Uiso  ? Al
   Al13       1.0     0.895535     0.533941     0.574898    Uiso  ? Al
   Al14       1.0     0.563023     0.527252     0.086542    Uiso  ? Al
   Al15       1.0     0.109917     0.427548     0.828402    Uiso  ? Al
   Al16       1.0     0.215632     0.544186     0.577049    Uiso  ? Al
   Al17       1.0     0.780096     0.427533     0.329608    Uiso  ? Al
   Al18       1.0     0.890150     0.535880     0.077097    Uiso  ? Al
   Al19       1.0     0.441537     0.427682     0.850197    Uiso  ? Al
   Al20       1.0     0.553773     0.539044     0.569437    Uiso  ? Al
   Al21       1.0     0.109125     0.758105     0.327175    Uiso  ? Al
   Al22       1.0     0.207627     0.879285     0.086171    Uiso  ? Al
   Al23       1.0     0.791338     0.755440     0.830979    Uiso  ? Al
   Al24       1.0     0.899422     0.869541     0.574483    Uiso  ? Al
   Al25       1.0     0.444311     0.757929     0.317644    Uiso  ? Al
   Al26       1.0     0.561435     0.872119     0.089690    Uiso  ? Al
   Al27       1.0     0.105229     0.761809     0.826299    Uiso  ? Al
   Al28       1.0     0.215445     0.873861     0.571691    Uiso  ? Al
   Al29       1.0     0.784865     0.756470     0.324310    Uiso  ? Al
   Al30       1.0     0.893430     0.870310     0.078481    Uiso  ? Al
   Mg1        1.0     0.437339     0.101567     0.321103    Uiso  ? Mg
   Mg2        1.0     0.561423     0.204186     0.087308    Uiso  ? Mg
   Mg3        1.0     0.438283     0.431729     0.323873    Uiso  ? Mg
   Hf1        1.0     0.557283     0.210310     0.595561    Uiso  ? Hf
   Hf2        1.0     0.440543     0.758183     0.855248    Uiso  ? Hf
   Hf3        1.0     0.557491     0.869043     0.583233    Uiso  ? Hf
   N1         1.0     0.204071     0.216175     0.378381    Uiso  ? N
   N2         1.0     0.108735     0.097127     0.130150    Uiso  ? N
   N3         1.0     0.891035     0.207573     0.878479    Uiso  ? N
   N4         1.0     0.801697     0.082486     0.636541    Uiso  ? N
   N5         1.0     0.573508     0.197041     0.378555    Uiso  ? N
   N6         1.0     0.436125     0.088645     0.098879    Uiso  ? N
   N7         1.0     0.214550     0.208327     0.878645    Uiso  ? N
   N8         1.0     0.111549     0.092693     0.627441    Uiso  ? N
   N9         1.0     0.889718     0.205266     0.379475    Uiso  ? N
   N10        1.0     0.798135     0.085022     0.124703    Uiso  ? N
   N11        1.0     0.560856     0.203270     0.854584    Uiso  ? N
   N12        1.0     0.422344     0.103293     0.633916    Uiso  ? N
   N13        1.0     0.204635     0.546080     0.381784    Uiso  ? N
   N14        1.0     0.108535     0.429201     0.125986    Uiso  ? N
   N15        1.0     0.889099     0.536713     0.878177    Uiso  ? N
   N16        1.0     0.776441     0.428838     0.625630    Uiso  ? N
   N17        1.0     0.562025     0.546552     0.373498    Uiso  ? N
   N18        1.0     0.433939     0.441646     0.106929    Uiso  ? N
   N19        1.0     0.215432     0.542820     0.876916    Uiso  ? N
   N20        1.0     0.109549     0.428606     0.631121    Uiso  ? N
   N21        1.0     0.888441     0.539511     0.377766    Uiso  ? N
   N22        1.0     0.781967     0.425256     0.130803    Uiso  ? N
   N23        1.0     0.572130     0.518707     0.884248    Uiso  ? N
   N24        1.0     0.431513     0.451389     0.635359    Uiso  ? N
   N25        1.0     0.223413     0.871599     0.371707    Uiso  ? N
   N26        1.0     0.109455     0.759620     0.130235    Uiso  ? N
   N27        1.0     0.891746     0.869199     0.880923    Uiso  ? N
   N28        1.0     0.798828     0.752478     0.630759    Uiso  ? N
   N29        1.0     0.562247     0.858500     0.365466    Uiso  ? N
   N30        1.0     0.443120     0.760965     0.110500    Uiso  ? N
   N31        1.0     0.198067     0.884088     0.885708    Uiso  ? N
   N32        1.0     0.111978     0.763165     0.628456    Uiso  ? N
   N33        1.0     0.889951     0.871779     0.377271    Uiso  ? N
   N34        1.0     0.781729     0.758571     0.125399    Uiso  ? N
   N35        1.0     0.570009     0.872693     0.866453    Uiso  ? N
   N36        1.0     0.432065     0.755754     0.632054    Uiso  ? N
