
#======================================================================
# CRYSTAL DATA
#----------------------------------------------------------------------
data_VESTA_phase_1

_chemical_name_common                  'Al   Mg   Hf   N                      '
_cell_length_a                         9.622566
_cell_length_b                         9.594250
_cell_length_c                         10.052678
_cell_angle_alpha                      89.951286
_cell_angle_beta                       89.989738
_cell_angle_gamma                      60.099018
_cell_volume                           804.538115
_space_group_name_H-M_alt              'P 1'
_space_group_IT_number                 1

loop_
_space_group_symop_operation_xyz
   'x, y, z'

loop_
   _atom_site_label
   _atom_site_occupancy
   _atom_site_fract_x
   _atom_site_fract_y
   _atom_site_fract_z
   _atom_site_adp_type
   _atom_site_U_iso_or_equiv
   _atom_site_type_symbol
   Al1        1.0     0.109340     0.098527     0.309427    Uiso  ? Al
   Al2        1.0     0.219755     0.206127     0.059349    Uiso  ? Al
   Al3        1.0     0.786603     0.090404     0.814037    Uiso  ? Al
   Al4        1.0     0.894758     0.204402     0.556573    Uiso  ? Al
   Al5        1.0     0.103586     0.100783     0.809435    Uiso  ? Al
   Al6        1.0     0.209883     0.211923     0.557268    Uiso  ? Al
   Al7        1.0     0.782570     0.092213     0.307403    Uiso  ? Al
   Al8        1.0     0.890968     0.204375     0.062789    Uiso  ? Al
   Al9        1.0     0.438112     0.101062     0.824414    Uiso  ? Al
   Al10       1.0     0.108337     0.429485     0.309872    Uiso  ? Al
   Al11       1.0     0.222135     0.539186     0.060755    Uiso  ? Al
   Al12       1.0     0.784042     0.421833     0.809314    Uiso  ? Al
   Al13       1.0     0.895445     0.533297     0.556816    Uiso  ? Al
   Al14       1.0     0.559963     0.528558     0.065001    Uiso  ? Al
   Al15       1.0     0.109447     0.428546     0.810534    Uiso  ? Al
   Al16       1.0     0.213959     0.545702     0.558024    Uiso  ? Al
   Al17       1.0     0.778825     0.428388     0.310711    Uiso  ? Al
   Al18       1.0     0.890653     0.536332     0.060552    Uiso  ? Al
   Al19       1.0     0.439704     0.429858     0.816878    Uiso  ? Al
   Al20       1.0     0.555606     0.538821     0.552852    Uiso  ? Al
   Al21       1.0     0.110403     0.757891     0.308979    Uiso  ? Al
   Al22       1.0     0.211049     0.877867     0.066810    Uiso  ? Al
   Al23       1.0     0.789375     0.757051     0.813678    Uiso  ? Al
   Al24       1.0     0.899829     0.868001     0.555970    Uiso  ? Al
   Al25       1.0     0.445296     0.756777     0.298949    Uiso  ? Al
   Al26       1.0     0.559826     0.875079     0.063653    Uiso  ? Al
   Al27       1.0     0.104187     0.762100     0.809885    Uiso  ? Al
   Al28       1.0     0.214239     0.874356     0.554907    Uiso  ? Al
   Al29       1.0     0.784010     0.756650     0.304452    Uiso  ? Al
   Al30       1.0     0.892018     0.872100     0.062212    Uiso  ? Al
   Mg1        1.0     0.439501     0.101615     0.298983    Uiso  ? Mg
   Mg2        1.0     0.559344     0.205665     0.056083    Uiso  ? Mg
   Mg3        1.0     0.441855     0.428917     0.307825    Uiso  ? Mg
   Hf1        1.0     0.557533     0.209236     0.577383    Uiso  ? Hf
   Hf2        1.0     0.440348     0.759590     0.830586    Uiso  ? Hf
   Hf3        1.0     0.558123     0.867456     0.556011    Uiso  ? Hf
   N1         1.0     0.206541     0.214392     0.371325    Uiso  ? N
   N2         1.0     0.109890     0.096801     0.119251    Uiso  ? N
   N3         1.0     0.889366     0.206742     0.869959    Uiso  ? N
   N4         1.0     0.803308     0.081710     0.623266    Uiso  ? N
   N5         1.0     0.573778     0.194618     0.375775    Uiso  ? N
   N6         1.0     0.436615     0.090164     0.095466    Uiso  ? N
   N7         1.0     0.214928     0.208395     0.866818    Uiso  ? N
   N8         1.0     0.110944     0.093034     0.618266    Uiso  ? N
   N9         1.0     0.890110     0.205634     0.367978    Uiso  ? N
   N10        1.0     0.794561     0.086177     0.118869    Uiso  ? N
   N11        1.0     0.559363     0.204948     0.836825    Uiso  ? N
   N12        1.0     0.423011     0.098874     0.627209    Uiso  ? N
   N13        1.0     0.205532     0.546148     0.372343    Uiso  ? N
   N14        1.0     0.109786     0.428257     0.116767    Uiso  ? N
   N15        1.0     0.888721     0.537470     0.868086    Uiso  ? N
   N16        1.0     0.777406     0.427820     0.617101    Uiso  ? N
   N17        1.0     0.562868     0.547070     0.367497    Uiso  ? N
   N18        1.0     0.435895     0.440129     0.105075    Uiso  ? N
   N19        1.0     0.217436     0.542063     0.866584    Uiso  ? N
   N20        1.0     0.110139     0.428605     0.620454    Uiso  ? N
   N21        1.0     0.888363     0.539489     0.367305    Uiso  ? N
   N22        1.0     0.780002     0.426674     0.119041    Uiso  ? N
   N23        1.0     0.569281     0.518712     0.871511    Uiso  ? N
   N24        1.0     0.430533     0.453095     0.622344    Uiso  ? N
   N25        1.0     0.223809     0.871463     0.363286    Uiso  ? N
   N26        1.0     0.110196     0.759642     0.119042    Uiso  ? N
   N27        1.0     0.890096     0.871270     0.870662    Uiso  ? N
   N28        1.0     0.796237     0.753022     0.621487    Uiso  ? N
   N29        1.0     0.562163     0.858571     0.353090    Uiso  ? N
   N30        1.0     0.443924     0.760346     0.099717    Uiso  ? N
   N31        1.0     0.198114     0.884400     0.874246    Uiso  ? N
   N32        1.0     0.111536     0.762754     0.619360    Uiso  ? N
   N33        1.0     0.890267     0.870452     0.367075    Uiso  ? N
   N34        1.0     0.781369     0.758837     0.114328    Uiso  ? N
   N35        1.0     0.568774     0.875621     0.863469    Uiso  ? N
   N36        1.0     0.433329     0.756089     0.620282    Uiso  ? N
