
#======================================================================
# CRYSTAL DATA
#----------------------------------------------------------------------
data_VESTA_phase_1

_chemical_name_common                  'Al   Mg   Hf   N                      '
_cell_length_a                         10.091008
_cell_length_b                         10.040119
_cell_length_c                         8.711047
_cell_angle_alpha                      90.070229
_cell_angle_beta                       90.033249
_cell_angle_gamma                      60.081680
_cell_volume                           764.946323
_space_group_name_H-M_alt              'P 1'
_space_group_IT_number                 1

loop_
_space_group_symop_operation_xyz
   'x, y, z'

loop_
   _atom_site_label
   _atom_site_occupancy
   _atom_site_fract_x
   _atom_site_fract_y
   _atom_site_fract_z
   _atom_site_adp_type
   _atom_site_U_iso_or_equiv
   _atom_site_type_symbol
   Al1        1.0     0.106538     0.099371     0.362295    Uiso  ? Al
   Al2        1.0     0.216188     0.207851     0.117233    Uiso  ? Al
   Al3        1.0     0.783611     0.091989     0.864984    Uiso  ? Al
   Al4        1.0     0.893723     0.204366     0.611983    Uiso  ? Al
   Al5        1.0     0.107607     0.098707     0.863921    Uiso  ? Al
   Al6        1.0     0.212696     0.210383     0.609167    Uiso  ? Al
   Al7        1.0     0.785198     0.091415     0.333987    Uiso  ? Al
   Al8        1.0     0.892687     0.205601     0.107929    Uiso  ? Al
   Al9        1.0     0.438350     0.100775     0.871407    Uiso  ? Al
   Al10       1.0     0.104917     0.430741     0.367423    Uiso  ? Al
   Al11       1.0     0.218071     0.540475     0.118864    Uiso  ? Al
   Al12       1.0     0.780744     0.424452     0.862543    Uiso  ? Al
   Al13       1.0     0.892732     0.535773     0.616115    Uiso  ? Al
   Al14       1.0     0.559562     0.532144     0.122608    Uiso  ? Al
   Al15       1.0     0.111733     0.427715     0.861333    Uiso  ? Al
   Al16       1.0     0.217656     0.543180     0.608680    Uiso  ? Al
   Al17       1.0     0.782707     0.426484     0.360972    Uiso  ? Al
   Al18       1.0     0.892054     0.534214     0.112398    Uiso  ? Al
   Al19       1.0     0.440054     0.428775     0.868011    Uiso  ? Al
   Al20       1.0     0.557706     0.534976     0.590785    Uiso  ? Al
   Al21       1.0     0.107111     0.760361     0.362429    Uiso  ? Al
   Al22       1.0     0.212748     0.876875     0.119892    Uiso  ? Al
   Al23       1.0     0.785516     0.757495     0.872618    Uiso  ? Al
   Al24       1.0     0.898495     0.868679     0.614968    Uiso  ? Al
   Al25       1.0     0.442699     0.758689     0.345782    Uiso  ? Al
   Al26       1.0     0.557312     0.873434     0.118344    Uiso  ? Al
   Al27       1.0     0.108432     0.758100     0.866232    Uiso  ? Al
   Al28       1.0     0.211697     0.876192     0.602017    Uiso  ? Al
   Al29       1.0     0.789813     0.754555     0.349423    Uiso  ? Al
   Al30       1.0     0.894537     0.870395     0.108616    Uiso  ? Al
   Mg1        1.0     0.436482     0.102527     0.340392    Uiso  ? Mg
   Mg2        1.0     0.557212     0.205929     0.106442    Uiso  ? Mg
   Mg3        1.0     0.438108     0.432578     0.345942    Uiso  ? Mg
   Hf1        1.0     0.560247     0.209165     0.597869    Uiso  ? Hf
   Hf2        1.0     0.441036     0.756840     0.860162    Uiso  ? Hf
   Hf3        1.0     0.561206     0.871095     0.592549    Uiso  ? Hf
   N1         1.0     0.203153     0.216593     0.345924    Uiso  ? N
   N2         1.0     0.110661     0.094076     0.095353    Uiso  ? N
   N3         1.0     0.891352     0.207736     0.847934    Uiso  ? N
   N4         1.0     0.799020     0.083715     0.612846    Uiso  ? N
   N5         1.0     0.574216     0.197146     0.353572    Uiso  ? N
   N6         1.0     0.433025     0.087303     0.093304    Uiso  ? N
   N7         1.0     0.218654     0.206105     0.842237    Uiso  ? N
   N8         1.0     0.110158     0.094412     0.593901    Uiso  ? N
   N9         1.0     0.889640     0.205854     0.346129    Uiso  ? N
   N10        1.0     0.796548     0.086194     0.095450    Uiso  ? N
   N11        1.0     0.556767     0.204153     0.853689    Uiso  ? N
   N12        1.0     0.427307     0.104025     0.602620    Uiso  ? N
   N13        1.0     0.203617     0.545989     0.346810    Uiso  ? N
   N14        1.0     0.109997     0.428157     0.088273    Uiso  ? N
   N15        1.0     0.887127     0.539541     0.846194    Uiso  ? N
   N16        1.0     0.779881     0.427366     0.594986    Uiso  ? N
   N17        1.0     0.564876     0.543710     0.351491    Uiso  ? N
   N18        1.0     0.433171     0.446168     0.093360    Uiso  ? N
   N19        1.0     0.219082     0.540678     0.840967    Uiso  ? N
   N20        1.0     0.108244     0.429361     0.598804    Uiso  ? N
   N21        1.0     0.890050     0.536857     0.341293    Uiso  ? N
   N22        1.0     0.778145     0.427196     0.095969    Uiso  ? N
   N23        1.0     0.565612     0.522730     0.844505    Uiso  ? N
   N24        1.0     0.434208     0.445120     0.603721    Uiso  ? N
   N25        1.0     0.220401     0.873059     0.348198    Uiso  ? N
   N26        1.0     0.112193     0.760393     0.095336    Uiso  ? N
   N27        1.0     0.891253     0.867016     0.850211    Uiso  ? N
   N28        1.0     0.798839     0.752432     0.589168    Uiso  ? N
   N29        1.0     0.565001     0.857563     0.345136    Uiso  ? N
   N30        1.0     0.441759     0.761416     0.107719    Uiso  ? N
   N31        1.0     0.204107     0.879953     0.843832    Uiso  ? N
   N32        1.0     0.110861     0.761918     0.592570    Uiso  ? N
   N33        1.0     0.891107     0.872482     0.341224    Uiso  ? N
   N34        1.0     0.779662     0.759749     0.099819    Uiso  ? N
   N35        1.0     0.566300     0.872872     0.849090    Uiso  ? N
   N36        1.0     0.434328     0.758011     0.599026    Uiso  ? N
