
#======================================================================
# CRYSTAL DATA
#----------------------------------------------------------------------
data_VESTA_phase_1

_chemical_name_common                  'Al   Mg   Hf   N                      '
_cell_length_a                         9.622570
_cell_length_b                         9.594255
_cell_length_c                         10.052671
_cell_angle_alpha                      89.951164
_cell_angle_beta                       89.989799
_cell_angle_gamma                      60.098976
_cell_volume                           804.538039
_space_group_name_H-M_alt              'P 1'
_space_group_IT_number                 1

loop_
_space_group_symop_operation_xyz
   'x, y, z'

loop_
   _atom_site_label
   _atom_site_occupancy
   _atom_site_fract_x
   _atom_site_fract_y
   _atom_site_fract_z
   _atom_site_adp_type
   _atom_site_U_iso_or_equiv
   _atom_site_type_symbol
   Al1        1.0     0.109349     0.098528     0.302596    Uiso  ? Al
   Al2        1.0     0.219764     0.206129     0.052517    Uiso  ? Al
   Al3        1.0     0.786611     0.090406     0.807208    Uiso  ? Al
   Al4        1.0     0.894766     0.204404     0.549739    Uiso  ? Al
   Al5        1.0     0.103593     0.100786     0.802604    Uiso  ? Al
   Al6        1.0     0.209890     0.211926     0.550435    Uiso  ? Al
   Al7        1.0     0.782578     0.092215     0.300570    Uiso  ? Al
   Al8        1.0     0.890976     0.204378     0.055962    Uiso  ? Al
   Al9        1.0     0.438120     0.101064     0.817581    Uiso  ? Al
   Al10       1.0     0.108346     0.429488     0.303041    Uiso  ? Al
   Al11       1.0     0.222145     0.539188     0.053926    Uiso  ? Al
   Al12       1.0     0.784051     0.421835     0.802483    Uiso  ? Al
   Al13       1.0     0.895454     0.533300     0.549984    Uiso  ? Al
   Al14       1.0     0.559971     0.528559     0.058170    Uiso  ? Al
   Al15       1.0     0.109455     0.428549     0.803706    Uiso  ? Al
   Al16       1.0     0.213966     0.545705     0.551193    Uiso  ? Al
   Al17       1.0     0.778832     0.428391     0.303883    Uiso  ? Al
   Al18       1.0     0.890661     0.536335     0.053724    Uiso  ? Al
   Al19       1.0     0.439712     0.429861     0.810043    Uiso  ? Al
   Al20       1.0     0.555615     0.538824     0.546025    Uiso  ? Al
   Al21       1.0     0.110412     0.757894     0.302148    Uiso  ? Al
   Al22       1.0     0.211058     0.877870     0.059976    Uiso  ? Al
   Al23       1.0     0.789383     0.757054     0.806850    Uiso  ? Al
   Al24       1.0     0.899837     0.868004     0.549139    Uiso  ? Al
   Al25       1.0     0.445304     0.756779     0.292120    Uiso  ? Al
   Al26       1.0     0.559834     0.875081     0.056828    Uiso  ? Al
   Al27       1.0     0.104195     0.762102     0.803056    Uiso  ? Al
   Al28       1.0     0.214247     0.874358     0.548079    Uiso  ? Al
   Al29       1.0     0.784018     0.756653     0.297624    Uiso  ? Al
   Al30       1.0     0.892026     0.872102     0.055385    Uiso  ? Al
   Mg1        1.0     0.439508     0.101618     0.292153    Uiso  ? Mg
   Mg2        1.0     0.559351     0.205668     0.049251    Uiso  ? Mg
   Mg3        1.0     0.441864     0.428920     0.300996    Uiso  ? Mg
   Hf1        1.0     0.557542     0.209238     0.570553    Uiso  ? Hf
   Hf2        1.0     0.440357     0.759593     0.823757    Uiso  ? Hf
   Hf3        1.0     0.558131     0.867458     0.549181    Uiso  ? Hf
   N1         1.0     0.206549     0.214394     0.364493    Uiso  ? N
   N2         1.0     0.109899     0.096803     0.112420    Uiso  ? N
   N3         1.0     0.889375     0.206745     0.863130    Uiso  ? N
   N4         1.0     0.803317     0.081712     0.616436    Uiso  ? N
   N5         1.0     0.573787     0.194620     0.368944    Uiso  ? N
   N6         1.0     0.436623     0.090167     0.088638    Uiso  ? N
   N7         1.0     0.214937     0.208397     0.859987    Uiso  ? N
   N8         1.0     0.110952     0.093038     0.611434    Uiso  ? N
   N9         1.0     0.890118     0.205636     0.361145    Uiso  ? N
   N10        1.0     0.794568     0.086180     0.112037    Uiso  ? N
   N11        1.0     0.559371     0.204951     0.829994    Uiso  ? N
   N12        1.0     0.423020     0.098877     0.620377    Uiso  ? N
   N13        1.0     0.205540     0.546151     0.365511    Uiso  ? N
   N14        1.0     0.109794     0.428259     0.109935    Uiso  ? N
   N15        1.0     0.888729     0.537472     0.861257    Uiso  ? N
   N16        1.0     0.777416     0.427822     0.610270    Uiso  ? N
   N17        1.0     0.562876     0.547073     0.360670    Uiso  ? N
   N18        1.0     0.435904     0.440131     0.098247    Uiso  ? N
   N19        1.0     0.217445     0.542065     0.859754    Uiso  ? N
   N20        1.0     0.110147     0.428608     0.613625    Uiso  ? N
   N21        1.0     0.888372     0.539491     0.360475    Uiso  ? N
   N22        1.0     0.780009     0.426677     0.112212    Uiso  ? N
   N23        1.0     0.569289     0.518714     0.864679    Uiso  ? N
   N24        1.0     0.430541     0.453097     0.615511    Uiso  ? N
   N25        1.0     0.223818     0.871465     0.356457    Uiso  ? N
   N26        1.0     0.110205     0.759645     0.112211    Uiso  ? N
   N27        1.0     0.890105     0.871272     0.863834    Uiso  ? N
   N28        1.0     0.796245     0.753025     0.614657    Uiso  ? N
   N29        1.0     0.562171     0.858573     0.346259    Uiso  ? N
   N30        1.0     0.443932     0.760348     0.092887    Uiso  ? N
   N31        1.0     0.198123     0.884403     0.867413    Uiso  ? N
   N32        1.0     0.111543     0.762756     0.612530    Uiso  ? N
   N33        1.0     0.890276     0.870454     0.360243    Uiso  ? N
   N34        1.0     0.781377     0.758839     0.107501    Uiso  ? N
   N35        1.0     0.568783     0.875624     0.856641    Uiso  ? N
   N36        1.0     0.433337     0.756092     0.613454    Uiso  ? N
