
#======================================================================
# CRYSTAL DATA
#----------------------------------------------------------------------
data_VESTA_phase_1

_chemical_name_common                  'Al   Mg   Hf   N                      '
_cell_length_a                         9.623714
_cell_length_b                         9.595243
_cell_length_c                         10.049604
_cell_angle_alpha                      89.954247
_cell_angle_beta                       89.989914
_cell_angle_gamma                      60.100887
_cell_volume                           804.486540
_space_group_name_H-M_alt              'P 1'
_space_group_IT_number                 1

loop_
_space_group_symop_operation_xyz
   'x, y, z'

loop_
   _atom_site_label
   _atom_site_occupancy
   _atom_site_fract_x
   _atom_site_fract_y
   _atom_site_fract_z
   _atom_site_adp_type
   _atom_site_U_iso_or_equiv
   _atom_site_type_symbol
   Al1        1.0     0.109314     0.098535     0.320347    Uiso  ? Al
   Al2        1.0     0.219723     0.206131     0.070262    Uiso  ? Al
   Al3        1.0     0.786601     0.090391     0.824975    Uiso  ? Al
   Al4        1.0     0.894742     0.204393     0.567486    Uiso  ? Al
   Al5        1.0     0.103585     0.100772     0.820332    Uiso  ? Al
   Al6        1.0     0.209878     0.211923     0.568173    Uiso  ? Al
   Al7        1.0     0.782559     0.092217     0.318294    Uiso  ? Al
   Al8        1.0     0.890971     0.204375     0.073684    Uiso  ? Al
   Al9        1.0     0.438106     0.101069     0.835420    Uiso  ? Al
   Al10       1.0     0.108309     0.429494     0.320769    Uiso  ? Al
   Al11       1.0     0.222106     0.539194     0.071659    Uiso  ? Al
   Al12       1.0     0.784042     0.421822     0.820212    Uiso  ? Al
   Al13       1.0     0.895434     0.533293     0.567717    Uiso  ? Al
   Al14       1.0     0.559983     0.528513     0.075922    Uiso  ? Al
   Al15       1.0     0.109438     0.428534     0.821451    Uiso  ? Al
   Al16       1.0     0.213949     0.545688     0.568945    Uiso  ? Al
   Al17       1.0     0.778802     0.428389     0.321635    Uiso  ? Al
   Al18       1.0     0.890636     0.536328     0.071472    Uiso  ? Al
   Al19       1.0     0.439710     0.429827     0.827842    Uiso  ? Al
   Al20       1.0     0.555568     0.538827     0.563784    Uiso  ? Al
   Al21       1.0     0.110378     0.757893     0.319894    Uiso  ? Al
   Al22       1.0     0.210988     0.877891     0.077727    Uiso  ? Al
   Al23       1.0     0.789409     0.757013     0.824580    Uiso  ? Al
   Al24       1.0     0.899819     0.868002     0.566877    Uiso  ? Al
   Al25       1.0     0.445283     0.756789     0.309861    Uiso  ? Al
   Al26       1.0     0.559850     0.875066     0.074536    Uiso  ? Al
   Al27       1.0     0.104180     0.762093     0.820791    Uiso  ? Al
   Al28       1.0     0.214243     0.874339     0.565832    Uiso  ? Al
   Al29       1.0     0.783970     0.756663     0.315403    Uiso  ? Al
   Al30       1.0     0.892013     0.872084     0.073126    Uiso  ? Al
   Mg1        1.0     0.439487     0.101579     0.309910    Uiso  ? Mg
   Mg2        1.0     0.559350     0.205659     0.067059    Uiso  ? Mg
   Mg3        1.0     0.441808     0.428940     0.318738    Uiso  ? Mg
   Hf1        1.0     0.557529     0.209221     0.588292    Uiso  ? Hf
   Hf2        1.0     0.440330     0.759558     0.841642    Uiso  ? Hf
   Hf3        1.0     0.558091     0.867442     0.567072    Uiso  ? Hf
   N1         1.0     0.206520     0.214406     0.382171    Uiso  ? N
   N2         1.0     0.109870     0.096806     0.130127    Uiso  ? N
   N3         1.0     0.889374     0.206740     0.880817    Uiso  ? N
   N4         1.0     0.803291     0.081706     0.634143    Uiso  ? N
   N5         1.0     0.573755     0.194635     0.386595    Uiso  ? N
   N6         1.0     0.436602     0.090144     0.106279    Uiso  ? N
   N7         1.0     0.214906     0.208397     0.877696    Uiso  ? N
   N8         1.0     0.110933     0.093031     0.629118    Uiso  ? N
   N9         1.0     0.890089     0.205638     0.378845    Uiso  ? N
   N10        1.0     0.794574     0.086166     0.129709    Uiso  ? N
   N11        1.0     0.559377     0.204929     0.847748    Uiso  ? N
   N12        1.0     0.422982     0.098916     0.638106    Uiso  ? N
   N13        1.0     0.205498     0.546158     0.383206    Uiso  ? N
   N14        1.0     0.109765     0.428262     0.127625    Uiso  ? N
   N15        1.0     0.888720     0.537456     0.878963    Uiso  ? N
   N16        1.0     0.777387     0.427822     0.627958    Uiso  ? N
   N17        1.0     0.562836     0.547084     0.378357    Uiso  ? N
   N18        1.0     0.435861     0.440141     0.115917    Uiso  ? N
   N19        1.0     0.217423     0.542062     0.877450    Uiso  ? N
   N20        1.0     0.110114     0.428602     0.631325    Uiso  ? N
   N21        1.0     0.888346     0.539490     0.378164    Uiso  ? N
   N22        1.0     0.779996     0.426661     0.129920    Uiso  ? N
   N23        1.0     0.569308     0.518667     0.882386    Uiso  ? N
   N24        1.0     0.430522     0.453059     0.633225    Uiso  ? N
   N25        1.0     0.223802     0.871462     0.374145    Uiso  ? N
   N26        1.0     0.110175     0.759639     0.129913    Uiso  ? N
   N27        1.0     0.890099     0.871248     0.881536    Uiso  ? N
   N28        1.0     0.796261     0.753001     0.632349    Uiso  ? N
   N29        1.0     0.562137     0.858565     0.364063    Uiso  ? N
   N30        1.0     0.443913     0.760349     0.110524    Uiso  ? N
   N31        1.0     0.198071     0.884414     0.885120    Uiso  ? N
   N32        1.0     0.111521     0.762750     0.630221    Uiso  ? N
   N33        1.0     0.890247     0.870465     0.377934    Uiso  ? N
   N34        1.0     0.781342     0.758842     0.125216    Uiso  ? N
   N35        1.0     0.568795     0.875588     0.874269    Uiso  ? N
   N36        1.0     0.433283     0.756066     0.631245    Uiso  ? N
