
#======================================================================
# CRYSTAL DATA
#----------------------------------------------------------------------
data_VESTA_phase_1

_chemical_name_common                  'Al   Mg   Hf   N                      '
_cell_length_a                         10.020455
_cell_length_b                         9.968966
_cell_length_c                         8.924601
_cell_angle_alpha                      90.063087
_cell_angle_beta                       90.026382
_cell_angle_gamma                      60.085243
_cell_volume                           772.732455
_space_group_name_H-M_alt              'P 1'
_space_group_IT_number                 1

loop_
_space_group_symop_operation_xyz
   'x, y, z'

loop_
   _atom_site_label
   _atom_site_occupancy
   _atom_site_fract_x
   _atom_site_fract_y
   _atom_site_fract_z
   _atom_site_adp_type
   _atom_site_U_iso_or_equiv
   _atom_site_type_symbol
   Al1        1.0     0.106535     0.099851     0.369359    Uiso  ? Al
   Al2        1.0     0.215163     0.208406     0.122391    Uiso  ? Al
   Al3        1.0     0.782843     0.092496     0.871942    Uiso  ? Al
   Al4        1.0     0.894274     0.204554     0.620789    Uiso  ? Al
   Al5        1.0     0.107257     0.098592     0.871023    Uiso  ? Al
   Al6        1.0     0.212728     0.210246     0.616830    Uiso  ? Al
   Al7        1.0     0.786197     0.090789     0.345022    Uiso  ? Al
   Al8        1.0     0.892551     0.205308     0.117138    Uiso  ? Al
   Al9        1.0     0.439543     0.099638     0.876047    Uiso  ? Al
   Al10       1.0     0.104777     0.430574     0.373421    Uiso  ? Al
   Al11       1.0     0.217164     0.541012     0.123731    Uiso  ? Al
   Al12       1.0     0.780408     0.424295     0.869530    Uiso  ? Al
   Al13       1.0     0.892662     0.536036     0.622371    Uiso  ? Al
   Al14       1.0     0.559829     0.532914     0.129093    Uiso  ? Al
   Al15       1.0     0.111767     0.427788     0.866142    Uiso  ? Al
   Al16       1.0     0.217801     0.543188     0.615140    Uiso  ? Al
   Al17       1.0     0.783455     0.426240     0.368305    Uiso  ? Al
   Al18       1.0     0.892284     0.533961     0.117984    Uiso  ? Al
   Al19       1.0     0.440729     0.428204     0.872299    Uiso  ? Al
   Al20       1.0     0.557650     0.534606     0.596292    Uiso  ? Al
   Al21       1.0     0.106969     0.760186     0.369141    Uiso  ? Al
   Al22       1.0     0.213123     0.876694     0.125427    Uiso  ? Al
   Al23       1.0     0.784367     0.758357     0.878086    Uiso  ? Al
   Al24       1.0     0.899000     0.867826     0.622949    Uiso  ? Al
   Al25       1.0     0.442125     0.758678     0.349796    Uiso  ? Al
   Al26       1.0     0.557388     0.872548     0.125159    Uiso  ? Al
   Al27       1.0     0.108363     0.758350     0.872110    Uiso  ? Al
   Al28       1.0     0.210667     0.876689     0.609300    Uiso  ? Al
   Al29       1.0     0.791306     0.753611     0.355094    Uiso  ? Al
   Al30       1.0     0.894543     0.870931     0.115604    Uiso  ? Al
   Mg1        1.0     0.435677     0.103117     0.342086    Uiso  ? Mg
   Mg2        1.0     0.558206     0.205590     0.110325    Uiso  ? Mg
   Mg3        1.0     0.437395     0.432989     0.348567    Uiso  ? Mg
   Hf1        1.0     0.559711     0.209358     0.596569    Uiso  ? Hf
   Hf2        1.0     0.441607     0.757295     0.860743    Uiso  ? Hf
   Hf3        1.0     0.560981     0.871205     0.591994    Uiso  ? Hf
   N1         1.0     0.201745     0.217382     0.338790    Uiso  ? N
   N2         1.0     0.110849     0.093567     0.088494    Uiso  ? N
   N3         1.0     0.890884     0.207258     0.840666    Uiso  ? N
   N4         1.0     0.800833     0.082775     0.599595    Uiso  ? N
   N5         1.0     0.573879     0.197471     0.353907    Uiso  ? N
   N6         1.0     0.433387     0.086743     0.092433    Uiso  ? N
   N7         1.0     0.219577     0.205337     0.837482    Uiso  ? N
   N8         1.0     0.109818     0.095329     0.587813    Uiso  ? N
   N9         1.0     0.890488     0.206467     0.337709    Uiso  ? N
   N10        1.0     0.796383     0.086329     0.091108    Uiso  ? N
   N11        1.0     0.556972     0.203910     0.850205    Uiso  ? N
   N12        1.0     0.425937     0.104764     0.595469    Uiso  ? N
   N13        1.0     0.202153     0.546559     0.340169    Uiso  ? N
   N14        1.0     0.109969     0.428225     0.082157    Uiso  ? N
   N15        1.0     0.886648     0.540156     0.840833    Uiso  ? N
   N16        1.0     0.781050     0.426839     0.588646    Uiso  ? N
   N17        1.0     0.565471     0.543596     0.348386    Uiso  ? N
   N18        1.0     0.433494     0.446717     0.091223    Uiso  ? N
   N19        1.0     0.219713     0.540554     0.836045    Uiso  ? N
   N20        1.0     0.108239     0.429251     0.593835    Uiso  ? N
   N21        1.0     0.890484     0.536041     0.335094    Uiso  ? N
   N22        1.0     0.777478     0.427522     0.088978    Uiso  ? N
   N23        1.0     0.565677     0.521937     0.834985    Uiso  ? N
   N24        1.0     0.432977     0.445457     0.596907    Uiso  ? N
   N25        1.0     0.220010     0.873261     0.343675    Uiso  ? N
   N26        1.0     0.112491     0.760687     0.088658    Uiso  ? N
   N27        1.0     0.890568     0.867721     0.843700    Uiso  ? N
   N28        1.0     0.800610     0.751534     0.581491    Uiso  ? N
   N29        1.0     0.565203     0.857050     0.345422    Uiso  ? N
   N30        1.0     0.442372     0.761238     0.103609    Uiso  ? N
   N31        1.0     0.203436     0.880408     0.835735    Uiso  ? N
   N32        1.0     0.110593     0.761439     0.587010    Uiso  ? N
   N33        1.0     0.892291     0.871377     0.333794    Uiso  ? N
   N34        1.0     0.778815     0.760096     0.095658    Uiso  ? N
   N35        1.0     0.566455     0.874150     0.841821    Uiso  ? N
   N36        1.0     0.433511     0.758078     0.597715    Uiso  ? N
