
#======================================================================
# CRYSTAL DATA
#----------------------------------------------------------------------
data_VESTA_phase_1

_chemical_name_common                  'Al   Mg   Hf   N                      '
_cell_length_a                         9.622703
_cell_length_b                         9.594376
_cell_length_c                         10.052299
_cell_angle_alpha                      89.951897
_cell_angle_beta                       89.989708
_cell_angle_gamma                      60.099312
_cell_volume                           804.532076
_space_group_name_H-M_alt              'P 1'
_space_group_IT_number                 1

loop_
_space_group_symop_operation_xyz
   'x, y, z'

loop_
   _atom_site_label
   _atom_site_occupancy
   _atom_site_fract_x
   _atom_site_fract_y
   _atom_site_fract_z
   _atom_site_adp_type
   _atom_site_U_iso_or_equiv
   _atom_site_type_symbol
   Al1        1.0     0.109329     0.098526     0.316601    Uiso  ? Al
   Al2        1.0     0.219746     0.206125     0.066524    Uiso  ? Al
   Al3        1.0     0.786595     0.090400     0.821207    Uiso  ? Al
   Al4        1.0     0.894749     0.204399     0.563745    Uiso  ? Al
   Al5        1.0     0.103579     0.100778     0.816608    Uiso  ? Al
   Al6        1.0     0.209874     0.211920     0.564442    Uiso  ? Al
   Al7        1.0     0.782562     0.092211     0.314573    Uiso  ? Al
   Al8        1.0     0.890962     0.204372     0.069957    Uiso  ? Al
   Al9        1.0     0.438104     0.101059     0.831591    Uiso  ? Al
   Al10       1.0     0.108327     0.429484     0.317046    Uiso  ? Al
   Al11       1.0     0.222125     0.539184     0.067928    Uiso  ? Al
   Al12       1.0     0.784035     0.421829     0.816486    Uiso  ? Al
   Al13       1.0     0.895437     0.533293     0.563986    Uiso  ? Al
   Al14       1.0     0.559958     0.528549     0.072171    Uiso  ? Al
   Al15       1.0     0.109439     0.428542     0.817708    Uiso  ? Al
   Al16       1.0     0.213951     0.545698     0.565200    Uiso  ? Al
   Al17       1.0     0.778816     0.428385     0.317883    Uiso  ? Al
   Al18       1.0     0.890645     0.536329     0.067725    Uiso  ? Al
   Al19       1.0     0.439698     0.429852     0.824055    Uiso  ? Al
   Al20       1.0     0.555595     0.538818     0.560023    Uiso  ? Al
   Al21       1.0     0.110393     0.757889     0.316153    Uiso  ? Al
   Al22       1.0     0.211035     0.877868     0.073985    Uiso  ? Al
   Al23       1.0     0.789372     0.757043     0.820845    Uiso  ? Al
   Al24       1.0     0.899821     0.867998     0.563140    Uiso  ? Al
   Al25       1.0     0.445289     0.756775     0.306117    Uiso  ? Al
   Al26       1.0     0.559822     0.875076     0.070818    Uiso  ? Al
   Al27       1.0     0.104179     0.762097     0.817058    Uiso  ? Al
   Al28       1.0     0.214232     0.874351     0.562079    Uiso  ? Al
   Al29       1.0     0.783999     0.756649     0.311624    Uiso  ? Al
   Al30       1.0     0.892010     0.872097     0.069381    Uiso  ? Al
   Mg1        1.0     0.439492     0.101608     0.306157    Uiso  ? Mg
   Mg2        1.0     0.559338     0.205661     0.063260    Uiso  ? Mg
   Mg3        1.0     0.441843     0.428917     0.314996    Uiso  ? Mg
   Hf1        1.0     0.557525     0.209231     0.584553    Uiso  ? Hf
   Hf2        1.0     0.440338     0.759584     0.837773    Uiso  ? Hf
   Hf3        1.0     0.558113     0.867449     0.563197    Uiso  ? Hf
   N1         1.0     0.206531     0.214391     0.378492    Uiso  ? N
   N2         1.0     0.109880     0.096800     0.126420    Uiso  ? N
   N3         1.0     0.889359     0.206739     0.877123    Uiso  ? N
   N4         1.0     0.803299     0.081706     0.630430    Uiso  ? N
   N5         1.0     0.573768     0.194619     0.382935    Uiso  ? N
   N6         1.0     0.436607     0.090159     0.102629    Uiso  ? N
   N7         1.0     0.214919     0.208393     0.873987    Uiso  ? N
   N8         1.0     0.110936     0.093030     0.625433    Uiso  ? N
   N9         1.0     0.890100     0.205633     0.375146    Uiso  ? N
   N10        1.0     0.794555     0.086173     0.126032    Uiso  ? N
   N11        1.0     0.559357     0.204942     0.843995    Uiso  ? N
   N12        1.0     0.423001     0.098875     0.634376    Uiso  ? N
   N13        1.0     0.205521     0.546147     0.379512    Uiso  ? N
   N14        1.0     0.109777     0.428256     0.123935    Uiso  ? N
   N15        1.0     0.888714     0.537466     0.875254    Uiso  ? N
   N16        1.0     0.777396     0.427818     0.624267    Uiso  ? N
   N17        1.0     0.562857     0.547069     0.374660    Uiso  ? N
   N18        1.0     0.435884     0.440127     0.112239    Uiso  ? N
   N19        1.0     0.217427     0.542061     0.873752    Uiso  ? N
   N20        1.0     0.110128     0.428602     0.627623    Uiso  ? N
   N21        1.0     0.888354     0.539487     0.374471    Uiso  ? N
   N22        1.0     0.779994     0.426670     0.126208    Uiso  ? N
   N23        1.0     0.569276     0.518705     0.878676    Uiso  ? N
   N24        1.0     0.430525     0.453088     0.629511    Uiso  ? N
   N25        1.0     0.223802     0.871461     0.370450    Uiso  ? N
   N26        1.0     0.110186     0.759640     0.126210    Uiso  ? N
   N27        1.0     0.890089     0.871265     0.877827    Uiso  ? N
   N28        1.0     0.796232     0.753017     0.628650    Uiso  ? N
   N29        1.0     0.562154     0.858567     0.360266    Uiso  ? N
   N30        1.0     0.443916     0.760344     0.106874    Uiso  ? N
   N31        1.0     0.198102     0.884400     0.881416    Uiso  ? N
   N32        1.0     0.111527     0.762751     0.626527    Uiso  ? N
   N33        1.0     0.890257     0.870451     0.374239    Uiso  ? N
   N34        1.0     0.781359     0.758836     0.121494    Uiso  ? N
   N35        1.0     0.568769     0.875615     0.870626    Uiso  ? N
   N36        1.0     0.433316     0.756083     0.627459    Uiso  ? N
