# generated using pymatgen
data_Zn3WN4
_symmetry_space_group_name_H-M   'P 1'
_cell_length_a   6.76176822
_cell_length_b   5.82470741
_cell_length_c   5.15703272
_cell_angle_alpha   89.73868907
_cell_angle_beta   89.99998829
_cell_angle_gamma   89.99995061
_symmetry_Int_Tables_number   1
_chemical_formula_structural   Zn3WN4
_chemical_formula_sum   'Zn6 W2 N8'
_cell_volume   203.10927932
_cell_formula_units_Z   2
loop_
 _symmetry_equiv_pos_site_id
 _symmetry_equiv_pos_as_xyz
  1  'x, y, z'
loop_
 _atom_site_type_symbol
 _atom_site_label
 _atom_site_symmetry_multiplicity
 _atom_site_fract_x
 _atom_site_fract_y
 _atom_site_fract_z
 _atom_site_occupancy
  Zn  Zn0  1  -0.23579198  0.84793567  0.15019650  1
  Zn  Zn1  1  -0.75309674  0.84793661  0.15019725  1
  Zn  Zn2  1  -0.99444441  0.67898286  0.67644385  1
  Zn  Zn3  1  -0.74132083  0.17776045  0.67639267  1
  Zn  Zn4  1  -0.24756856  0.17775999  0.67639200  1
  Zn  Zn5  1  -0.49444416  0.33578387  0.14719279  1
  W  W6  1  -0.99444435  0.34212113  0.18581906  1
  W  W7  1  -0.49444459  0.68050198  0.53401511  1
  N  N8  1  -0.75976336  0.18701400  0.07920530  1
  N  N9  1  -0.22912470  0.18701338  0.07920489  1
  N  N10  1  -0.99444412  0.65471742  0.08013339  1
  N  N11  1  -0.73431769  0.83818648  0.59752143  1
  N  N12  1  -0.25457161  0.83818600  0.59752154  1
  N  N13  1  -0.99444481  0.34089886  0.54973568  1
  N  N14  1  -0.49444443  0.68219006  0.14529856  1
  N  N15  1  -0.49444471  0.36078952  0.59534733  1
