# generated using pymatgen
data_Zn3WN4
_symmetry_space_group_name_H-M   'P 1'
_cell_length_a   6.78304267
_cell_length_b   5.84031041
_cell_length_c   5.06034072
_cell_angle_alpha   90.24882710
_cell_angle_beta   89.99998745
_cell_angle_gamma   90.00005979
_symmetry_Int_Tables_number   1
_chemical_formula_structural   Zn3WN4
_chemical_formula_sum   'Zn6 W2 N8'
_cell_volume   200.46388541
_cell_formula_units_Z   2
loop_
 _symmetry_equiv_pos_site_id
 _symmetry_equiv_pos_as_xyz
  1  'x, y, z'
loop_
 _atom_site_type_symbol
 _atom_site_label
 _atom_site_symmetry_multiplicity
 _atom_site_fract_x
 _atom_site_fract_y
 _atom_site_fract_z
 _atom_site_occupancy
  Zn  Zn0  1  -0.24103092  -0.84511162  0.15298577  1
  Zn  Zn1  1  -0.74785799  -0.84511321  0.15298549  1
  Zn  Zn2  1  -0.99444441  -0.67928038  0.67516051  1
  Zn  Zn3  1  -0.74216121  -0.17769737  0.67501399  1
  Zn  Zn4  1  -0.24672921  -0.17769653  0.67501405  1
  Zn  Zn5  1  -0.49444303  -0.34201767  0.14927472  1
  W  W6  1  -0.99444411  -0.34239086  0.18339310  1
  W  W7  1  -0.49444478  -0.67991662  0.58148661  1
  N  N8  1  -0.75979163  -0.18610556  0.08063588  1
  N  N9  1  -0.22909558  -0.18610426  0.08063539  1
  N  N10  1  -0.99444405  -0.65586946  0.08154353  1
  N  N11  1  -0.73539745  -0.83913901  0.59206639  1
  N  N12  1  -0.25349214  -0.83913836  0.59206630  1
  N  N13  1  -0.99444510  -0.34122724  0.55391622  1
  N  N14  1  -0.49444456  -0.68216188  0.10493249  1
  N  N15  1  -0.49444489  -0.35880825  0.58950690  1
