# generated using pymatgen
data_Zn3WN4
_symmetry_space_group_name_H-M   'P 1'
_cell_length_a   6.62526123
_cell_length_b   5.74575526
_cell_length_c   5.59712428
_cell_angle_alpha   89.19416608
_cell_angle_beta   90.26807664
_cell_angle_gamma   90.00667884
_symmetry_Int_Tables_number   1
_chemical_formula_structural   Zn3WN4
_chemical_formula_sum   'Zn6 W2 N8'
_cell_volume   213.04305008
_cell_formula_units_Z   2
loop_
 _symmetry_equiv_pos_site_id
 _symmetry_equiv_pos_as_xyz
  1  'x, y, z'
loop_
 _atom_site_type_symbol
 _atom_site_label
 _atom_site_symmetry_multiplicity
 _atom_site_fract_x
 _atom_site_fract_y
 _atom_site_fract_z
 _atom_site_occupancy
  Zn  Zn0  1  -0.24902334  0.83811969  0.06167533  1
  Zn  Zn1  1  -0.74419369  0.84005249  0.10702809  1
  Zn  Zn2  1  -0.99252976  0.66705615  0.67642664  1
  Zn  Zn3  1  -0.75095609  0.18112504  0.67886966  1
  Zn  Zn4  1  -0.24076426  0.18579300  0.66964571  1
  Zn  Zn5  1  -0.49407166  0.35643872  0.06188676  1
  W  W6  1  -0.99390843  0.33778204  0.18929055  1
  W  W7  1  -0.49380280  0.68389430  0.54868083  1
  N  N8  1  -0.76109181  0.18333808  0.07707546  1
  N  N9  1  -0.22649764  0.18617505  0.07771512  1
  N  N10  1  -0.99193631  0.64648978  0.07010938  1
  N  N11  1  -0.73021950  0.83805236  0.63647536  1
  N  N12  1  -0.26135320  0.83808210  0.66225876  1
  N  N13  1  -0.99460104  0.34205035  0.53363955  1
  N  N14  1  -0.48939783  0.67763462  0.20180988  1
  N  N15  1  -0.49676367  0.37569451  0.66803028  1
