# generated using pymatgen
data_Zn3WN4
_symmetry_space_group_name_H-M   'P 1'
_cell_length_a   6.76944294
_cell_length_b   5.83072456
_cell_length_c   5.14051790
_cell_angle_alpha   89.75112828
_cell_angle_beta   89.99998906
_cell_angle_gamma   89.99980483
_symmetry_Int_Tables_number   1
_chemical_formula_structural   Zn3WN4
_chemical_formula_sum   'Zn6 W2 N8'
_cell_volume   202.89821952
_cell_formula_units_Z   2
loop_
 _symmetry_equiv_pos_site_id
 _symmetry_equiv_pos_as_xyz
  1  'x, y, z'
loop_
 _atom_site_type_symbol
 _atom_site_label
 _atom_site_symmetry_multiplicity
 _atom_site_fract_x
 _atom_site_fract_y
 _atom_site_fract_z
 _atom_site_occupancy
  Zn  Zn0  1  -0.24102380  0.84458854  0.06461529  1
  Zn  Zn1  1  -0.74786838  0.84458848  0.06461563  1
  Zn  Zn2  1  -0.99444509  0.68662450  0.59395251  1
  Zn  Zn3  1  -0.73569132  0.17425162  0.59104566  1
  Zn  Zn4  1  -0.25319605  0.17425111  0.59104379  1
  Zn  Zn5  1  -0.49444280  0.34284121  0.06453006  1
  W  W6  1  -0.99444458  0.34172613  0.20611111  1
  W  W7  1  -0.49444434  0.68009315  0.55430469  1
  N  N8  1  -0.75482068  0.18420796  0.14168833  1
  N  N9  1  -0.23406500  0.18420731  0.14168864  1
  N  N10  1  -0.99444499  0.66113195  0.14392030  1
  N  N11  1  -0.72913057  0.83517064  0.66015476  1
  N  N12  1  -0.25976018  0.83517065  0.66015442  1
  N  N13  1  -0.99444405  0.34006302  0.59442198  1
  N  N14  1  -0.49444519  0.68134749  0.18921858  1
  N  N15  1  -0.49444403  0.36751450  0.65915072  1
