# generated using pymatgen
data_Zn3WN4
_symmetry_space_group_name_H-M   'P 1'
_cell_length_a   5.02527123
_cell_length_b   5.85103190
_cell_length_c   6.79690825
_cell_angle_alpha   90.00018512
_cell_angle_beta   89.99998968
_cell_angle_gamma   89.76864056
_symmetry_Int_Tables_number   1
_chemical_formula_structural   Zn3WN4
_chemical_formula_sum   'Zn6 W2 N8'
_cell_volume   199.84801551
_cell_formula_units_Z   2
loop_
 _symmetry_equiv_pos_site_id
 _symmetry_equiv_pos_as_xyz
  1  'x, y, z'
loop_
 _atom_site_type_symbol
 _atom_site_label
 _atom_site_symmetry_multiplicity
 _atom_site_fract_x
 _atom_site_fract_y
 _atom_site_fract_z
 _atom_site_occupancy
  Zn  Zn0  1  0.06668844  0.84480349  0.24168828  1
  Zn  Zn1  1  0.06668903  0.84480447  0.74720538  1
  Zn  Zn2  1  0.59199481  0.68031984  0.99444458  1
  Zn  Zn3  1  0.58825537  0.17705488  0.74096358  1
  Zn  Zn4  1  0.58825420  0.17705456  0.24792326  1
  Zn  Zn5  1  0.06646671  0.34217882  0.49444217  1
  W  W6  1  0.16055916  0.34239304  0.99444371  1
  W  W7  1  0.55709166  0.67981077  0.49444488  1
  N  N8  1  0.14715286  0.18337837  0.75387355  1
  N  N9  1  0.14715281  0.18337685  0.23501216  1
  N  N10  1  0.14974349  0.66308025  0.99444539  1
  N  N11  1  0.65812858  0.83610691  0.72918130  1
  N  N12  1  0.65812791  0.83610684  0.25970916  1
  N  N13  1  0.63323639  0.34012060  0.99444404  1
  N  N14  1  0.18400493  0.68098525  0.49444571  1
  N  N15  1  0.65707010  0.36620334  0.49444390  1
