# generated using pymatgen
data_Zn3WN4
_symmetry_space_group_name_H-M   'P 1'
_cell_length_a   6.68000448
_cell_length_b   5.76042028
_cell_length_c   5.43757591
_cell_angle_alpha   89.39875991
_cell_angle_beta   90.00004710
_cell_angle_gamma   89.99996087
_symmetry_Int_Tables_number   1
_chemical_formula_structural   Zn3WN4
_chemical_formula_sum   'Zn6 W2 N8'
_cell_volume   209.22440690
_cell_formula_units_Z   2
loop_
 _symmetry_equiv_pos_site_id
 _symmetry_equiv_pos_as_xyz
  1  'x, y, z'
loop_
 _atom_site_type_symbol
 _atom_site_label
 _atom_site_symmetry_multiplicity
 _atom_site_fract_x
 _atom_site_fract_y
 _atom_site_fract_z
 _atom_site_occupancy
  Zn  Zn0  1  -0.23442701  0.84722553  0.15206607  1
  Zn  Zn1  1  -0.75446242  0.84722542  0.15206486  1
  Zn  Zn2  1  -0.99444341  0.67529097  0.68231653  1
  Zn  Zn3  1  -0.74531291  0.17824309  0.67845329  1
  Zn  Zn4  1  -0.24357374  0.17824330  0.67845217  1
  Zn  Zn5  1  -0.49444534  0.34221737  0.09626565  1
  W  W6  1  -0.99444342  0.34080126  0.18888204  1
  W  W7  1  -0.49444647  0.68040249  0.53192229  1
  N  N8  1  -0.76184981  0.18543068  0.07349242  1
  N  N9  1  -0.22704116  0.18543013  0.07349246  1
  N  N10  1  -0.99444502  0.65212934  0.07229243  1
  N  N11  1  -0.73500568  0.83930796  0.60054132  1
  N  N12  1  -0.25388191  0.83930858  0.60054133  1
  N  N13  1  -0.99444386  0.34131426  0.53648179  1
  N  N14  1  -0.49444496  0.67711485  0.17120966  1
  N  N15  1  -0.49444392  0.36809304  0.63214303  1
