# generated using pymatgen
data_Zn3WN4
_symmetry_space_group_name_H-M   'P 1'
_cell_length_a   5.53880281
_cell_length_b   5.74565907
_cell_length_c   6.64844571
_cell_angle_alpha   90.00233871
_cell_angle_beta   90.00585426
_cell_angle_gamma   88.96650768
_symmetry_Int_Tables_number   1
_chemical_formula_structural   Zn3WN4
_chemical_formula_sum   'Zn6 W2 N8'
_cell_volume   211.54619829
_cell_formula_units_Z   2
loop_
 _symmetry_equiv_pos_site_id
 _symmetry_equiv_pos_as_xyz
  1  'x, y, z'
loop_
 _atom_site_type_symbol
 _atom_site_label
 _atom_site_symmetry_multiplicity
 _atom_site_fract_x
 _atom_site_fract_y
 _atom_site_fract_z
 _atom_site_occupancy
  Zn  Zn0  1  0.06345327  0.84323737  0.24898722  1
  Zn  Zn1  1  0.06362380  0.84312881  0.73994976  1
  Zn  Zn2  1  0.68335395  0.66980492  0.99445215  1
  Zn  Zn3  1  0.60167383  0.17790074  0.73790658  1
  Zn  Zn4  1  0.60019488  0.17780045  0.25107751  1
  Zn  Zn5  1  0.05750234  0.34946409  0.49439630  1
  W  W6  1  0.20130087  0.34117922  0.99441761  1
  W  W7  1  0.55085458  0.68297383  0.49442084  1
  N  N8  1  0.12811524  0.18227001  0.75593092  1
  N  N9  1  0.12902429  0.18218968  0.23311443  1
  N  N10  1  0.07892765  0.64975085  0.99448383  1
  N  N11  1  0.66558361  0.83818858  0.72579241  1
  N  N12  1  0.66559766  0.83826995  0.26308911  1
  N  N13  1  0.55377017  0.35051549  0.99431021  1
  N  N14  1  0.20673869  0.67954769  0.49444418  1
  N  N15  1  0.67090163  0.37155659  0.49433799  1
