# generated using pymatgen
data_Zn3WN4
_symmetry_space_group_name_H-M   'P 1'
_cell_length_a   6.61996960
_cell_length_b   5.72348801
_cell_length_c   5.33744581
_cell_angle_alpha   89.93617450
_cell_angle_beta   89.99996717
_cell_angle_gamma   89.99990969
_symmetry_Int_Tables_number   1
_chemical_formula_structural   Zn3WN4
_chemical_formula_sum   'Zn6 W2 N8'
_cell_volume   202.23204893
_cell_formula_units_Z   2
loop_
 _symmetry_equiv_pos_site_id
 _symmetry_equiv_pos_as_xyz
  1  'x, y, z'
loop_
 _atom_site_type_symbol
 _atom_site_label
 _atom_site_symmetry_multiplicity
 _atom_site_fract_x
 _atom_site_fract_y
 _atom_site_fract_z
 _atom_site_occupancy
  Zn  Zn0  1  -0.24251623  0.84381535  0.05740847  1
  Zn  Zn1  1  -0.74637384  0.84381565  0.05740864  1
  Zn  Zn2  1  -0.99444267  0.67891103  0.55870047  1
  Zn  Zn3  1  -0.74259718  0.17854956  0.55787205  1
  Zn  Zn4  1  -0.24629226  0.17854915  0.55787327  1
  Zn  Zn5  1  -0.49444313  0.34339960  0.05827114  1
  W  W6  1  -0.99444441  0.34126208  0.05748666  1
  W  W7  1  -0.49444459  0.68101053  0.55685862  1
  N  N8  1  -0.75776479  0.18451187  0.17205522  1
  N  N9  1  -0.23112357  0.18451110  0.17205611  1
  N  N10  1  -0.99444482  0.65475777  0.17245744  1
  N  N11  1  -0.73101552  0.83754585  0.67173916  1
  N  N12  1  -0.25787320  0.83754487  0.67173880  1
  N  N13  1  -0.99444492  0.34007477  0.70435941  1
  N  N14  1  -0.49444495  0.68209067  0.20375016  1
  N  N15  1  -0.49444497  0.36742841  0.67222669  1
