# generated using pymatgen
data_Zn3WN4
_symmetry_space_group_name_H-M   'P 1'
_cell_length_a   6.63604320
_cell_length_b   5.74492159
_cell_length_c   5.56895233
_cell_angle_alpha   91.01199438
_cell_angle_beta   90.21330497
_cell_angle_gamma   89.96740703
_symmetry_Int_Tables_number   1
_chemical_formula_structural   Zn3WN4
_chemical_formula_sum   'Zn6 W2 N8'
_cell_volume   212.27360687
_cell_formula_units_Z   2
loop_
 _symmetry_equiv_pos_site_id
 _symmetry_equiv_pos_as_xyz
  1  'x, y, z'
loop_
 _atom_site_type_symbol
 _atom_site_label
 _atom_site_symmetry_multiplicity
 _atom_site_fract_x
 _atom_site_fract_y
 _atom_site_fract_z
 _atom_site_occupancy
  Zn  Zn0  1  -0.24836814  -0.83888441  0.06851680  1
  Zn  Zn1  1  -0.73837358  -0.84380190  0.06086766  1
  Zn  Zn2  1  -0.99432675  -0.66746021  0.68320188  1
  Zn  Zn3  1  -0.73964534  -0.17861225  0.59602432  1
  Zn  Zn4  1  -0.24502698  -0.18154050  0.65428914  1
  Zn  Zn5  1  -0.49639988  -0.35211707  0.05984487  1
  W  W6  1  -0.99538584  -0.33993655  0.19656529  1
  W  W7  1  -0.49514297  -0.68360689  0.55076461  1
  N  N8  1  -0.75504053  -0.18204484  0.12989022  1
  N  N9  1  -0.22831553  -0.18388926  0.09367653  1
  N  N10  1  -0.99227340  -0.64831772  0.07467710  1
  N  N11  1  -0.72670732  -0.83971161  0.66462960  1
  N  N12  1  -0.26308172  -0.83611763  0.66383708  1
  N  N13  1  -0.00035084  -0.34882944  0.54596794  1
  N  N14  1  -0.49434020  -0.67954260  0.20678947  1
  N  N15  1  -0.49833202  -0.37336538  0.67107393  1
