# generated using pymatgen
data_Zn3WN4
_symmetry_space_group_name_H-M   'P 1'
_cell_length_a   6.63636882
_cell_length_b   5.74374702
_cell_length_c   5.56583832
_cell_angle_alpha   91.02983427
_cell_angle_beta   90.24091916
_cell_angle_gamma   89.95337986
_symmetry_Int_Tables_number   1
_chemical_formula_structural   Zn3WN4
_chemical_formula_sum   'Zn6 W2 N8'
_cell_volume   212.12032764
_cell_formula_units_Z   2
loop_
 _symmetry_equiv_pos_site_id
 _symmetry_equiv_pos_as_xyz
  1  'x, y, z'
loop_
 _atom_site_type_symbol
 _atom_site_label
 _atom_site_symmetry_multiplicity
 _atom_site_fract_x
 _atom_site_fract_y
 _atom_site_fract_z
 _atom_site_occupancy
  Zn  Zn0  1  -0.24330057  -0.84079381  0.08621598  1
  Zn  Zn1  1  -0.75041402  -0.84444570  0.15326224  1
  Zn  Zn2  1  -0.99217501  -0.67034102  0.68098495  1
  Zn  Zn3  1  -0.75074130  -0.17778479  0.68002881  1
  Zn  Zn4  1  -0.24057499  -0.18331295  0.67135779  1
  Zn  Zn5  1  -0.49463900  -0.35445483  0.05643075  1
  W  W6  1  -0.99360978  -0.33873959  0.18913190  1
  W  W7  1  -0.49330462  -0.68200722  0.54249018  1
  N  N8  1  -0.76227982  -0.18212381  0.07494429  1
  N  N9  1  -0.22568610  -0.18621050  0.07576092  1
  N  N10  1  -0.98983575  -0.64916386  0.06875687  1
  N  N11  1  -0.73485178  -0.84073449  0.60415505  1
  N  N12  1  -0.26064395  -0.83826632  0.64575830  1
  N  N13  1  -0.99453371  -0.34276671  0.53309748  1
  N  N14  1  -0.48768168  -0.67283199  0.19327667  1
  N  N15  1  -0.49683898  -0.37380071  0.66496516  1
