# generated using pymatgen
data_Zn3WN4
_symmetry_space_group_name_H-M   'P 1'
_cell_length_a   5.04172618
_cell_length_b   5.84304237
_cell_length_c   6.78571093
_cell_angle_alpha   90.00018884
_cell_angle_beta   89.99999233
_cell_angle_gamma   89.77956735
_symmetry_Int_Tables_number   1
_chemical_formula_structural   Zn3WN4
_chemical_formula_sum   'Zn6 W2 N8'
_cell_volume   199.89891241
_cell_formula_units_Z   2
loop_
 _symmetry_equiv_pos_site_id
 _symmetry_equiv_pos_as_xyz
  1  'x, y, z'
loop_
 _atom_site_type_symbol
 _atom_site_label
 _atom_site_symmetry_multiplicity
 _atom_site_fract_x
 _atom_site_fract_y
 _atom_site_fract_z
 _atom_site_occupancy
  Zn  Zn0  1  0.06700254  0.84485579  0.24148723  1
  Zn  Zn1  1  0.06700301  0.84485655  0.74740606  1
  Zn  Zn2  1  0.58781977  0.68010737  0.99444443  1
  Zn  Zn3  1  0.58427542  0.17740685  0.74141240  1
  Zn  Zn4  1  0.58427448  0.17740647  0.24747493  1
  Zn  Zn5  1  0.06680794  0.34209746  0.49444229  1
  W  W6  1  0.09860018  0.34240694  0.99444355  1
  W  W7  1  0.55719861  0.67986452  0.49444494  1
  N  N8  1  0.15537341  0.18391582  0.75498961  1
  N  N9  1  0.15537350  0.18391437  0.23389626  1
  N  N10  1  0.15757668  0.66088164  0.99444531  1
  N  N11  1  0.65996101  0.83601631  0.72914577  1
  N  N12  1  0.65996047  0.83601624  0.25974458  1
  N  N13  1  0.67496252  0.34019574  0.99444412  1
  N  N14  1  0.18522663  0.68122220  0.49444560  1
  N  N15  1  0.65920028  0.36661399  0.49444396  1
