# generated using pymatgen
data_Zn3WN4
_symmetry_space_group_name_H-M   'P 1'
_cell_length_a   5.59134636
_cell_length_b   5.74712459
_cell_length_c   6.62808965
_cell_angle_alpha   89.99669611
_cell_angle_beta   89.82856878
_cell_angle_gamma   89.22563303
_symmetry_Int_Tables_number   1
_chemical_formula_structural   Zn3WN4
_chemical_formula_sum   'Zn6 W2 N8'
_cell_volume   212.96771544
_cell_formula_units_Z   2
loop_
 _symmetry_equiv_pos_site_id
 _symmetry_equiv_pos_as_xyz
  1  'x, y, z'
loop_
 _atom_site_type_symbol
 _atom_site_label
 _atom_site_symmetry_multiplicity
 _atom_site_fract_x
 _atom_site_fract_y
 _atom_site_fract_z
 _atom_site_occupancy
  Zn  Zn0  1  0.06966680  0.83702044  0.24843878  1
  Zn  Zn1  1  0.06193385  0.84023834  0.73828661  1
  Zn  Zn2  1  0.67744486  0.66560275  0.99480617  1
  Zn  Zn3  1  0.64448010  0.18273126  0.74581156  1
  Zn  Zn4  1  0.67578623  0.18392011  0.23993595  1
  Zn  Zn5  1  0.06446193  0.35546751  0.49578960  1
  W  W6  1  0.19070720  0.33822137  0.99488261  1
  W  W7  1  0.55083482  0.68441500  0.49481646  1
  N  N8  1  0.09589386  0.18478075  0.75950063  1
  N  N9  1  0.07874430  0.18458717  0.22776880  1
  N  N10  1  0.07257424  0.64663421  0.99285949  1
  N  N11  1  0.66308474  0.83808787  0.72773862  1
  N  N12  1  0.66218448  0.83610023  0.26206900  1
  N  N13  1  0.53776987  0.34372827  0.99788383  1
  N  N14  1  0.20599281  0.68052063  0.49449490  1
  N  N15  1  0.66905615  0.37572236  0.49602802  1
