# generated using pymatgen
data_Zn3WN4
_symmetry_space_group_name_H-M   'P 1'
_cell_length_a   5.53937033
_cell_length_b   5.74507460
_cell_length_c   6.64816201
_cell_angle_alpha   89.99748157
_cell_angle_beta   89.99384357
_cell_angle_gamma   88.96378030
_symmetry_Int_Tables_number   1
_chemical_formula_structural   Zn3WN4
_chemical_formula_sum   'Zn6 W2 N8'
_cell_volume   211.53714314
_cell_formula_units_Z   2
loop_
 _symmetry_equiv_pos_site_id
 _symmetry_equiv_pos_as_xyz
  1  'x, y, z'
loop_
 _atom_site_type_symbol
 _atom_site_label
 _atom_site_symmetry_multiplicity
 _atom_site_fract_x
 _atom_site_fract_y
 _atom_site_fract_z
 _atom_site_occupancy
  Zn  Zn0  1  0.13895522  0.84439002  0.23781025  1
  Zn  Zn1  1  0.14063962  0.84450519  0.75118692  1
  Zn  Zn2  1  0.68271562  0.67276374  0.99439000  1
  Zn  Zn3  1  0.67670509  0.17893463  0.74900409  1
  Zn  Zn4  1  0.67651230  0.17905697  0.23993750  1
  Zn  Zn5  1  0.05666954  0.35237422  0.49445418  1
  W  W6  1  0.18921987  0.33926911  0.99442260  1
  W  W7  1  0.53860294  0.68099886  0.49440382  1
  N  N8  1  0.07438799  0.18394439  0.76310475  1
  N  N9  1  0.07440701  0.18403946  0.22577484  1
  N  N10  1  0.06914937  0.65071538  0.99432196  1
  N  N11  1  0.61053556  0.84005891  0.73319883  1
  N  N12  1  0.61156837  0.83996175  0.25587642  1
  N  N13  1  0.53327994  0.34266754  0.99444325  1
  N  N14  1  0.18618495  0.67165145  0.49429218  1
  N  N15  1  0.66108395  0.37244666  0.49448945  1
