# generated using pymatgen
data_Zn3WN4
_symmetry_space_group_name_H-M   'P 1'
_cell_length_a   6.70214209
_cell_length_b   5.78123159
_cell_length_c   5.34839604
_cell_angle_alpha   89.70146317
_cell_angle_beta   90.00010080
_cell_angle_gamma   90.00002311
_symmetry_Int_Tables_number   1
_chemical_formula_structural   Zn3WN4
_chemical_formula_sum   'Zn6 W2 N8'
_cell_volume   207.22953935
_cell_formula_units_Z   2
loop_
 _symmetry_equiv_pos_site_id
 _symmetry_equiv_pos_as_xyz
  1  'x, y, z'
loop_
 _atom_site_type_symbol
 _atom_site_label
 _atom_site_symmetry_multiplicity
 _atom_site_fract_x
 _atom_site_fract_y
 _atom_site_fract_z
 _atom_site_occupancy
  Zn  Zn0  1  -0.23393515  0.84864154  0.14893556  1
  Zn  Zn1  1  -0.75495516  0.84864243  0.14894178  1
  Zn  Zn2  1  -0.99444427  0.67651520  0.67985230  1
  Zn  Zn3  1  -0.74224764  0.17866683  0.68011254  1
  Zn  Zn4  1  -0.24663769  0.17866726  0.68011183  1
  Zn  Zn5  1  -0.49444543  0.33416957  0.14563556  1
  W  W6  1  -0.99444628  0.34173203  0.18819489  1
  W  W7  1  -0.49444274  0.68117875  0.52710160  1
  N  N8  1  -0.76019301  0.18751611  0.07415849  1
  N  N9  1  -0.22869665  0.18751671  0.07415989  1
  N  N10  1  -0.99444496  0.65297216  0.07451859  1
  N  N11  1  -0.73461870  0.83840846  0.59985110  1
  N  N12  1  -0.25427134  0.83840775  0.59985246  1
  N  N13  1  -0.99444356  0.34058545  0.54004398  1
  N  N14  1  -0.49444479  0.68226781  0.16001743  1
  N  N15  1  -0.49444369  0.36189020  0.59912934  1
