# generated using pymatgen
data_Zn3WN4
_symmetry_space_group_name_H-M   'P 1'
_cell_length_a   6.77302763
_cell_length_b   5.83313608
_cell_length_c   5.07208609
_cell_angle_alpha   89.76274395
_cell_angle_beta   89.99998871
_cell_angle_gamma   89.99993783
_symmetry_Int_Tables_number   1
_chemical_formula_structural   Zn3WN4
_chemical_formula_sum   'Zn6 W2 N8'
_cell_volume   200.38621794
_cell_formula_units_Z   2
loop_
 _symmetry_equiv_pos_site_id
 _symmetry_equiv_pos_as_xyz
  1  'x, y, z'
loop_
 _atom_site_type_symbol
 _atom_site_label
 _atom_site_symmetry_multiplicity
 _atom_site_fract_x
 _atom_site_fract_y
 _atom_site_fract_z
 _atom_site_occupancy
  Zn  Zn0  1  -0.24152935  0.84473492  0.15684626  1
  Zn  Zn1  1  -0.74736011  0.84473589  0.15684557  1
  Zn  Zn2  1  -0.99444435  0.67942996  0.67468376  1
  Zn  Zn3  1  -0.74192150  0.17761817  0.67454714  1
  Zn  Zn4  1  -0.24696850  0.17761753  0.67454750  1
  Zn  Zn5  1  -0.49444334  0.34229200  0.15331998  1
  W  W6  1  -0.99444413  0.34233217  0.18318596  1
  W  W7  1  -0.49444473  0.67989321  0.64168051  1
  N  N8  1  -0.75978956  0.18617848  0.07903115  1
  N  N9  1  -0.22909767  0.18617747  0.07903060  1
  N  N10  1  -0.99444406  0.65551374  0.07968033  1
  N  N11  1  -0.73416868  0.83852137  0.58406880  1
  N  N12  1  -0.25472069  0.83852085  0.58406881  1
  N  N13  1  -0.99444502  0.34099001  0.55297181  1
  N  N14  1  -0.49444463  0.68207921  0.06422934  1
  N  N15  1  -0.49444471  0.36114329  0.58187982  1
