# generated using pymatgen
data_Zn3WN4
_symmetry_space_group_name_H-M   'P 1'
_cell_length_a   6.70727863
_cell_length_b   5.78601122
_cell_length_c   5.19074181
_cell_angle_alpha   89.82294832
_cell_angle_beta   89.99998859
_cell_angle_gamma   89.99994775
_symmetry_Int_Tables_number   1
_chemical_formula_structural   Zn3WN4
_chemical_formula_sum   'Zn6 W2 N8'
_cell_volume   201.44336782
_cell_formula_units_Z   2
loop_
 _symmetry_equiv_pos_site_id
 _symmetry_equiv_pos_as_xyz
  1  'x, y, z'
loop_
 _atom_site_type_symbol
 _atom_site_label
 _atom_site_symmetry_multiplicity
 _atom_site_fract_x
 _atom_site_fract_y
 _atom_site_fract_z
 _atom_site_occupancy
  Zn  Zn0  1  -0.24143114  0.84450373  0.17169925  1
  Zn  Zn1  1  -0.74745818  0.84450394  0.17169964  1
  Zn  Zn2  1  -0.99444400  0.68029423  0.67627802  1
  Zn  Zn3  1  -0.74124849  0.17746242  0.67663687  1
  Zn  Zn4  1  -0.24764069  0.17746146  0.67663577  1
  Zn  Zn5  1  -0.49444406  0.34169184  0.16980065  1
  W  W6  1  -0.99444433  0.34177065  0.18267683  1
  W  W7  1  -0.49444456  0.68032157  0.67625200  1
  N  N8  1  -0.75891558  0.18575971  0.07276462  1
  N  N9  1  -0.22997253  0.18575945  0.07276383  1
  N  N10  1  -0.99444425  0.65494304  0.07271656  1
  N  N11  1  -0.73128936  0.83728041  0.57188746  1
  N  N12  1  -0.25759981  0.83727990  0.57188734  1
  N  N13  1  -0.99444484  0.34042103  0.54485935  1
  N  N14  1  -0.49444468  0.68211532  0.04105166  1
  N  N15  1  -0.49444455  0.36620956  0.57100749  1
