# generated using pymatgen
data_Zn3WN4
_symmetry_space_group_name_H-M   'P 1'
_cell_length_a   6.71874376
_cell_length_b   5.79488976
_cell_length_c   5.16789595
_cell_angle_alpha   90.16590173
_cell_angle_beta   90.00001378
_cell_angle_gamma   90.00014991
_symmetry_Int_Tables_number   1
_chemical_formula_structural   Zn3WN4
_chemical_formula_sum   'Zn6 W2 N8'
_cell_volume   201.20797791
_cell_formula_units_Z   2
loop_
 _symmetry_equiv_pos_site_id
 _symmetry_equiv_pos_as_xyz
  1  'x, y, z'
loop_
 _atom_site_type_symbol
 _atom_site_label
 _atom_site_symmetry_multiplicity
 _atom_site_fract_x
 _atom_site_fract_y
 _atom_site_fract_z
 _atom_site_occupancy
  Zn  Zn0  1  -0.24097252  -0.84491621  0.06440516  1
  Zn  Zn1  1  -0.74791947  -0.84491597  0.06440574  1
  Zn  Zn2  1  -0.99444415  -0.68080008  0.57141398  1
  Zn  Zn3  1  -0.74123013  -0.17759407  0.56946653  1
  Zn  Zn4  1  -0.24765775  -0.17759401  0.56946611  1
  Zn  Zn5  1  -0.49444343  -0.34149694  0.06470986  1
  W  W6  1  -0.99444387  -0.34196468  0.06425555  1
  W  W7  1  -0.49444466  -0.68039700  0.55751620  1
  N  N8  1  -0.75767818  -0.18503923  0.16755005  1
  N  N9  1  -0.23120851  -0.18503857  0.16755018  1
  N  N10  1  -0.99444501  -0.65605430  0.16846834  1
  N  N11  1  -0.72990819  -0.83639018  0.66655523  1
  N  N12  1  -0.25898171  -0.83639015  0.66655486  1
  N  N13  1  -0.99444423  -0.34015051  0.69792129  1
  N  N14  1  -0.49444508  -0.68176523  0.19383690  1
  N  N15  1  -0.49444419  -0.36727114  0.66654049  1
