# generated using pymatgen
data_Zn3WN4
_symmetry_space_group_name_H-M   'P 1'
_cell_length_a   6.68197740
_cell_length_b   5.76195088
_cell_length_c   5.43205148
_cell_angle_alpha   90.59383247
_cell_angle_beta   89.99993653
_cell_angle_gamma   90.00005661
_symmetry_Int_Tables_number   1
_chemical_formula_structural   Zn3WN4
_chemical_formula_sum   'Zn6 W2 N8'
_cell_volume   209.12940654
_cell_formula_units_Z   2
loop_
 _symmetry_equiv_pos_site_id
 _symmetry_equiv_pos_as_xyz
  1  'x, y, z'
loop_
 _atom_site_type_symbol
 _atom_site_label
 _atom_site_symmetry_multiplicity
 _atom_site_fract_x
 _atom_site_fract_y
 _atom_site_fract_z
 _atom_site_occupancy
  Zn  Zn0  1  -0.24526283  -0.84401073  0.06183211  1
  Zn  Zn1  1  -0.74362574  -0.84401076  0.06183225  1
  Zn  Zn2  1  -0.99444472  -0.67996727  0.64413072  1
  Zn  Zn3  1  -0.73447238  -0.17501388  0.58828170  1
  Zn  Zn4  1  -0.25441659  -0.17501263  0.58827510  1
  Zn  Zn5  1  -0.49444303  -0.34684751  0.05783618  1
  W  W6  1  -0.99444420  -0.34182209  0.20803101  1
  W  W7  1  -0.49444489  -0.68141729  0.55119347  1
  N  N8  1  -0.75393831  -0.18295916  0.13934976  1
  N  N9  1  -0.23495056  -0.18295790  0.13935350  1
  N  N10  1  -0.99444442  -0.65411564  0.10782077  1
  N  N11  1  -0.72705243  -0.83678806  0.66639493  1
  N  N12  1  -0.26183782  -0.83678805  0.66639550  1
  N  N13  1  -0.99444435  -0.34509199  0.56905640  1
  N  N14  1  -0.49444449  -0.68090057  0.20326341  1
  N  N15  1  -0.49444427  -0.37007476  0.66756964  1
