# generated using pymatgen
data_Sc5Al13N18
_symmetry_space_group_name_H-M   'P 1'
_cell_length_a   9.82978388
_cell_length_b   9.83288190
_cell_length_c   10.15773173
_cell_angle_alpha   89.98226610
_cell_angle_beta   90.01593355
_cell_angle_gamma   59.80542098
_symmetry_Int_Tables_number   1
_chemical_formula_structural   Sc5Al13N18
_chemical_formula_sum   'Sc10 Al26 N36'
_cell_volume   848.58865121
_cell_formula_units_Z   2
loop_
 _symmetry_equiv_pos_site_id
 _symmetry_equiv_pos_as_xyz
  1  'x, y, z'
loop_
 _atom_site_type_symbol
 _atom_site_label
 _atom_site_symmetry_multiplicity
 _atom_site_fract_x
 _atom_site_fract_y
 _atom_site_fract_z
 _atom_site_occupancy
  Sc  Sc0  1  0.11158206  0.09439296  0.32521540  1
  Sc  Sc1  1  0.22190923  0.21363524  0.05973034  1
  Sc  Sc2  1  0.77095007  0.09879366  0.82245418  1
  Sc  Sc3  1  0.11302903  0.09402037  0.79394253  1
  Sc  Sc4  1  0.55646396  0.53151274  0.04595737  1
  Sc  Sc5  1  0.77694850  0.43451680  0.31266260  1
  Sc  Sc6  1  0.55204361  0.53658212  0.57436067  1
  Sc  Sc7  1  0.21783785  0.86818659  0.06303803  1
  Sc  Sc8  1  0.88864434  0.87278189  0.56019363  1
  Sc  Sc9  1  0.56095049  0.87226731  0.06116977  1
  Al  Al10  1  0.88373666  0.20643663  0.54998844  1
  Al  Al11  1  0.44992264  0.09830095  0.31089657  1
  Al  Al12  1  0.54827185  0.21001214  0.05831551  1
  Al  Al13  1  0.22693161  0.21307051  0.55097859  1
  Al  Al14  1  0.77247630  0.09354816  0.29699735  1
  Al  Al15  1  0.88732109  0.21180966  0.05483889  1
  Al  Al16  1  0.44343212  0.09767883  0.79610121  1
  Al  Al17  1  0.55303284  0.20619550  0.55079784  1
  Al  Al18  1  0.11314666  0.43837715  0.30602764  1
  Al  Al19  1  0.21687056  0.53824503  0.05549543  1
  Al  Al20  1  0.78572876  0.43026495  0.79806931  1
  Al  Al21  1  0.89590544  0.53853316  0.55560371  1
  Al  Al22  1  0.43816528  0.42773708  0.30626884  1
  Al  Al23  1  0.11178651  0.43239089  0.80062045  1
  Al  Al24  1  0.22268865  0.53435200  0.55223171  1
  Al  Al25  1  0.89441399  0.53983891  0.05209903  1
  Al  Al26  1  0.43304743  0.42412537  0.80040908  1
  Al  Al27  1  0.11005221  0.75324353  0.30387900  1
  Al  Al28  1  0.77762178  0.75490862  0.80222325  1
  Al  Al29  1  0.44499039  0.75533731  0.31098532  1
  Al  Al30  1  0.12032883  0.74827690  0.80321285  1
  Al  Al31  1  0.22615382  0.86507298  0.54801908  1
  Al  Al32  1  0.78392674  0.76139405  0.30408911  1
  Al  Al33  1  0.89394109  0.86161966  0.05453211  1
  Al  Al34  1  0.44314179  0.76645974  0.79410997  1
  Al  Al35  1  0.55365262  0.87458949  0.55222040  1
  N  N36  1  0.23293866  0.22178138  0.36229176  1
  N  N37  1  0.09494168  0.10410318  0.11345769  1
  N  N38  1  0.88301665  0.22539194  0.86757211  1
  N  N39  1  0.76577330  0.11446592  0.61335345  1
  N  N40  1  0.55784555  0.20617515  0.36164787  1
  N  N41  1  0.45471125  0.10182579  0.12615820  1
  N  N42  1  0.22867429  0.21449617  0.84767018  1
  N  N43  1  0.11215281  0.09369268  0.57885343  1
  N  N44  1  0.87125854  0.19929843  0.36491298  1
  N  N45  1  0.77613930  0.09534301  0.09895099  1
  N  N46  1  0.53119718  0.21642356  0.87013725  1
  N  N47  1  0.44806175  0.09370794  0.60572878  1
  N  N48  1  0.22231554  0.53987590  0.36450409  1
  N  N49  1  0.10134143  0.44666705  0.11780520  1
  N  N50  1  0.89131403  0.53902357  0.86026134  1
  N  N51  1  0.80292001  0.41717303  0.60753335  1
  N  N52  1  0.53859572  0.54174423  0.36194584  1
  N  N53  1  0.43153479  0.42229026  0.11670305  1
  N  N54  1  0.22150018  0.53684835  0.86475758  1
  N  N55  1  0.11136231  0.43114302  0.61199038  1
  N  N56  1  0.90144259  0.55137678  0.36944549  1
  N  N57  1  0.79238717  0.42619638  0.10463982  1
  N  N58  1  0.55558423  0.53817794  0.82715421  1
  N  N59  1  0.43035518  0.41329490  0.61473141  1
  N  N60  1  0.22873897  0.84962142  0.35920055  1
  N  N61  1  0.10283663  0.74859009  0.11658473  1
  N  N62  1  0.90088943  0.84937083  0.85965161  1
  N  N63  1  0.76803300  0.75196323  0.61472577  1
  N  N64  1  0.55774096  0.87088464  0.35954541  1
  N  N65  1  0.44934406  0.75421003  0.12515636  1
  N  N66  1  0.23135986  0.85373437  0.85394495  1
  N  N67  1  0.13174199  0.74804707  0.61403015  1
  N  N68  1  0.88696610  0.87597899  0.35027998  1
  N  N69  1  0.79585628  0.75032496  0.11553040  1
  N  N70  1  0.55389514  0.87500947  0.84944606  1
  N  N71  1  0.43346184  0.78427570  0.60793558  1
