# generated using pymatgen
data_Sc5Al13N18
_symmetry_space_group_name_H-M   'P 1'
_cell_length_a   9.83041583
_cell_length_b   9.83339428
_cell_length_c   10.15549069
_cell_angle_alpha   89.93707124
_cell_angle_beta   89.91513652
_cell_angle_gamma   59.83446460
_symmetry_Int_Tables_number   1
_chemical_formula_structural   Sc5Al13N18
_chemical_formula_sum   'Sc10 Al26 N36'
_cell_volume   848.74949944
_cell_formula_units_Z   2
loop_
 _symmetry_equiv_pos_site_id
 _symmetry_equiv_pos_as_xyz
  1  'x, y, z'
loop_
 _atom_site_type_symbol
 _atom_site_label
 _atom_site_symmetry_multiplicity
 _atom_site_fract_x
 _atom_site_fract_y
 _atom_site_fract_z
 _atom_site_occupancy
  Sc  Sc0  1  0.11344039  0.09224098  0.39938420  1
  Sc  Sc1  1  0.22177401  0.21397723  0.13192817  1
  Sc  Sc2  1  0.77212432  0.09331308  0.88691846  1
  Sc  Sc3  1  0.11132319  0.09576774  0.86743926  1
  Sc  Sc4  1  0.55200108  0.53487469  0.12966121  1
  Sc  Sc5  1  0.78199206  0.43136107  0.37753742  1
  Sc  Sc6  1  0.55584263  0.53414772  0.63490151  1
  Sc  Sc7  1  0.21544313  0.87039057  0.13172925  1
  Sc  Sc8  1  0.89102230  0.86869520  0.62234461  1
  Sc  Sc9  1  0.56164995  0.87403649  0.13369916  1
  Al  Al10  1  0.88321725  0.21328376  0.64262964  1
  Al  Al11  1  0.44675627  0.09620713  0.39657904  1
  Al  Al12  1  0.55429434  0.20610777  0.14294773  1
  Al  Al13  1  0.22639729  0.21222556  0.64197994  1
  Al  Al14  1  0.77087535  0.09844502  0.38680875  1
  Al  Al15  1  0.88704800  0.20323838  0.13985508  1
  Al  Al16  1  0.44602871  0.10048677  0.88243786  1
  Al  Al17  1  0.54776753  0.20958869  0.63603405  1
  Al  Al18  1  0.11443694  0.43512309  0.39302278  1
  Al  Al19  1  0.21568499  0.53840108  0.13833416  1
  Al  Al20  1  0.78039803  0.43218733  0.89486356  1
  Al  Al21  1  0.89157112  0.53574823  0.64214463  1
  Al  Al22  1  0.43608427  0.42677056  0.38964822  1
  Al  Al23  1  0.11029487  0.43590465  0.88554629  1
  Al  Al24  1  0.22333514  0.53460569  0.64005134  1
  Al  Al25  1  0.89816215  0.54355695  0.13568981  1
  Al  Al26  1  0.43621449  0.42615324  0.88981118  1
  Al  Al27  1  0.12036067  0.75155260  0.38977319  1
  Al  Al28  1  0.78387922  0.75555695  0.88712405  1
  Al  Al29  1  0.44132335  0.76423969  0.39772071  1
  Al  Al30  1  0.11231570  0.74860896  0.88888130  1
  Al  Al31  1  0.22724224  0.86303463  0.64470303  1
  Al  Al32  1  0.77722864  0.75974134  0.39134109  1
  Al  Al33  1  0.89029202  0.86827026  0.14512403  1
  Al  Al34  1  0.44767139  0.75730895  0.88421083  1
  Al  Al35  1  0.55345937  0.87385496  0.63978487  1
  N  N36  1  0.23021919  0.21651463  0.34426564  1
  N  N37  1  0.09382619  0.10487894  0.07897515  1
  N  N38  1  0.87069993  0.22758481  0.82783602  1
  N  N39  1  0.76553912  0.11671354  0.57975369  1
  N  N40  1  0.55241904  0.20573920  0.33306213  1
  N  N41  1  0.45644853  0.10361521  0.06841163  1
  N  N42  1  0.23092613  0.22029781  0.83089779  1
  N  N43  1  0.11221260  0.09244454  0.61434998  1
  N  N44  1  0.88330741  0.19439984  0.32646510  1
  N  N45  1  0.77598232  0.09304460  0.09740676  1
  N  N46  1  0.53863008  0.21728029  0.82216910  1
  N  N47  1  0.44622257  0.09315372  0.58554670  1
  N  N48  1  0.22212159  0.53824613  0.32846318  1
  N  N49  1  0.10354488  0.44602705  0.07164866  1
  N  N50  1  0.88890205  0.53865172  0.83204154  1
  N  N51  1  0.79784281  0.42040585  0.58387119  1
  N  N52  1  0.53663266  0.54708848  0.34692572  1
  N  N53  1  0.43021008  0.41760977  0.07878448  1
  N  N54  1  0.22272967  0.53766477  0.82827618  1
  N  N55  1  0.10910613  0.43195425  0.58392684  1
  N  N56  1  0.90376631  0.55108974  0.32428152  1
  N  N57  1  0.79741346  0.42256117  0.08876463  1
  N  N58  1  0.55753049  0.53401347  0.85106354  1
  N  N59  1  0.43133994  0.41834143  0.57635169  1
  N  N60  1  0.22958659  0.85745343  0.34039128  1
  N  N61  1  0.10002002  0.75033427  0.07881294  1
  N  N62  1  0.89925940  0.85296640  0.82977225  1
  N  N63  1  0.76780850  0.74819224  0.57901960  1
  N  N64  1  0.55391852  0.87373064  0.34506763  1
  N  N65  1  0.44453576  0.76403954  0.06816495  1
  N  N66  1  0.23151773  0.84596849  0.83326779  1
  N  N67  1  0.13438583  0.74643884  0.57725850  1
  N  N68  1  0.88922625  0.87149503  0.34415156  1
  N  N69  1  0.79583864  0.75464552  0.07617373  1
  N  N70  1  0.55745670  0.87302742  0.83256674  1
  N  N71  1  0.43653921  0.77822042  0.58616907  1
