# generated using pymatgen
data_Sc5Al13N18
_symmetry_space_group_name_H-M   'P 1'
_cell_length_a   9.82988595
_cell_length_b   9.83298599
_cell_length_c   10.15747177
_cell_angle_alpha   89.98237775
_cell_angle_beta   90.01583798
_cell_angle_gamma   59.80540763
_symmetry_Int_Tables_number   1
_chemical_formula_structural   Sc5Al13N18
_chemical_formula_sum   'Sc10 Al26 N36'
_cell_volume   848.58461539
_cell_formula_units_Z   2
loop_
 _symmetry_equiv_pos_site_id
 _symmetry_equiv_pos_as_xyz
  1  'x, y, z'
loop_
 _atom_site_type_symbol
 _atom_site_label
 _atom_site_symmetry_multiplicity
 _atom_site_fract_x
 _atom_site_fract_y
 _atom_site_fract_z
 _atom_site_occupancy
  Sc  Sc0  1  0.11157174  0.09440891  0.33304767  1
  Sc  Sc1  1  0.22190244  0.21364960  0.06756520  1
  Sc  Sc2  1  0.77093893  0.09881281  0.83029552  1
  Sc  Sc3  1  0.11302169  0.09403237  0.80178359  1
  Sc  Sc4  1  0.55646162  0.53152003  0.05379202  1
  Sc  Sc5  1  0.77693902  0.43453003  0.32050633  1
  Sc  Sc6  1  0.55202799  0.53659981  0.58219810  1
  Sc  Sc7  1  0.21783100  0.86819484  0.07087894  1
  Sc  Sc8  1  0.88863175  0.87279897  0.56803795  1
  Sc  Sc9  1  0.56094074  0.87228059  0.06900979  1
  Al  Al10  1  0.88372602  0.20644949  0.55782272  1
  Al  Al11  1  0.44991270  0.09831687  0.31873073  1
  Al  Al12  1  0.54826046  0.21002789  0.06614788  1
  Al  Al13  1  0.22691992  0.21308681  0.55881271  1
  Al  Al14  1  0.77246719  0.09356040  0.30482890  1
  Al  Al15  1  0.88731431  0.21182630  0.06267314  1
  Al  Al16  1  0.44342190  0.09769365  0.80393416  1
  Al  Al17  1  0.55302302  0.20621082  0.55863158  1
  Al  Al18  1  0.11313618  0.43839312  0.31385844  1
  Al  Al19  1  0.21686020  0.53826015  0.06332724  1
  Al  Al20  1  0.78571945  0.43028131  0.80589610  1
  Al  Al21  1  0.89589475  0.53855090  0.56343473  1
  Al  Al22  1  0.43815434  0.42775193  0.31410147  1
  Al  Al23  1  0.11177470  0.43240671  0.80845388  1
  Al  Al24  1  0.22267712  0.53436714  0.56006346  1
  Al  Al25  1  0.89440416  0.53985261  0.05993356  1
  Al  Al26  1  0.43303481  0.42413986  0.80824160  1
  Al  Al27  1  0.11003774  0.75325895  0.31171378  1
  Al  Al28  1  0.77760775  0.75492403  0.81005660  1
  Al  Al29  1  0.44498150  0.75534872  0.31881749  1
  Al  Al30  1  0.12032101  0.74829082  0.81104458  1
  Al  Al31  1  0.22614231  0.86508924  0.55584971  1
  Al  Al32  1  0.78391866  0.76140928  0.31192254  1
  Al  Al33  1  0.89393209  0.86163199  0.06235877  1
  Al  Al34  1  0.44313027  0.76647609  0.80194569  1
  Al  Al35  1  0.55364050  0.87460481  0.56005102  1
  N  N36  1  0.23292745  0.22179719  0.37012042  1
  N  N37  1  0.09493620  0.10411509  0.12128258  1
  N  N38  1  0.88300604  0.22541240  0.87540122  1
  N  N39  1  0.76576019  0.11448470  0.62118916  1
  N  N40  1  0.55783654  0.20618991  0.36947779  1
  N  N41  1  0.45470327  0.10184056  0.13398866  1
  N  N42  1  0.22866435  0.21451261  0.85550032  1
  N  N43  1  0.11214156  0.09370779  0.58668724  1
  N  N44  1  0.87125086  0.19930816  0.37274202  1
  N  N45  1  0.77613079  0.09535701  0.10677560  1
  N  N46  1  0.53118501  0.21643972  0.87796660  1
  N  N47  1  0.44805121  0.09372282  0.61355763  1
  N  N48  1  0.22230479  0.53989092  0.37233326  1
  N  N49  1  0.10133208  0.44668187  0.12563285  1
  N  N50  1  0.89130161  0.53903955  0.86809123  1
  N  N51  1  0.80290669  0.41719083  0.61535439  1
  N  N52  1  0.53858365  0.54175832  0.36977734  1
  N  N53  1  0.43152391  0.42230531  0.12453197  1
  N  N54  1  0.22148839  0.53686403  0.87258688  1
  N  N55  1  0.11134998  0.43115970  0.61982065  1
  N  N56  1  0.90143392  0.55139331  0.37727378  1
  N  N57  1  0.79238209  0.42620898  0.11247876  1
  N  N58  1  0.55557498  0.53819261  0.83498264  1
  N  N59  1  0.43034236  0.41331004  0.62256077  1
  N  N60  1  0.22872767  0.84963765  0.36702497  1
  N  N61  1  0.10282295  0.74860421  0.12441495  1
  N  N62  1  0.90087875  0.84938619  0.86747337  1
  N  N63  1  0.76801856  0.75197872  0.62255551  1
  N  N64  1  0.55773045  0.87089874  0.36737210  1
  N  N65  1  0.44933908  0.75421715  0.13298479  1
  N  N66  1  0.23135031  0.85374598  0.86177999  1
  N  N67  1  0.13173351  0.74806179  0.62185818  1
  N  N68  1  0.88695402  0.87599498  0.35811746  1
  N  N69  1  0.79584807  0.75034003  0.12335902  1
  N  N70  1  0.55388286  0.87502595  0.85728036  1
  N  N71  1  0.43344875  0.78429346  0.61576590  1
