# generated using pymatgen
data_Sc5Al13N18
_symmetry_space_group_name_H-M   'P 1'
_cell_length_a   10.33193513
_cell_length_b   10.33602282
_cell_length_c   8.74765936
_cell_angle_alpha   89.93217487
_cell_angle_beta   89.96341234
_cell_angle_gamma   59.76873903
_symmetry_Int_Tables_number   1
_chemical_formula_structural   Sc5Al13N18
_chemical_formula_sum   'Sc10 Al26 N36'
_cell_volume   807.12452314
_cell_formula_units_Z   2
loop_
 _symmetry_equiv_pos_site_id
 _symmetry_equiv_pos_as_xyz
  1  'x, y, z'
loop_
 _atom_site_type_symbol
 _atom_site_label
 _atom_site_symmetry_multiplicity
 _atom_site_fract_x
 _atom_site_fract_y
 _atom_site_fract_z
 _atom_site_occupancy
  Sc  Sc0  1  0.11188337  0.09284130  0.35711276  1
  Sc  Sc1  1  0.22514933  0.21491832  0.10215262  1
  Sc  Sc2  1  0.77076027  0.09759855  0.85670009  1
  Sc  Sc3  1  0.11168879  0.09626596  0.84728394  1
  Sc  Sc4  1  0.55562545  0.53151341  0.09818465  1
  Sc  Sc5  1  0.78386201  0.43199737  0.35204569  1
  Sc  Sc6  1  0.55142603  0.53631565  0.60478743  1
  Sc  Sc7  1  0.21758800  0.86383633  0.10120647  1
  Sc  Sc8  1  0.88892660  0.87123698  0.59764375  1
  Sc  Sc9  1  0.56116656  0.87372276  0.10144493  1
  Al  Al10  1  0.88415043  0.20922727  0.60027296  1
  Al  Al11  1  0.44837180  0.09776777  0.35394671  1
  Al  Al12  1  0.55028319  0.20895180  0.09952770  1
  Al  Al13  1  0.22458804  0.21397148  0.59750358  1
  Al  Al14  1  0.77210414  0.09634353  0.34411480  1
  Al  Al15  1  0.88608208  0.20912137  0.09961604  1
  Al  Al16  1  0.44542528  0.09818146  0.82961303  1
  Al  Al17  1  0.55195220  0.20891527  0.58644745  1
  Al  Al18  1  0.11242065  0.43725485  0.34743562  1
  Al  Al19  1  0.21610599  0.53875552  0.09009826  1
  Al  Al20  1  0.78254972  0.43225854  0.84818236  1
  Al  Al21  1  0.89411996  0.53899582  0.59840935  1
  Al  Al22  1  0.43608105  0.42735208  0.34191457  1
  Al  Al23  1  0.11204555  0.43351067  0.83814370  1
  Al  Al24  1  0.22363432  0.53352208  0.59135583  1
  Al  Al25  1  0.89611581  0.54106339  0.08689045  1
  Al  Al26  1  0.43453402  0.42424869  0.84371131  1
  Al  Al27  1  0.11468090  0.75073104  0.34881496  1
  Al  Al28  1  0.78028616  0.75666835  0.84201046  1
  Al  Al29  1  0.44347826  0.76054274  0.36002500  1
  Al  Al30  1  0.11550218  0.74923914  0.83844382  1
  Al  Al31  1  0.22529537  0.86530908  0.60220807  1
  Al  Al32  1  0.78191479  0.75892105  0.34719527  1
  Al  Al33  1  0.89330422  0.86308895  0.10374438  1
  Al  Al34  1  0.44480947  0.76145912  0.84857317  1
  Al  Al35  1  0.55470877  0.87259713  0.59872509  1
  N  N36  1  0.22815890  0.21955155  0.36656747  1
  N  N37  1  0.09895707  0.10151131  0.10328164  1
  N  N38  1  0.87804196  0.22280558  0.85606046  1
  N  N39  1  0.76643302  0.11123114  0.60238937  1
  N  N40  1  0.55472059  0.20941371  0.36018023  1
  N  N41  1  0.45442514  0.10141996  0.12523572  1
  N  N42  1  0.23158293  0.21573485  0.84395315  1
  N  N43  1  0.10999369  0.09393966  0.60296682  1
  N  N44  1  0.87808624  0.19985248  0.35698965  1
  N  N45  1  0.77492207  0.09669557  0.11171239  1
  N  N46  1  0.53680390  0.21323869  0.86589696  1
  N  N47  1  0.44874171  0.09435725  0.60118724  1
  N  N48  1  0.22355730  0.53657226  0.36499495  1
  N  N49  1  0.10290430  0.44556294  0.11098116  1
  N  N50  1  0.89211975  0.54019454  0.85545170  1
  N  N51  1  0.79447442  0.42348766  0.61027903  1
  N  N52  1  0.54058254  0.54282208  0.35450770  1
  N  N53  1  0.42918013  0.42158856  0.11115789  1
  N  N54  1  0.22047659  0.53830472  0.86053069  1
  N  N55  1  0.11047365  0.43255765  0.61198963  1
  N  N56  1  0.90181484  0.54888329  0.36730133  1
  N  N57  1  0.79628818  0.42523947  0.09893383  1
  N  N58  1  0.55526700  0.53628403  0.85132010  1
  N  N59  1  0.43330754  0.41728888  0.61409615  1
  N  N60  1  0.22903784  0.85352203  0.36193108  1
  N  N61  1  0.10392688  0.74720202  0.11628443  1
  N  N62  1  0.89902590  0.85440828  0.85942179  1
  N  N63  1  0.77010722  0.75354228  0.61011785  1
  N  N64  1  0.55763999  0.86903145  0.36401533  1
  N  N65  1  0.44585885  0.76047417  0.09712137  1
  N  N66  1  0.22713537  0.85321033  0.84512355  1
  N  N67  1  0.12717630  0.74784192  0.60520530  1
  N  N68  1  0.88664832  0.87365549  0.34793283  1
  N  N69  1  0.79407743  0.75097954  0.10904615  1
  N  N70  1  0.55488426  0.87679824  0.84480539  1
  N  N71  1  0.43790126  0.77631790  0.60577892  1
