# generated using pymatgen
data_Sc5Al13N18
_symmetry_space_group_name_H-M   'P 1'
_cell_length_a   10.36115440
_cell_length_b   10.36626056
_cell_length_c   8.66835467
_cell_angle_alpha   89.93295685
_cell_angle_beta   89.95546360
_cell_angle_gamma   59.76190178
_symmetry_Int_Tables_number   1
_chemical_formula_structural   Sc5Al13N18
_chemical_formula_sum   'Sc10 Al26 N36'
_cell_volume   804.35965750
_cell_formula_units_Z   2
loop_
 _symmetry_equiv_pos_site_id
 _symmetry_equiv_pos_as_xyz
  1  'x, y, z'
loop_
 _atom_site_type_symbol
 _atom_site_label
 _atom_site_symmetry_multiplicity
 _atom_site_fract_x
 _atom_site_fract_y
 _atom_site_fract_z
 _atom_site_occupancy
  Sc  Sc0  1  0.11195966  0.09289026  0.35744908  1
  Sc  Sc1  1  0.22469712  0.21542569  0.10291859  1
  Sc  Sc2  1  0.77082078  0.09767186  0.85677545  1
  Sc  Sc3  1  0.11144053  0.09639889  0.84775042  1
  Sc  Sc4  1  0.55503093  0.53181598  0.09912699  1
  Sc  Sc5  1  0.78383416  0.43181474  0.35235237  1
  Sc  Sc6  1  0.55183111  0.53632538  0.60531835  1
  Sc  Sc7  1  0.21804447  0.86407266  0.10165104  1
  Sc  Sc8  1  0.88970165  0.87056678  0.59857820  1
  Sc  Sc9  1  0.56110059  0.87343302  0.10196585  1
  Al  Al10  1  0.88417285  0.20952416  0.60262843  1
  Al  Al11  1  0.44841957  0.09753265  0.35525349  1
  Al  Al12  1  0.55117031  0.20888636  0.10400890  1
  Al  Al13  1  0.22535420  0.21335900  0.60017141  1
  Al  Al14  1  0.77223277  0.09645442  0.34719314  1
  Al  Al15  1  0.88598158  0.20857560  0.10249111  1
  Al  Al16  1  0.44550026  0.09801706  0.83360407  1
  Al  Al17  1  0.55161484  0.20836699  0.59127076  1
  Al  Al18  1  0.11291799  0.43627785  0.35797482  1
  Al  Al19  1  0.21674981  0.53805068  0.09811285  1
  Al  Al20  1  0.78278547  0.43201396  0.85108413  1
  Al  Al21  1  0.89330734  0.53879858  0.60393855  1
  Al  Al22  1  0.43635657  0.42710241  0.34893836  1
  Al  Al23  1  0.11143242  0.43413762  0.84536041  1
  Al  Al24  1  0.22319747  0.53464673  0.59913764  1
  Al  Al25  1  0.89618524  0.54134819  0.09392659  1
  Al  Al26  1  0.43478603  0.42469190  0.84800248  1
  Al  Al27  1  0.11499835  0.75100372  0.35212289  1
  Al  Al28  1  0.78068319  0.75650189  0.84656886  1
  Al  Al29  1  0.44331309  0.76097692  0.36197085  1
  Al  Al30  1  0.11480579  0.74962405  0.84541596  1
  Al  Al31  1  0.22510077  0.86498189  0.60368887  1
  Al  Al32  1  0.78136704  0.75904686  0.35205675  1
  Al  Al33  1  0.89278643  0.86347109  0.10527044  1
  Al  Al34  1  0.44470791  0.76134428  0.84954992  1
  Al  Al35  1  0.55456654  0.87289901  0.60066393  1
  N  N36  1  0.22854495  0.21917331  0.36563986  1
  N  N37  1  0.09902760  0.10160538  0.10278390  1
  N  N38  1  0.87794712  0.22245817  0.85322819  1
  N  N39  1  0.76706109  0.11067827  0.59874618  1
  N  N40  1  0.55451400  0.20870557  0.35737040  1
  N  N41  1  0.45433090  0.10153865  0.11933934  1
  N  N42  1  0.23134559  0.21567432  0.84153536  1
  N  N43  1  0.10972760  0.09388903  0.60277002  1
  N  N44  1  0.87837408  0.20011635  0.35382727  1
  N  N45  1  0.77474155  0.09665638  0.11147312  1
  N  N46  1  0.53753817  0.21351711  0.85912795  1
  N  N47  1  0.44871935  0.09396078  0.60007288  1
  N  N48  1  0.22278051  0.53685240  0.35875095  1
  N  N49  1  0.10343336  0.44498814  0.10032596  1
  N  N50  1  0.89120230  0.54061830  0.85137987  1
  N  N51  1  0.79416345  0.42353658  0.60909239  1
  N  N52  1  0.54059019  0.54349854  0.35398360  1
  N  N53  1  0.42987954  0.42112366  0.10692620  1
  N  N54  1  0.22119193  0.53832343  0.85356551  1
  N  N55  1  0.10992295  0.43287109  0.60744227  1
  N  N56  1  0.90202363  0.54818405  0.35948776  1
  N  N57  1  0.79599333  0.42508265  0.09651194  1
  N  N58  1  0.55503781  0.53583367  0.85123729  1
  N  N59  1  0.43357616  0.41790322  0.60717604  1
  N  N60  1  0.22922467  0.85375081  0.36099524  1
  N  N61  1  0.10410322  0.74762608  0.10994764  1
  N  N62  1  0.89823148  0.85529943  0.85811428  1
  N  N63  1  0.77056428  0.75323536  0.60513218  1
  N  N64  1  0.55695630  0.86960092  0.36301296  1
  N  N65  1  0.44582945  0.76061084  0.09417470  1
  N  N66  1  0.22675628  0.85349577  0.84363109  1
  N  N67  1  0.12675627  0.74835374  0.60151612  1
  N  N68  1  0.88734732  0.87279773  0.34583853  1
  N  N69  1  0.79342790  0.75170988  0.10426309  1
  N  N70  1  0.55559566  0.87625801  0.84286327  1
  N  N71  1  0.43793861  0.77619012  0.60493491  1
