# generated using pymatgen
data_Sc5Al13N18
_symmetry_space_group_name_H-M   'P 1'
_cell_length_a   10.07651717
_cell_length_b   10.07995826
_cell_length_c   9.49085613
_cell_angle_alpha   89.94059439
_cell_angle_beta   89.96074139
_cell_angle_gamma   59.72988348
_symmetry_Int_Tables_number   1
_chemical_formula_structural   Sc5Al13N18
_chemical_formula_sum   'Sc10 Al26 N36'
_cell_volume   832.56168835
_cell_formula_units_Z   2
loop_
 _symmetry_equiv_pos_site_id
 _symmetry_equiv_pos_as_xyz
  1  'x, y, z'
loop_
 _atom_site_type_symbol
 _atom_site_label
 _atom_site_symmetry_multiplicity
 _atom_site_fract_x
 _atom_site_fract_y
 _atom_site_fract_z
 _atom_site_occupancy
  Sc  Sc0  1  0.11426636  0.09155113  0.36904498  1
  Sc  Sc1  1  0.22378395  0.21694282  0.11391471  1
  Sc  Sc2  1  0.77291641  0.09415088  0.86242575  1
  Sc  Sc3  1  0.11037086  0.09812029  0.85596327  1
  Sc  Sc4  1  0.55214459  0.53387227  0.11032116  1
  Sc  Sc5  1  0.78326747  0.43148683  0.35662572  1
  Sc  Sc6  1  0.55565144  0.53295348  0.61313164  1
  Sc  Sc7  1  0.21811387  0.86597175  0.10880576  1
  Sc  Sc8  1  0.89249501  0.86590531  0.60332411  1
  Sc  Sc9  1  0.56112877  0.87352761  0.11137706  1
  Al  Al10  1  0.88465819  0.21412129  0.62557872  1
  Al  Al11  1  0.44745030  0.09511105  0.38307541  1
  Al  Al12  1  0.55593157  0.20544344  0.13089045  1
  Al  Al13  1  0.22585866  0.21144770  0.62374059  1
  Al  Al14  1  0.76979418  0.09826784  0.37619289  1
  Al  Al15  1  0.88547186  0.20235551  0.12652505  1
  Al  Al16  1  0.44623984  0.10149960  0.86921128  1
  Al  Al17  1  0.54634826  0.21029334  0.62311388  1
  Al  Al18  1  0.11443464  0.43580421  0.38425671  1
  Al  Al19  1  0.21499499  0.53780232  0.12741206  1
  Al  Al20  1  0.78130875  0.43304350  0.88127564  1
  Al  Al21  1  0.88945718  0.53702453  0.62887381  1
  Al  Al22  1  0.43554853  0.42628267  0.37534189  1
  Al  Al23  1  0.10966185  0.43705658  0.86901479  1
  Al  Al24  1  0.22400913  0.53569514  0.62795629  1
  Al  Al25  1  0.90011198  0.54399904  0.12424526  1
  Al  Al26  1  0.43511291  0.42546033  0.87789370  1
  Al  Al27  1  0.12233084  0.75037223  0.37465891  1
  Al  Al28  1  0.78572101  0.75540648  0.87458069  1
  Al  Al29  1  0.44105935  0.76479699  0.38479415  1
  Al  Al30  1  0.10988922  0.74851395  0.87719174  1
  Al  Al31  1  0.22429237  0.86538088  0.63020816  1
  Al  Al32  1  0.77556292  0.75920427  0.37705580  1
  Al  Al33  1  0.88939352  0.86908852  0.13315792  1
  Al  Al34  1  0.44744818  0.75664485  0.86552009  1
  Al  Al35  1  0.55429602  0.87392561  0.62853791  1
  N  N36  1  0.23128696  0.21904205  0.34445596  1
  N  N37  1  0.09653677  0.10447169  0.09039728  1
  N  N38  1  0.87464073  0.22778134  0.82798982  1
  N  N39  1  0.76593973  0.11448178  0.58510490  1
  N  N40  1  0.55358419  0.20441962  0.33310677  1
  N  N41  1  0.45701499  0.10435706  0.06897875  1
  N  N42  1  0.23012144  0.21903658  0.83108204  1
  N  N43  1  0.11199289  0.09262745  0.60281956  1
  N  N44  1  0.87895832  0.19522136  0.32854123  1
  N  N45  1  0.77618215  0.09268069  0.09050567  1
  N  N46  1  0.53717037  0.21824017  0.82170217  1
  N  N47  1  0.44714589  0.09215081  0.58494917  1
  N  N48  1  0.22168848  0.53726413  0.32798737  1
  N  N49  1  0.10313709  0.44768807  0.06794184  1
  N  N50  1  0.88781016  0.53991166  0.83030515  1
  N  N51  1  0.79685289  0.42200882  0.57988116  1
  N  N52  1  0.53747693  0.54644195  0.34835391  1
  N  N53  1  0.42956934  0.41778970  0.08020469  1
  N  N54  1  0.22283930  0.53859034  0.82697883  1
  N  N55  1  0.10844126  0.43365829  0.58634159  1
  N  N56  1  0.90555681  0.55039906  0.32511698  1
  N  N57  1  0.79784704  0.42313201  0.09109318  1
  N  N58  1  0.55786640  0.53203525  0.84710065  1
  N  N59  1  0.43081737  0.41784470  0.57465546  1
  N  N60  1  0.23153678  0.85411001  0.33528072  1
  N  N61  1  0.09889102  0.74926709  0.08056431  1
  N  N62  1  0.89938632  0.85206924  0.82639762  1
  N  N63  1  0.76657643  0.74920673  0.57769877  1
  N  N64  1  0.55271361  0.87335219  0.33983258  1
  N  N65  1  0.44670852  0.76053118  0.06485914  1
  N  N66  1  0.22655022  0.85032518  0.83637720  1
  N  N67  1  0.13462000  0.74634587  0.57508822  1
  N  N68  1  0.88764905  0.87210935  0.34379128  1
  N  N69  1  0.79674374  0.75434005  0.07699237  1
  N  N70  1  0.55881347  0.87345506  0.83432152  1
  N  N71  1  0.43615880  0.77885972  0.59044061  1
