# generated using pymatgen
data_Sc5Al13N18
_symmetry_space_group_name_H-M   'P 1'
_cell_length_a   9.82986238
_cell_length_b   9.83295908
_cell_length_c   10.15753395
_cell_angle_alpha   89.98234562
_cell_angle_beta   90.01586522
_cell_angle_gamma   59.80546727
_symmetry_Int_Tables_number   1
_chemical_formula_structural   Sc5Al13N18
_chemical_formula_sum   'Sc10 Al26 N36'
_cell_volume   848.58596590
_cell_formula_units_Z   2
loop_
 _symmetry_equiv_pos_site_id
 _symmetry_equiv_pos_as_xyz
  1  'x, y, z'
loop_
 _atom_site_type_symbol
 _atom_site_label
 _atom_site_symmetry_multiplicity
 _atom_site_fract_x
 _atom_site_fract_y
 _atom_site_fract_z
 _atom_site_occupancy
  Sc  Sc0  1  0.11157708  0.09440177  0.32908600  1
  Sc  Sc1  1  0.22190779  0.21364181  0.06360396  1
  Sc  Sc2  1  0.77094408  0.09880406  0.82633164  1
  Sc  Sc3  1  0.11302598  0.09402436  0.79782287  1
  Sc  Sc4  1  0.55646515  0.53151557  0.04983485  1
  Sc  Sc5  1  0.77694366  0.43452331  0.31654651  1
  Sc  Sc6  1  0.55203319  0.53659247  0.57823694  1
  Sc  Sc7  1  0.21783634  0.86818804  0.06692259  1
  Sc  Sc8  1  0.88863847  0.87278922  0.56408068  1
  Sc  Sc9  1  0.56094605  0.87227351  0.06505496  1
  Al  Al10  1  0.88373218  0.20644231  0.55386190  1
  Al  Al11  1  0.44991730  0.09830973  0.31477555  1
  Al  Al12  1  0.54826701  0.21001915  0.06218930  1
  Al  Al13  1  0.22692504  0.21307886  0.55485474  1
  Al  Al14  1  0.77247162  0.09355377  0.30087492  1
  Al  Al15  1  0.88731771  0.21181830  0.05871381  1
  Al  Al16  1  0.44342721  0.09768554  0.79997877  1
  Al  Al17  1  0.55302728  0.20620381  0.55467319  1
  Al  Al18  1  0.11314237  0.43838527  0.30989836  1
  Al  Al19  1  0.21686492  0.53825311  0.05936854  1
  Al  Al20  1  0.78572422  0.43027330  0.80193759  1
  Al  Al21  1  0.89590007  0.53854294  0.55947508  1
  Al  Al22  1  0.43815859  0.42774487  0.31014042  1
  Al  Al23  1  0.11177930  0.43239912  0.80449499  1
  Al  Al24  1  0.22268279  0.53435958  0.55610940  1
  Al  Al25  1  0.89440899  0.53984519  0.05597749  1
  Al  Al26  1  0.43304115  0.42413266  0.80428447  1
  Al  Al27  1  0.11004416  0.75325054  0.30775888  1
  Al  Al28  1  0.77761419  0.75491572  0.80610382  1
  Al  Al29  1  0.44498659  0.75534261  0.31486459  1
  Al  Al30  1  0.12032552  0.74828404  0.80709183  1
  Al  Al31  1  0.22614736  0.86508213  0.55189179  1
  Al  Al32  1  0.78392331  0.76140211  0.30796826  1
  Al  Al33  1  0.89393625  0.86162675  0.05840751  1
  Al  Al34  1  0.44313586  0.76646749  0.79799101  1
  Al  Al35  1  0.55364630  0.87459736  0.55609807  1
  N  N36  1  0.23293233  0.22178990  0.36616339  1
  N  N37  1  0.09494021  0.10410901  0.11732366  1
  N  N38  1  0.88301042  0.22540324  0.87144262  1
  N  N39  1  0.76576648  0.11447598  0.61722756  1
  N  N40  1  0.55784054  0.20618379  0.36552057  1
  N  N41  1  0.45470731  0.10183409  0.13003331  1
  N  N42  1  0.22866884  0.21450454  0.85154083  1
  N  N43  1  0.11214669  0.09370039  0.58272834  1
  N  N44  1  0.87125655  0.19930200  0.36878308  1
  N  N45  1  0.77613529  0.09534981  0.10282234  1
  N  N46  1  0.53119139  0.21643130  0.87400893  1
  N  N47  1  0.44805640  0.09371558  0.60960235  1
  N  N48  1  0.22231052  0.53988276  0.36837802  1
  N  N49  1  0.10133790  0.44667352  0.12167451  1
  N  N50  1  0.89130736  0.53903074  0.86413533  1
  N  N51  1  0.80291194  0.41718295  0.61139685  1
  N  N52  1  0.53858872  0.54175049  0.36581899  1
  N  N53  1  0.43152900  0.42229779  0.12057268  1
  N  N54  1  0.22149392  0.53685569  0.86862975  1
  N  N55  1  0.11135489  0.43115194  0.61586277  1
  N  N56  1  0.90143964  0.55138504  0.37331555  1
  N  N57  1  0.79238615  0.42620131  0.10852037  1
  N  N58  1  0.55558042  0.53818478  0.83102683  1
  N  N59  1  0.43034874  0.41330235  0.61860444  1
  N  N60  1  0.22873261  0.84963069  0.36306942  1
  N  N61  1  0.10282912  0.74859627  0.12046043  1
  N  N62  1  0.90088376  0.84937932  0.86352135  1
  N  N63  1  0.76802501  0.75197002  0.61860174  1
  N  N64  1  0.55773601  0.87089174  0.36341884  1
  N  N65  1  0.44934348  0.75421134  0.12903229  1
  N  N66  1  0.23135589  0.85373889  0.85782525  1
  N  N67  1  0.13173891  0.74805471  0.61790465  1
  N  N68  1  0.88695998  0.87598718  0.35416156  1
  N  N69  1  0.79585317  0.75033222  0.11940548  1
  N  N70  1  0.55388844  0.87501783  0.85332583  1
  N  N71  1  0.43345366  0.78428578  0.61181105  1
