# generated using pymatgen
data_Sc5Al13N18
_symmetry_space_group_name_H-M   'P 1'
_cell_length_a   9.86303025
_cell_length_b   9.86704496
_cell_length_c   10.07485568
_cell_angle_alpha   89.98482208
_cell_angle_beta   89.99461545
_cell_angle_gamma   59.77644701
_symmetry_Int_Tables_number   1
_chemical_formula_structural   Sc5Al13N18
_chemical_formula_sum   'Sc10 Al26 N36'
_cell_volume   847.19656522
_cell_formula_units_Z   2
loop_
 _symmetry_equiv_pos_site_id
 _symmetry_equiv_pos_as_xyz
  1  'x, y, z'
loop_
 _atom_site_type_symbol
 _atom_site_label
 _atom_site_symmetry_multiplicity
 _atom_site_fract_x
 _atom_site_fract_y
 _atom_site_fract_z
 _atom_site_occupancy
  Sc  Sc0  1  0.11136327  0.09425753  0.34488779  1
  Sc  Sc1  1  0.22258318  0.21366955  0.08130806  1
  Sc  Sc2  1  0.77088719  0.09943709  0.84429688  1
  Sc  Sc3  1  0.11341476  0.09406765  0.81656302  1
  Sc  Sc4  1  0.55778409  0.53072237  0.06779464  1
  Sc  Sc5  1  0.77772571  0.43399797  0.33559788  1
  Sc  Sc6  1  0.55084103  0.53707339  0.59447172  1
  Sc  Sc7  1  0.21817723  0.86710332  0.08429366  1
  Sc  Sc8  1  0.88819084  0.87315477  0.58260597  1
  Sc  Sc9  1  0.56108507  0.87234293  0.08261611  1
  Al  Al10  1  0.88368516  0.20586144  0.57062854  1
  Al  Al11  1  0.45013533  0.09848685  0.33122095  1
  Al  Al12  1  0.54796722  0.21036301  0.07791530  1
  Al  Al13  1  0.22652756  0.21315311  0.57102928  1
  Al  Al14  1  0.77267126  0.09304856  0.31667036  1
  Al  Al15  1  0.88750305  0.21258858  0.07502373  1
  Al  Al16  1  0.44334020  0.09777950  0.81611559  1
  Al  Al17  1  0.55312703  0.20630348  0.57103465  1
  Al  Al18  1  0.11301656  0.43878021  0.32560192  1
  Al  Al19  1  0.21670378  0.53838907  0.07499986  1
  Al  Al20  1  0.78535828  0.43093916  0.81703699  1
  Al  Al21  1  0.89589546  0.53911674  0.57543923  1
  Al  Al22  1  0.43800193  0.42756005  0.32590905  1
  Al  Al23  1  0.11173024  0.43236867  0.82085568  1
  Al  Al24  1  0.22260876  0.53416012  0.57206980  1
  Al  Al25  1  0.89450529  0.53968742  0.07222435  1
  Al  Al26  1  0.43281327  0.42417452  0.82064484  1
  Al  Al27  1  0.10943754  0.75320222  0.32434909  1
  Al  Al28  1  0.77689759  0.75499857  0.82229304  1
  Al  Al29  1  0.44510643  0.75510983  0.33079895  1
  Al  Al30  1  0.12077919  0.74802024  0.82271559  1
  Al  Al31  1  0.22585782  0.86537360  0.56807429  1
  Al  Al32  1  0.78453288  0.76141410  0.32407525  1
  Al  Al33  1  0.89430569  0.86100869  0.07330192  1
  Al  Al34  1  0.44296246  0.76664315  0.81474239  1
  Al  Al35  1  0.55343016  0.87457530  0.57174549  1
  N  N36  1  0.23246785  0.22174088  0.38038093  1
  N  N37  1  0.09551108  0.10355894  0.13085417  1
  N  N38  1  0.88232831  0.22680771  0.88617165  1
  N  N39  1  0.76520756  0.11501829  0.63349385  1
  N  N40  1  0.55804460  0.20622719  0.38061254  1
  N  N41  1  0.45542711  0.10199227  0.14525366  1
  N  N42  1  0.22897075  0.21492833  0.86752889  1
  N  N43  1  0.11196947  0.09374830  0.59926951  1
  N  N44  1  0.87186215  0.19804437  0.38382709  1
  N  N45  1  0.77635088  0.09536810  0.11677928  1
  N  N46  1  0.53098936  0.21652248  0.88867402  1
  N  N47  1  0.44783372  0.09376417  0.62425637  1
  N  N48  1  0.22241725  0.53964375  0.38330672  1
  N  N49  1  0.10136324  0.44704056  0.13626274  1
  N  N50  1  0.89092781  0.53914323  0.87899744  1
  N  N51  1  0.80194025  0.41797702  0.62440987  1
  N  N52  1  0.53841205  0.54151560  0.38009808  1
  N  N53  1  0.43116325  0.42237982  0.13515813  1
  N  N54  1  0.22117957  0.53701280  0.88339158  1
  N  N55  1  0.11119032  0.43114714  0.63100076  1
  N  N56  1  0.90191541  0.55182869  0.38821961  1
  N  N57  1  0.79361914  0.42593817  0.12578627  1
  N  N58  1  0.55561665  0.53838316  0.84686801  1
  N  N59  1  0.43010369  0.41343100  0.63362539  1
  N  N60  1  0.22853616  0.84981501  0.37726308  1
  N  N61  1  0.10227319  0.74836958  0.13556733  1
  N  N62  1  0.90085844  0.84932909  0.87680827  1
  N  N63  1  0.76729674  0.75210388  0.63356563  1
  N  N64  1  0.55786106  0.87074541  0.37771663  1
  N  N65  1  0.44967626  0.75398974  0.14368947  1
  N  N66  1  0.23126421  0.85319500  0.87345130  1
  N  N67  1  0.13208694  0.74779783  0.63235418  1
  N  N68  1  0.88666892  0.87614319  0.37063084  1
  N  N69  1  0.79636849  0.75034653  0.13402147  1
  N  N70  1  0.55346182  0.87537076  0.86920146  1
  N  N71  1  0.43327703  0.78441951  0.62671342  1
