# generated using pymatgen
data_Sc5Al13N18
_symmetry_space_group_name_H-M   'P 1'
_cell_length_a   10.25655547
_cell_length_b   10.26384235
_cell_length_c   8.95886700
_cell_angle_alpha   89.93710502
_cell_angle_beta   89.94797958
_cell_angle_gamma   59.73903689
_symmetry_Int_Tables_number   1
_chemical_formula_structural   Sc5Al13N18
_chemical_formula_sum   'Sc10 Al26 N36'
_cell_volume   814.60463075
_cell_formula_units_Z   2
loop_
 _symmetry_equiv_pos_site_id
 _symmetry_equiv_pos_as_xyz
  1  'x, y, z'
loop_
 _atom_site_type_symbol
 _atom_site_label
 _atom_site_symmetry_multiplicity
 _atom_site_fract_x
 _atom_site_fract_y
 _atom_site_fract_z
 _atom_site_occupancy
  Sc  Sc0  1  0.11305165  0.09259200  0.35995523  1
  Sc  Sc1  1  0.22364234  0.21756836  0.10616672  1
  Sc  Sc2  1  0.77126100  0.09663548  0.85823296  1
  Sc  Sc3  1  0.11101826  0.09702165  0.85012646  1
  Sc  Sc4  1  0.55389885  0.53339178  0.10279718  1
  Sc  Sc5  1  0.78358893  0.43186453  0.35395871  1
  Sc  Sc6  1  0.55341095  0.53370709  0.60854452  1
  Sc  Sc7  1  0.21928963  0.86476557  0.10395045  1
  Sc  Sc8  1  0.89158152  0.86793103  0.60110626  1
  Sc  Sc9  1  0.56048780  0.87336715  0.10527489  1
  Al  Al10  1  0.88452120  0.21106956  0.61350328  1
  Al  Al11  1  0.44783156  0.09581903  0.37532275  1
  Al  Al12  1  0.55368750  0.20724671  0.12497447  1
  Al  Al13  1  0.22634511  0.21118383  0.61049104  1
  Al  Al14  1  0.77186277  0.09597727  0.35880901  1
  Al  Al15  1  0.88581717  0.20621353  0.11506257  1
  Al  Al16  1  0.44613388  0.10001174  0.85815864  1
  Al  Al17  1  0.54855082  0.20956649  0.61312765  1
  Al  Al18  1  0.11383549  0.43611603  0.38000477  1
  Al  Al19  1  0.21585760  0.53666489  0.12091292  1
  Al  Al20  1  0.78166955  0.43279980  0.86431659  1
  Al  Al21  1  0.89021572  0.53866507  0.62185382  1
  Al  Al22  1  0.43560728  0.42689166  0.36716913  1
  Al  Al23  1  0.11042566  0.43597423  0.85823547  1
  Al  Al24  1  0.22392955  0.53653172  0.62037700  1
  Al  Al25  1  0.89934847  0.54188810  0.11492149  1
  Al  Al26  1  0.43483397  0.42517602  0.86998558  1
  Al  Al27  1  0.11826441  0.75074004  0.36489976  1
  Al  Al28  1  0.78315442  0.75580611  0.86589683  1
  Al  Al29  1  0.44231657  0.76292339  0.37697083  1
  Al  Al30  1  0.11222849  0.74886433  0.86898176  1
  Al  Al31  1  0.22324287  0.86561449  0.61452421  1
  Al  Al32  1  0.77916218  0.75872034  0.36725244  1
  Al  Al33  1  0.89067134  0.86654567  0.11831065  1
  Al  Al34  1  0.44565806  0.75929320  0.85468869  1
  Al  Al35  1  0.55500865  0.87370811  0.61490584  1
  N  N36  1  0.23061101  0.21944072  0.35764433  1
  N  N37  1  0.09861513  0.10272903  0.09989502  1
  N  N38  1  0.87690539  0.22405935  0.84068554  1
  N  N39  1  0.76706267  0.11163978  0.59095625  1
  N  N40  1  0.55327438  0.20528617  0.34281988  1
  N  N41  1  0.45565674  0.10347171  0.08134294  1
  N  N42  1  0.22991587  0.21712359  0.83626533  1
  N  N43  1  0.11070186  0.09327049  0.60223520  1
  N  N44  1  0.87854041  0.19872824  0.34116945  1
  N  N45  1  0.77511657  0.09484987  0.10421614  1
  N  N46  1  0.53785281  0.21726532  0.83062654  1
  N  N47  1  0.44794040  0.09246978  0.59316443  1
  N  N48  1  0.22139204  0.53659964  0.33714246  1
  N  N49  1  0.10377536  0.44647505  0.07506093  1
  N  N50  1  0.88845169  0.54116260  0.83837270  1
  N  N51  1  0.79467343  0.42324650  0.59644973  1
  N  N52  1  0.53909910  0.54589896  0.35195938  1
  N  N53  1  0.43036685  0.41884730  0.08998023  1
  N  N54  1  0.22297443  0.53882631  0.83465861  1
  N  N55  1  0.10852553  0.43421967  0.59707514  1
  N  N56  1  0.90529586  0.54783607  0.33549091  1
  N  N57  1  0.79691930  0.42423853  0.09371297  1
  N  N58  1  0.55621430  0.53272410  0.84988480  1
  N  N59  1  0.43161153  0.41870159  0.58308261  1
  N  N60  1  0.23079991  0.85422472  0.34994222  1
  N  N61  1  0.10245699  0.74806415  0.09199014  1
  N  N62  1  0.89809532  0.85476325  0.84371643  1
  N  N63  1  0.76957710  0.75074706  0.58660151  1
  N  N64  1  0.55350409  0.87267563  0.35245389  1
  N  N65  1  0.44634069  0.76049618  0.07513832  1
  N  N66  1  0.22513986  0.85236720  0.84000286  1
  N  N67  1  0.12976847  0.74734371  0.58339975  1
  N  N68  1  0.88818500  0.87141969  0.34355628  1
  N  N69  1  0.79435153  0.75310708  0.08809943  1
  N  N70  1  0.55895738  0.87370587  0.83828762  1
  N  N71  1  0.43727186  0.77688753  0.60056273  1
