# generated using pymatgen
data_Sc5Al13N18
_symmetry_space_group_name_H-M   'P 1'
_cell_length_a   10.12326263
_cell_length_b   10.12622629
_cell_length_c   9.35594604
_cell_angle_alpha   89.95081927
_cell_angle_beta   89.97157100
_cell_angle_gamma   59.75616108
_symmetry_Int_Tables_number   1
_chemical_formula_structural   Sc5Al13N18
_chemical_formula_sum   'Sc10 Al26 N36'
_cell_volume   828.54091812
_cell_formula_units_Z   2
loop_
 _symmetry_equiv_pos_site_id
 _symmetry_equiv_pos_as_xyz
  1  'x, y, z'
loop_
 _atom_site_type_symbol
 _atom_site_label
 _atom_site_symmetry_multiplicity
 _atom_site_fract_x
 _atom_site_fract_y
 _atom_site_fract_z
 _atom_site_occupancy
  Sc  Sc0  1  0.11055082  0.09351213  0.35073727  1
  Sc  Sc1  1  0.22517736  0.21453845  0.09546703  1
  Sc  Sc2  1  0.77017034  0.09966552  0.85412774  1
  Sc  Sc3  1  0.11352549  0.09481672  0.83928526  1
  Sc  Sc4  1  0.55875661  0.53039789  0.08926134  1
  Sc  Sc5  1  0.78277278  0.43179204  0.34922499  1
  Sc  Sc6  1  0.54900890  0.53694110  0.59863601  1
  Sc  Sc7  1  0.21809347  0.86359378  0.09522567  1
  Sc  Sc8  1  0.88722763  0.87336015  0.59508818  1
  Sc  Sc9  1  0.56098784  0.87381186  0.09540655  1
  Al  Al10  1  0.88401166  0.20526104  0.58212010  1
  Al  Al11  1  0.44996267  0.09891075  0.34304690  1
  Al  Al12  1  0.54710080  0.21029187  0.08427654  1
  Al  Al13  1  0.22414414  0.21346938  0.58213360  1
  Al  Al14  1  0.77301512  0.09317019  0.32400135  1
  Al  Al15  1  0.88626144  0.21427806  0.08131938  1
  Al  Al16  1  0.44412493  0.09752200  0.81968987  1
  Al  Al17  1  0.55385911  0.20799570  0.57670053  1
  Al  Al18  1  0.11182938  0.43983056  0.33164428  1
  Al  Al19  1  0.21508198  0.53931775  0.07878725  1
  Al  Al20  1  0.78245948  0.43353282  0.82569390  1
  Al  Al21  1  0.89566260  0.54049593  0.58396412  1
  Al  Al22  1  0.43661033  0.42655941  0.32919579  1
  Al  Al23  1  0.11267125  0.43199322  0.82709075  1
  Al  Al24  1  0.22379909  0.53272511  0.57852220  1
  Al  Al25  1  0.89535765  0.53965877  0.07603389  1
  Al  Al26  1  0.43315352  0.42410159  0.83120664  1
  Al  Al27  1  0.10982934  0.75204157  0.33504385  1
  Al  Al28  1  0.77639611  0.75590330  0.82983449  1
  Al  Al29  1  0.44467793  0.75684967  0.33759218  1
  Al  Al30  1  0.12031345  0.74761608  0.82595528  1
  Al  Al31  1  0.22509367  0.86631699  0.58046935  1
  Al  Al32  1  0.78584181  0.76010526  0.33055915  1
  Al  Al33  1  0.89519450  0.86016462  0.08159668  1
  Al  Al34  1  0.44385084  0.76503372  0.82485316  1
  Al  Al35  1  0.55470045  0.87280240  0.57859337  1
  N  N36  1  0.22894038  0.22110967  0.37124472  1
  N  N37  1  0.09754725  0.10190241  0.11134981  1
  N  N38  1  0.87820130  0.22795790  0.87441072  1
  N  N39  1  0.76450396  0.11398847  0.62576546  1
  N  N40  1  0.55782531  0.20821131  0.37291673  1
  N  N41  1  0.45610627  0.10217720  0.14066021  1
  N  N42  1  0.23136896  0.21571784  0.85967546  1
  N  N43  1  0.11145969  0.09351920  0.60266189  1
  N  N44  1  0.87545882  0.19620343  0.37560543  1
  N  N45  1  0.77593532  0.09622412  0.11136203  1
  N  N46  1  0.53260384  0.21441731  0.88012945  1
  N  N47  1  0.44808907  0.09388786  0.61189822  1
  N  N48  1  0.22379361  0.53742889  0.37664935  1
  N  N49  1  0.10113345  0.44785895  0.12693611  1
  N  N50  1  0.89152073  0.53918144  0.86916272  1
  N  N51  1  0.79743399  0.42134067  0.61382679  1
  N  N52  1  0.54039741  0.53966953  0.36336126  1
  N  N53  1  0.42843668  0.42201179  0.12407325  1
  N  N54  1  0.21990306  0.53791388  0.87461838  1
  N  N55  1  0.11132540  0.43132826  0.62403021  1
  N  N56  1  0.90279609  0.55206799  0.38186939  1
  N  N57  1  0.79728185  0.42567676  0.12032948  1
  N  N58  1  0.55580628  0.53919094  0.85039241  1
  N  N59  1  0.43150355  0.41498102  0.62785843  1
  N  N60  1  0.22773109  0.85195154  0.36866374  1
  N  N61  1  0.10195172  0.74688773  0.13017407  1
  N  N62  1  0.90075108  0.85077544  0.86608287  1
  N  N63  1  0.76687339  0.75317070  0.62610570  1
  N  N64  1  0.55949425  0.86932741  0.36927049  1
  N  N65  1  0.44754729  0.75803000  0.13251524  1
  N  N66  1  0.23060450  0.85119601  0.86382073  1
  N  N67  1  0.13081386  0.74702835  0.62047989  1
  N  N68  1  0.88578163  0.87609995  0.36472718  1
  N  N69  1  0.79676898  0.74983089  0.12391391  1
  N  N70  1  0.55258160  0.87677154  0.86271913  1
  N  N71  1  0.43580940  0.78035028  0.61740483  1
