# generated using pymatgen
data_Sc5Al13N18
_symmetry_space_group_name_H-M   'P 1'
_cell_length_a   9.92050256
_cell_length_b   9.92282472
_cell_length_c   9.92682309
_cell_angle_alpha   89.94090494
_cell_angle_beta   89.94613026
_cell_angle_gamma   59.75807964
_symmetry_Int_Tables_number   1
_chemical_formula_structural   Sc5Al13N18
_chemical_formula_sum   'Sc10 Al26 N36'
_cell_volume   844.20078866
_cell_formula_units_Z   2
loop_
 _symmetry_equiv_pos_site_id
 _symmetry_equiv_pos_as_xyz
  1  'x, y, z'
loop_
 _atom_site_type_symbol
 _atom_site_label
 _atom_site_symmetry_multiplicity
 _atom_site_fract_x
 _atom_site_fract_y
 _atom_site_fract_z
 _atom_site_occupancy
  Sc  Sc0  1  0.11434700  0.09140785  0.38338122  1
  Sc  Sc1  1  0.22265914  0.21532841  0.12069642  1
  Sc  Sc2  1  0.77304801  0.09322859  0.87121500  1
  Sc  Sc3  1  0.11078042  0.09733338  0.85909794  1
  Sc  Sc4  1  0.55165794  0.53412480  0.11887627  1
  Sc  Sc5  1  0.78312949  0.43092739  0.36331545  1
  Sc  Sc6  1  0.55622111  0.53357693  0.62042310  1
  Sc  Sc7  1  0.21641730  0.86850361  0.11705218  1
  Sc  Sc8  1  0.89196894  0.86682562  0.60876910  1
  Sc  Sc9  1  0.56162322  0.87359680  0.12011829  1
  Al  Al10  1  0.88407961  0.21429798  0.63193691  1
  Al  Al11  1  0.44695500  0.09573787  0.38667470  1
  Al  Al12  1  0.55559420  0.20551726  0.13362399  1
  Al  Al13  1  0.22613888  0.21215396  0.63153445  1
  Al  Al14  1  0.76996604  0.09885209  0.38037084  1
  Al  Al15  1  0.88637711  0.20199514  0.13048250  1
  Al  Al16  1  0.44606226  0.10118417  0.87390075  1
  Al  Al17  1  0.54655360  0.20990198  0.62745123  1
  Al  Al18  1  0.11455303  0.43551207  0.38517587  1
  Al  Al19  1  0.21520981  0.53839885  0.12995867  1
  Al  Al20  1  0.78048118  0.43293280  0.88656177  1
  Al  Al21  1  0.89053771  0.53597871  0.63252979  1
  Al  Al22  1  0.43583978  0.42608066  0.38024846  1
  Al  Al23  1  0.10979272  0.43676823  0.87554676  1
  Al  Al24  1  0.22363450  0.53491752  0.63133781  1
  Al  Al25  1  0.89908670  0.54439201  0.12741426  1
  Al  Al26  1  0.43577161  0.42612202  0.88092244  1
  Al  Al27  1  0.12211882  0.75087770  0.37986744  1
  Al  Al28  1  0.78502759  0.75548137  0.87779302  1
  Al  Al29  1  0.44088925  0.76478801  0.38795448  1
  Al  Al30  1  0.11070240  0.74850198  0.87998807  1
  Al  Al31  1  0.22633999  0.86395094  0.63610460  1
  Al  Al32  1  0.77572422  0.75961075  0.38191279  1
  Al  Al33  1  0.88960682  0.86910972  0.13708146  1
  Al  Al34  1  0.44801118  0.75627172  0.87338141  1
  Al  Al35  1  0.55331220  0.87403553  0.63196710  1
  N  N36  1  0.23064599  0.21781218  0.33793904  1
  N  N37  1  0.09462111  0.10531551  0.07740712  1
  N  N38  1  0.87223197  0.22876560  0.82223883  1
  N  N39  1  0.76537286  0.11630671  0.57794037  1
  N  N40  1  0.55324873  0.20494894  0.32751436  1
  N  N41  1  0.45689357  0.10411361  0.06347209  1
  N  N42  1  0.23062609  0.22019574  0.82601725  1
  N  N43  1  0.11237683  0.09248742  0.60465779  1
  N  N44  1  0.88158510  0.19341998  0.32156492  1
  N  N45  1  0.77631085  0.09256795  0.08746127  1
  N  N46  1  0.53754406  0.21785704  0.81698379  1
  N  N47  1  0.44638900  0.09275494  0.57967118  1
  N  N48  1  0.22213132  0.53784416  0.32290164  1
  N  N49  1  0.10315108  0.44715848  0.06517186  1
  N  N50  1  0.88827647  0.53898933  0.82603689  1
  N  N51  1  0.79826270  0.42068188  0.57492813  1
  N  N52  1  0.53689986  0.54645168  0.34331231  1
  N  N53  1  0.42964142  0.41759925  0.07376727  1
  N  N54  1  0.22263296  0.53802685  0.82253274  1
  N  N55  1  0.10881258  0.43277513  0.57917416  1
  N  N56  1  0.90470232  0.55149760  0.31925262  1
  N  N57  1  0.79759713  0.42286289  0.08602050  1
  N  N58  1  0.55787557  0.53308251  0.84363202  1
  N  N59  1  0.43092421  0.41773520  0.57052609  1
  N  N60  1  0.23060300  0.85564110  0.33105258  1
  N  N61  1  0.09865444  0.75000628  0.07382621  1
  N  N62  1  0.89962321  0.85171557  0.82111535  1
  N  N63  1  0.76634886  0.74843161  0.57329198  1
  N  N64  1  0.55322317  0.87363371  0.33655594  1
  N  N65  1  0.44606238  0.76165413  0.06164128  1
  N  N66  1  0.22944977  0.84780832  0.83033600  1
  N  N67  1  0.13578769  0.74613495  0.57114418  1
  N  N68  1  0.88833362  0.87194926  0.34057863  1
  N  N69  1  0.79674978  0.75480019  0.07077987  1
  N  N70  1  0.55765726  0.87328828  0.82861502  1
  N  N71  1  0.43588070  0.77923762  0.58169111  1
