# generated using pymatgen
data_Sc5Al13N18
_symmetry_space_group_name_H-M   'P 1'
_cell_length_a   9.83010413
_cell_length_b   9.83322605
_cell_length_c   10.15695671
_cell_angle_alpha   89.98252102
_cell_angle_beta   90.01547200
_cell_angle_gamma   59.80485051
_symmetry_Int_Tables_number   1
_chemical_formula_structural   Sc5Al13N18
_chemical_formula_sum   'Sc10 Al26 N36'
_cell_volume   848.57633913
_cell_formula_units_Z   2
loop_
 _symmetry_equiv_pos_site_id
 _symmetry_equiv_pos_as_xyz
  1  'x, y, z'
loop_
 _atom_site_type_symbol
 _atom_site_label
 _atom_site_symmetry_multiplicity
 _atom_site_fract_x
 _atom_site_fract_y
 _atom_site_fract_z
 _atom_site_occupancy
  Sc  Sc0  1  0.11156815  0.09441608  0.33709687  1
  Sc  Sc1  1  0.22190465  0.21365560  0.07162438  1
  Sc  Sc2  1  0.77093459  0.09882690  0.83436150  1
  Sc  Sc3  1  0.11302140  0.09403757  0.80585209  1
  Sc  Sc4  1  0.55647111  0.53151751  0.05785587  1
  Sc  Sc5  1  0.77693885  0.43453373  0.32458328  1
  Sc  Sc6  1  0.55201147  0.53661198  0.58625422  1
  Sc  Sc7  1  0.21783096  0.86819110  0.07494610  1
  Sc  Sc8  1  0.88862167  0.87280900  0.57211387  1
  Sc  Sc9  1  0.56093629  0.87228653  0.07307960  1
  Al  Al10  1  0.88372120  0.20645272  0.56187820  1
  Al  Al11  1  0.44990895  0.09832630  0.32278985  1
  Al  Al12  1  0.54825533  0.21003606  0.07019957  1
  Al  Al13  1  0.22691120  0.21309649  0.56286846  1
  Al  Al14  1  0.77246438  0.09356378  0.30888405  1
  Al  Al15  1  0.88731439  0.21183774  0.06672856  1
  Al  Al16  1  0.44341694  0.09770143  0.80799102  1
  Al  Al17  1  0.55301758  0.20621968  0.56268760  1
  Al  Al18  1  0.11313218  0.43840278  0.31790640  1
  Al  Al19  1  0.21685462  0.53826850  0.06737723  1
  Al  Al20  1  0.78571355  0.43029353  0.80993811  1
  Al  Al21  1  0.89588825  0.53856422  0.56748402  1
  Al  Al22  1  0.43814787  0.42775872  0.31815080  1
  Al  Al23  1  0.11176626  0.43241633  0.81250915  1
  Al  Al24  1  0.22266968  0.53437444  0.56411950  1
  Al  Al25  1  0.89440003  0.53985834  0.06399244  1
  Al  Al26  1  0.43302716  0.42414753  0.81229730  1
  Al  Al27  1  0.11002688  0.75326574  0.31577426  1
  Al  Al28  1  0.77759550  0.75493278  0.81411646  1
  Al  Al29  1  0.44497818  0.75535185  0.32287447  1
  Al  Al30  1  0.12031778  0.74829779  0.81510013  1
  Al  Al31  1  0.22613336  0.86509962  0.55990164  1
  Al  Al32  1  0.78391697  0.76141791  0.31598037  1
  Al  Al33  1  0.89392823  0.86163676  0.06640782  1
  Al  Al34  1  0.44312241  0.76648495  0.80600842  1
  Al  Al35  1  0.55363162  0.87461284  0.56410580  1
  N  N36  1  0.23291934  0.22180588  0.37416428  1
  N  N37  1  0.09493976  0.10411740  0.12531898  1
  N  N38  1  0.88299804  0.22543123  0.87944633  1
  N  N39  1  0.76575080  0.11449846  0.62524510  1
  N  N40  1  0.55783269  0.20619817  0.37352594  1
  N  N41  1  0.45470388  0.10184944  0.13803959  1
  N  N42  1  0.22865963  0.21452414  0.85955026  1
  N  N43  1  0.11213489  0.09371643  0.59074292  1
  N  N44  1  0.87125245  0.19930500  0.37678769  1
  N  N45  1  0.77612948  0.09536433  0.11081669  1
  N  N46  1  0.53117854  0.21644782  0.88201225  1
  N  N47  1  0.44804482  0.09373122  0.61760489  1
  N  N48  1  0.22230005  0.53989661  0.37638164  1
  N  N49  1  0.10133004  0.44668975  0.12967540  1
  N  N50  1  0.89129161  0.53904852  0.87214007  1
  N  N51  1  0.80289418  0.41720513  0.61938361  1
  N  N52  1  0.53857600  0.54176276  0.37382325  1
  N  N53  1  0.43151801  0.42231346  0.12857486  1
  N  N54  1  0.22147967  0.53687288  0.87663301  1
  N  N55  1  0.11134072  0.43117003  0.62386892  1
  N  N56  1  0.90143280  0.55140402  0.38131812  1
  N  N57  1  0.79238859  0.42621239  0.11654562  1
  N  N58  1  0.55557069  0.53820024  0.83903292  1
  N  N59  1  0.43033374  0.41331850  0.62660926  1
  N  N60  1  0.22872002  0.84964650  0.37106574  1
  N  N61  1  0.10281299  0.74860959  0.12846581  1
  N  N62  1  0.90087080  0.84939501  0.87151098  1
  N  N63  1  0.76800611  0.75198719  0.62660635  1
  N  N64  1  0.55772452  0.87090502  0.37141725  1
  N  N65  1  0.44934056  0.75421606  0.13703380  1
  N  N66  1  0.23134334  0.85374922  0.86583699  1
  N  N67  1  0.13173021  0.74806940  0.62590510  1
  N  N68  1  0.88694548  0.87600382  0.36217991  1
  N  N69  1  0.79584705  0.75034815  0.12740742  1
  N  N70  1  0.55387188  0.87503654  0.86133892  1
  N  N71  1  0.43343874  0.78430466  0.61981614  1
