# generated using pymatgen
data_Sc5Al13N18
_symmetry_space_group_name_H-M   'P 1'
_cell_length_a   9.83015575
_cell_length_b   9.83311055
_cell_length_c   10.15611277
_cell_angle_alpha   89.93707805
_cell_angle_beta   89.91494375
_cell_angle_gamma   59.83516773
_symmetry_Int_Tables_number   1
_chemical_formula_structural   Sc5Al13N18
_chemical_formula_sum   'Sc10 Al26 N36'
_cell_volume   848.76059400
_cell_formula_units_Z   2
loop_
 _symmetry_equiv_pos_site_id
 _symmetry_equiv_pos_as_xyz
  1  'x, y, z'
loop_
 _atom_site_type_symbol
 _atom_site_label
 _atom_site_symmetry_multiplicity
 _atom_site_fract_x
 _atom_site_fract_y
 _atom_site_fract_z
 _atom_site_occupancy
  Sc  Sc0  1  0.11342113  0.09226572  0.40738949  1
  Sc  Sc1  1  0.22176553  0.21398569  0.13992063  1
  Sc  Sc2  1  0.77210604  0.09333138  0.89493054  1
  Sc  Sc3  1  0.11131082  0.09577631  0.87543153  1
  Sc  Sc4  1  0.55199139  0.53489667  0.13764488  1
  Sc  Sc5  1  0.78196763  0.43138340  0.38554607  1
  Sc  Sc6  1  0.55582622  0.53416713  0.64291905  1
  Sc  Sc7  1  0.21542998  0.87041177  0.13974312  1
  Sc  Sc8  1  0.89100842  0.86871748  0.63035623  1
  Sc  Sc9  1  0.56164277  0.87405370  0.14170431  1
  Al  Al10  1  0.88320194  0.21329575  0.65062331  1
  Al  Al11  1  0.44674515  0.09622336  0.40457218  1
  Al  Al12  1  0.55428069  0.20612490  0.15094050  1
  Al  Al13  1  0.22638663  0.21223767  0.64997442  1
  Al  Al14  1  0.77086707  0.09845752  0.39478894  1
  Al  Al15  1  0.88703662  0.20326015  0.14784775  1
  Al  Al16  1  0.44601979  0.10049770  0.89042394  1
  Al  Al17  1  0.54775978  0.20960438  0.64401927  1
  Al  Al18  1  0.11442652  0.43513382  0.40100876  1
  Al  Al19  1  0.21567652  0.53841528  0.14632363  1
  Al  Al20  1  0.78038966  0.43219860  0.90284986  1
  Al  Al21  1  0.89156384  0.53576213  0.65013622  1
  Al  Al22  1  0.43607364  0.42679160  0.39763599  1
  Al  Al23  1  0.11028663  0.43591524  0.89353832  1
  Al  Al24  1  0.22332336  0.53461878  0.64803915  1
  Al  Al25  1  0.89815082  0.54356521  0.14367834  1
  Al  Al26  1  0.43620294  0.42616684  0.89780304  1
  Al  Al27  1  0.12034149  0.75157054  0.39776755  1
  Al  Al28  1  0.78386754  0.75557019  0.89511714  1
  Al  Al29  1  0.44131344  0.76425387  0.40571393  1
  Al  Al30  1  0.11231306  0.74862405  0.89687204  1
  Al  Al31  1  0.22723229  0.86304962  0.65268691  1
  Al  Al32  1  0.77722582  0.75975548  0.39933198  1
  Al  Al33  1  0.89028630  0.86828076  0.15310873  1
  Al  Al34  1  0.44765733  0.75733350  0.89220627  1
  Al  Al35  1  0.55345202  0.87386842  0.64776969  1
  N  N36  1  0.23021060  0.21652448  0.35224606  1
  N  N37  1  0.09381217  0.10489113  0.08695141  1
  N  N38  1  0.87068424  0.22759451  0.83581720  1
  N  N39  1  0.76552880  0.11672720  0.58772273  1
  N  N40  1  0.55240536  0.20575761  0.34104454  1
  N  N41  1  0.45644127  0.10362683  0.07638889  1
  N  N42  1  0.23091646  0.22030915  0.83887941  1
  N  N43  1  0.11219822  0.09246132  0.62233955  1
  N  N44  1  0.88329522  0.19442570  0.33444620  1
  N  N45  1  0.77597072  0.09306091  0.10540340  1
  N  N46  1  0.53862144  0.21729540  0.83014658  1
  N  N47  1  0.44621023  0.09316986  0.59352962  1
  N  N48  1  0.22210890  0.53826345  0.33644573  1
  N  N49  1  0.10353687  0.44603671  0.07963252  1
  N  N50  1  0.88889562  0.53866499  0.84002365  1
  N  N51  1  0.79782217  0.42042438  0.59186782  1
  N  N52  1  0.53661596  0.54711148  0.35488977  1
  N  N53  1  0.43020097  0.41762383  0.08676602  1
  N  N54  1  0.22271989  0.53767814  0.83625769  1
  N  N55  1  0.10909684  0.43196292  0.59190626  1
  N  N56  1  0.90375252  0.55109956  0.33226303  1
  N  N57  1  0.79740351  0.42257415  0.09673348  1
  N  N58  1  0.55751741  0.53403347  0.85906096  1
  N  N59  1  0.43133079  0.41836120  0.58433185  1
  N  N60  1  0.22956978  0.85747782  0.34839202  1
  N  N61  1  0.10001797  0.75034878  0.08679366  1
  N  N62  1  0.89924878  0.85298752  0.83777011  1
  N  N63  1  0.76780607  0.74820645  0.58700168  1
  N  N64  1  0.55391243  0.87374534  0.35306045  1
  N  N65  1  0.44451540  0.76407227  0.07614927  1
  N  N66  1  0.23151419  0.84597898  0.84123755  1
  N  N67  1  0.13436681  0.74645479  0.58524297  1
  N  N68  1  0.88921942  0.87150818  0.35212196  1
  N  N69  1  0.79582754  0.75465591  0.08415636  1
  N  N70  1  0.55744978  0.87304058  0.84054195  1
  N  N71  1  0.43653224  0.77823001  0.59414924  1
