# generated using pymatgen
data_Sc5Al13N18
_symmetry_space_group_name_H-M   'P 1'
_cell_length_a   10.12436732
_cell_length_b   10.12881134
_cell_length_c   9.35037351
_cell_angle_alpha   89.93932435
_cell_angle_beta   89.95973517
_cell_angle_gamma   59.73043669
_symmetry_Int_Tables_number   1
_chemical_formula_structural   Sc5Al13N18
_chemical_formula_sum   'Sc10 Al26 N36'
_cell_volume   828.13210383
_cell_formula_units_Z   2
loop_
 _symmetry_equiv_pos_site_id
 _symmetry_equiv_pos_as_xyz
  1  'x, y, z'
loop_
 _atom_site_type_symbol
 _atom_site_label
 _atom_site_symmetry_multiplicity
 _atom_site_fract_x
 _atom_site_fract_y
 _atom_site_fract_z
 _atom_site_occupancy
  Sc  Sc0  1  0.11403019  0.09175353  0.36581893  1
  Sc  Sc1  1  0.22387146  0.21722407  0.11175838  1
  Sc  Sc2  1  0.77260795  0.09464574  0.86097586  1
  Sc  Sc3  1  0.11046751  0.09797771  0.85437826  1
  Sc  Sc4  1  0.55248432  0.53388312  0.10791732  1
  Sc  Sc5  1  0.78330539  0.43166453  0.35557817  1
  Sc  Sc6  1  0.55524023  0.53289067  0.61164473  1
  Sc  Sc7  1  0.21857494  0.86551599  0.10713673  1
  Sc  Sc8  1  0.89237334  0.86619868  0.60247909  1
  Sc  Sc9  1  0.56086859  0.87354572  0.10935618  1
  Al  Al10  1  0.88460695  0.21356928  0.62311391  1
  Al  Al11  1  0.44760651  0.09510051  0.38179582  1
  Al  Al12  1  0.55548454  0.20571698  0.12977671  1
  Al  Al13  1  0.22587852  0.21129327  0.62035425  1
  Al  Al14  1  0.77017704  0.09772365  0.37270658  1
  Al  Al15  1  0.88547771  0.20308476  0.12456445  1
  Al  Al16  1  0.44625847  0.10130243  0.86681486  1
  Al  Al17  1  0.54679846  0.21025306  0.62104284  1
  Al  Al18  1  0.11428705  0.43594033  0.38367392  1
  Al  Al19  1  0.21510631  0.53748137  0.12610042  1
  Al  Al20  1  0.78143113  0.43299654  0.87805797  1
  Al  Al21  1  0.88937766  0.53748687  0.62750081  1
  Al  Al22  1  0.43549857  0.42647217  0.37339754  1
  Al  Al23  1  0.10981168  0.43685515  0.86629423  1
  Al  Al24  1  0.22407166  0.53599114  0.62644037  1
  Al  Al25  1  0.90015590  0.54349995  0.12244800  1
  Al  Al26  1  0.43502603  0.42529885  0.87642204  1
  Al  Al27  1  0.12162983  0.75037341  0.37247325  1
  Al  Al28  1  0.78536060  0.75549286  0.87307777  1
  Al  Al29  1  0.44132397  0.76448428  0.38352152  1
  Al  Al30  1  0.11019439  0.74860619  0.87578168  1
  Al  Al31  1  0.22374132  0.86563147  0.62695450  1
  Al  Al32  1  0.77620582  0.75902732  0.37496973  1
  Al  Al33  1  0.88957190  0.86865997  0.13054410  1
  Al  Al34  1  0.44703370  0.75719100  0.86249556  1
  Al  Al35  1  0.55466551  0.87384589  0.62607691  1
  N  N36  1  0.23124852  0.21920517  0.34776543  1
  N  N37  1  0.09715516  0.10403365  0.09365694  1
  N  N38  1  0.87527573  0.22692609  0.83044043  1
  N  N39  1  0.76622642  0.11377888  0.58653179  1
  N  N40  1  0.55346137  0.20447190  0.33527820  1
  N  N41  1  0.45676477  0.10424072  0.07114441  1
  N  N42  1  0.23001070  0.21855745  0.83248095  1
  N  N43  1  0.11171392  0.09272481  0.60260366  1
  N  N44  1  0.87865175  0.19614471  0.33120573  1
  N  N45  1  0.77596462  0.09303492  0.09336910  1
  N  N46  1  0.53734689  0.21815788  0.82348910  1
  N  N47  1  0.44744256  0.09210130  0.58705143  1
  N  N48  1  0.22154681  0.53706017  0.32992866  1
  N  N49  1  0.10328449  0.44748828  0.06914524  1
  N  N50  1  0.88779780  0.54027932  0.83205636  1
  N  N51  1  0.79623943  0.42243241  0.58314352  1
  N  N52  1  0.53780235  0.54644970  0.34953268  1
  N  N53  1  0.42976329  0.41797886  0.08256259  1
  N  N54  1  0.22294921  0.53873268  0.82869263  1
  N  N55  1  0.10835631  0.43393990  0.58907383  1
  N  N56  1  0.90566463  0.54974855  0.32725099  1
  N  N57  1  0.79772664  0.42330682  0.09189813  1
  N  N58  1  0.55760861  0.53196160  0.84801624  1
  N  N59  1  0.43092154  0.41803433  0.57630799  1
  N  N60  1  0.23154736  0.85402676  0.33831635  1
  N  N61  1  0.09958363  0.74899719  0.08316918  1
  N  N62  1  0.89910223  0.85266226  0.82976734  1
  N  N63  1  0.76720691  0.74951400  0.57940568  1
  N  N64  1  0.55272595  0.87324233  0.34231002  1
  N  N65  1  0.44666696  0.76048559  0.06645885  1
  N  N66  1  0.22589255  0.85094892  0.83752576  1
  N  N67  1  0.13356900  0.74653550  0.57665582  1
  N  N68  1  0.88770546  0.87193638  0.34396316  1
  N  N69  1  0.79628062  0.75407983  0.07944660  1
  N  N70  1  0.55911360  0.87347403  0.83556064  1
  N  N71  1  0.43642800  0.77839845  0.59347695  1
