# generated using pymatgen
data_Sc5Al13N18
_symmetry_space_group_name_H-M   'P 1'
_cell_length_a   9.83289338
_cell_length_b   9.83616686
_cell_length_c   10.15015457
_cell_angle_alpha   89.98322112
_cell_angle_beta   90.01247608
_cell_angle_gamma   59.80095359
_symmetry_Int_Tables_number   1
_chemical_formula_structural   Sc5Al13N18
_chemical_formula_sum   'Sc10 Al26 N36'
_cell_volume   848.46879420
_cell_formula_units_Z   2
loop_
 _symmetry_equiv_pos_site_id
 _symmetry_equiv_pos_as_xyz
  1  'x, y, z'
loop_
 _atom_site_type_symbol
 _atom_site_label
 _atom_site_symmetry_multiplicity
 _atom_site_fract_x
 _atom_site_fract_y
 _atom_site_fract_z
 _atom_site_occupancy
  Sc  Sc0  1  0.11155464  0.09440368  0.34125518  1
  Sc  Sc1  1  0.22197035  0.21365413  0.07593619  1
  Sc  Sc2  1  0.77093194  0.09889952  0.83872267  1
  Sc  Sc3  1  0.11305847  0.09404735  0.81024881  1
  Sc  Sc4  1  0.55661437  0.53142857  0.06217393  1
  Sc  Sc5  1  0.77700265  0.43448833  0.32903962  1
  Sc  Sc6  1  0.55188719  0.53666680  0.59046098  1
  Sc  Sc7  1  0.21787074  0.86808673  0.07923484  1
  Sc  Sc8  1  0.88856483  0.87285861  0.57650651  1
  Sc  Sc9  1  0.56094992  0.87228825  0.07738071  1
  Al  Al10  1  0.88370609  0.20640606  0.56611561  1
  Al  Al11  1  0.44992779  0.09834522  0.32699300  1
  Al  Al12  1  0.54823019  0.21007162  0.07434605  1
  Al  Al13  1  0.22686895  0.21311358  0.56705130  1
  Al  Al14  1  0.77248277  0.09351800  0.31302804  1
  Al  Al15  1  0.88734956  0.21190547  0.07093633  1
  Al  Al16  1  0.44340596  0.09771980  0.81217154  1
  Al  Al17  1  0.55301818  0.20623390  0.56689084  1
  Al  Al18  1  0.11312258  0.43843839  0.32204795  1
  Al  Al19  1  0.21684618  0.53828133  0.07151559  1
  Al  Al20  1  0.78568370  0.43036137  0.81401376  1
  Al  Al21  1  0.89587801  0.53862667  0.57164490  1
  Al  Al22  1  0.43813602  0.42774848  0.32230582  1
  Al  Al23  1  0.11175064  0.43242721  0.81671196  1
  Al  Al24  1  0.22264842  0.53436478  0.56827682  1
  Al  Al25  1  0.89441064  0.53984439  0.06819079  1
  Al  Al26  1  0.43299475  0.42415719  0.81649150  1
  Al  Al27  1  0.10996509  0.75326758  0.31999102  1
  Al  Al28  1  0.77751985  0.75495144  0.81829535  1
  Al  Al29  1  0.44498967  0.75532338  0.32703267  1
  Al  Al30  1  0.12035056  0.74828190  0.81923053  1
  Al  Al31  1  0.22609724  0.86513123  0.56408124  1
  Al  Al32  1  0.78396736  0.76142435  0.32015642  1
  Al  Al33  1  0.89396136  0.86158164  0.07046616  1
  Al  Al34  1  0.44309497  0.76651545  0.81024082  1
  Al  Al35  1  0.55359705  0.87462052  0.56823735  1
  N  N36  1  0.23287822  0.22180728  0.37819044  1
  N  N37  1  0.09500667  0.10406083  0.12929894  1
  N  N38  1  0.88294298  0.22557747  0.88352419  1
  N  N39  1  0.76568808  0.11456581  0.62946679  1
  N  N40  1  0.55784991  0.20620179  0.37762430  1
  N  N41  1  0.45477603  0.10186394  0.14214658  1
  N  N42  1  0.22867829  0.21457347  0.86372747  1
  N  N43  1  0.11211025  0.09372998  0.59496373  1
  N  N44  1  0.87130459  0.19918415  0.38088638  1
  N  N45  1  0.77615763  0.09536710  0.11480164  1
  N  N46  1  0.53115125  0.21646806  0.88607613  1
  N  N47  1  0.44801793  0.09374305  0.62166634  1
  N  N48  1  0.22230305  0.53988102  0.38045981  1
  N  N49  1  0.10134052  0.44672089  0.13372858  1
  N  N50  1  0.89124239  0.53907263  0.87622165  1
  N  N51  1  0.80279941  0.41728704  0.62328959  1
  N  N52  1  0.53854828  0.54174801  0.37787632  1
  N  N53  1  0.43149586  0.42232741  0.13263216  1
  N  N54  1  0.22144227  0.53689680  0.88070297  1
  N  N55  1  0.11131245  0.43118216  0.62797249  1
  N  N56  1  0.90147320  0.55145011  0.38539715  1
  N  N57  1  0.79251018  0.42618594  0.12086035  1
  N  N58  1  0.55556702  0.53822414  0.84317643  1
  N  N59  1  0.43029320  0.41333569  0.63069916  1
  N  N60  1  0.22869956  0.84966124  0.37508321  1
  N  N61  1  0.10275997  0.74859393  0.13256206  1
  N  N62  1  0.90085837  0.84939610  0.87544319  1
  N  N63  1  0.76792711  0.75200954  0.63068967  1
  N  N64  1  0.55772584  0.87089451  0.37544185  1
  N  N65  1  0.44938837  0.75417181  0.14109077  1
  N  N66  1  0.23132158  0.85371039  0.86998472  1
  N  N67  1  0.13175218  0.74805491  0.62994362  1
  N  N68  1  0.88691095  0.87602291  0.36640399  1
  N  N69  1  0.79589522  0.75035519  0.13146311  1
  N  N70  1  0.55382067  0.87507884  0.86550708  1
  N  N71  1  0.43340492  0.78433716  0.62390188  1
