# generated using pymatgen
data_Sc5Al13N18
_symmetry_space_group_name_H-M   'P 1'
_cell_length_a   10.02653453
_cell_length_b   10.02917819
_cell_length_c   9.63480241
_cell_angle_alpha   89.94166574
_cell_angle_beta   89.95923340
_cell_angle_gamma   59.73248413
_symmetry_Int_Tables_number   1
_chemical_formula_structural   Sc5Al13N18
_chemical_formula_sum   'Sc10 Al26 N36'
_cell_volume   836.78208239
_cell_formula_units_Z   2
loop_
 _symmetry_equiv_pos_site_id
 _symmetry_equiv_pos_as_xyz
  1  'x, y, z'
loop_
 _atom_site_type_symbol
 _atom_site_label
 _atom_site_symmetry_multiplicity
 _atom_site_fract_x
 _atom_site_fract_y
 _atom_site_fract_z
 _atom_site_occupancy
  Sc  Sc0  1  0.11442630  0.09140709  0.37315254  1
  Sc  Sc1  1  0.22356663  0.21654142  0.11613131  1
  Sc  Sc2  1  0.77311359  0.09374866  0.86448610  1
  Sc  Sc3  1  0.11037941  0.09809150  0.85740060  1
  Sc  Sc4  1  0.55188506  0.53386130  0.11306760  1
  Sc  Sc5  1  0.78325892  0.43127605  0.35817525  1
  Sc  Sc6  1  0.55595552  0.53311280  0.61502214  1
  Sc  Sc7  1  0.21758709  0.86660562  0.11096090  1
  Sc  Sc8  1  0.89248596  0.86587609  0.60456045  1
  Sc  Sc9  1  0.56136986  0.87351202  0.11385869  1
  Al  Al10  1  0.88462364  0.21445282  0.62785453  1
  Al  Al11  1  0.44727769  0.09524242  0.38425924  1
  Al  Al12  1  0.55613477  0.20531659  0.13187644  1
  Al  Al13  1  0.22589560  0.21165699  0.62680829  1
  Al  Al14  1  0.76960728  0.09866572  0.37865402  1
  Al  Al15  1  0.88561424  0.20189375  0.12811165  1
  Al  Al16  1  0.44619956  0.10154578  0.87123469  1
  Al  Al17  1  0.54610603  0.21024186  0.62489757  1
  Al  Al18  1  0.11453828  0.43568946  0.38467583  1
  Al  Al19  1  0.21496723  0.53808070  0.12850806  1
  Al  Al20  1  0.78109534  0.43308164  0.88374700  1
  Al  Al21  1  0.88968554  0.53659703  0.63014401  1
  Al  Al22  1  0.43562242  0.42612175  0.37716412  1
  Al  Al23  1  0.10959304  0.43713513  0.87152394  1
  Al  Al24  1  0.22390775  0.53539872  0.62928116  1
  Al  Al25  1  0.89991448  0.54435264  0.12568648  1
  Al  Al26  1  0.43525789  0.42567714  0.87911793  1
  Al  Al27  1  0.12268234  0.75044863  0.37663687  1
  Al  Al28  1  0.78579580  0.75537155  0.87582459  1
  Al  Al29  1  0.44087980  0.76496093  0.38586909  1
  Al  Al30  1  0.10985719  0.74845615  0.87832248  1
  Al  Al31  1  0.22495169  0.86500828  0.63282534  1
  Al  Al32  1  0.77523867  0.75937187  0.37892196  1
  Al  Al33  1  0.88933224  0.86931967  0.13507058  1
  Al  Al34  1  0.44777707  0.75627598  0.86845716  1
  Al  Al35  1  0.55389306  0.87399118  0.63030109  1
  N  N36  1  0.23120206  0.21878480  0.34162574  1
  N  N37  1  0.09588619  0.10487079  0.08644993  1
  N  N38  1  0.87393829  0.22843892  0.82583932  1
  N  N39  1  0.76568199  0.11515612  0.58332271  1
  N  N40  1  0.55362097  0.20447930  0.33108882  1
  N  N41  1  0.45714449  0.10437934  0.06704635  1
  N  N42  1  0.23026111  0.21948467  0.82955804  1
  N  N43  1  0.11220593  0.09256353  0.60316127  1
  N  N44  1  0.87953956  0.19438072  0.32604938  1
  N  N45  1  0.77632086  0.09248240  0.08848625  1
  N  N46  1  0.53708990  0.21822802  0.82006160  1
  N  N47  1  0.44683764  0.09228947  0.58298206  1
  N  N48  1  0.22184716  0.53746740  0.32618588  1
  N  N49  1  0.10304699  0.44773209  0.06693326  1
  N  N50  1  0.88790244  0.53956244  0.82872400  1
  N  N51  1  0.79743854  0.42155142  0.57736387  1
  N  N52  1  0.53721479  0.54640674  0.34692703  1
  N  N53  1  0.42945059  0.41766075  0.07793585  1
  N  N54  1  0.22273367  0.53841514  0.82538439  1
  N  N55  1  0.10855505  0.43335586  0.58374680  1
  N  N56  1  0.90536430  0.55095033  0.32310380  1
  N  N57  1  0.79786759  0.42301253  0.08994091  1
  N  N58  1  0.55799424  0.53225494  0.84600072  1
  N  N59  1  0.43077626  0.41771016  0.57316658  1
  N  N60  1  0.23136901  0.85437694  0.33297800  1
  N  N61  1  0.09846327  0.74951724  0.07812966  1
  N  N62  1  0.89959043  0.85165575  0.82379069  1
  N  N63  1  0.76616944  0.74892271  0.57614534  1
  N  N64  1  0.55279349  0.87345899  0.33802607  1
  N  N65  1  0.44666793  0.76067681  0.06362592  1
  N  N66  1  0.22738125  0.84960367  0.83484930  1
  N  N67  1  0.13541075  0.74620013  0.57368665  1
  N  N68  1  0.88772463  0.87218174  0.34325883  1
  N  N69  1  0.79700863  0.75455024  0.07472430  1
  N  N70  1  0.55842981  0.87342161  0.83275450  1
  N  N71  1  0.43594341  0.77920085  0.58733283  1
