# generated using pymatgen
data_Sc5Al13N18
_symmetry_space_group_name_H-M   'P 1'
_cell_length_a   9.91825025
_cell_length_b   9.92246143
_cell_length_c   9.93148047
_cell_angle_alpha   89.98065040
_cell_angle_beta   89.98167649
_cell_angle_gamma   59.75720905
_symmetry_Int_Tables_number   1
_chemical_formula_structural   Sc5Al13N18
_chemical_formula_sum   'Sc10 Al26 N36'
_cell_volume   844.36720306
_cell_formula_units_Z   2
loop_
 _symmetry_equiv_pos_site_id
 _symmetry_equiv_pos_as_xyz
  1  'x, y, z'
loop_
 _atom_site_type_symbol
 _atom_site_label
 _atom_site_symmetry_multiplicity
 _atom_site_fract_x
 _atom_site_fract_y
 _atom_site_fract_z
 _atom_site_occupancy
  Sc  Sc0  1  0.11092717  0.09408795  0.34549012  1
  Sc  Sc1  1  0.22342362  0.21387688  0.08498095  1
  Sc  Sc2  1  0.77069253  0.10005922  0.84764784  1
  Sc  Sc3  1  0.11383957  0.09412352  0.82215733  1
  Sc  Sc4  1  0.55901172  0.53002044  0.07248731  1
  Sc  Sc5  1  0.77902192  0.43325889  0.34049204  1
  Sc  Sc6  1  0.54956439  0.53748240  0.59537996  1
  Sc  Sc7  1  0.21841801  0.86574157  0.08723772  1
  Sc  Sc8  1  0.88780012  0.87342140  0.58704946  1
  Sc  Sc9  1  0.56122648  0.87258396  0.08594787  1
  Al  Al10  1  0.88380188  0.20503749  0.57278259  1
  Al  Al11  1  0.45041508  0.09873435  0.33302661  1
  Al  Al12  1  0.54745274  0.21075587  0.07850320  1
  Al  Al13  1  0.22599490  0.21311863  0.57237793  1
  Al  Al14  1  0.77292365  0.09246839  0.31740951  1
  Al  Al15  1  0.88733281  0.21371122  0.07618990  1
  Al  Al16  1  0.44327756  0.09777185  0.81710816  1
  Al  Al17  1  0.55340373  0.20644900  0.57239618  1
  Al  Al18  1  0.11270801  0.43940075  0.32624298  1
  Al  Al19  1  0.21630050  0.53861196  0.07540040  1
  Al  Al20  1  0.78469261  0.43180914  0.81719454  1
  Al  Al21  1  0.89600620  0.53977050  0.57659763  1
  Al  Al22  1  0.43767671  0.42720783  0.32642460  1
  Al  Al23  1  0.11190166  0.43212795  0.82224611  1
  Al  Al24  1  0.22274137  0.53379033  0.57309215  1
  Al  Al25  1  0.89461697  0.53951002  0.07320888  1
  Al  Al26  1  0.43270480  0.42419872  0.82235598  1
  Al  Al27  1  0.10872948  0.75306866  0.32625788  1
  Al  Al28  1  0.77608000  0.75504343  0.82359900  1
  Al  Al29  1  0.44519324  0.75507391  0.33172345  1
  Al  Al30  1  0.12144755  0.74761346  0.82311431  1
  Al  Al31  1  0.22557344  0.86573116  0.56955510  1
  Al  Al32  1  0.78544737  0.76132106  0.32515048  1
  Al  Al33  1  0.89480121  0.86016632  0.07298040  1
  Al  Al34  1  0.44295677  0.76661579  0.81680026  1
  Al  Al35  1  0.55342906  0.87435635  0.57223749  1
  N  N36  1  0.23170251  0.22160757  0.37815072  1
  N  N37  1  0.09605718  0.10294678  0.12698426  1
  N  N38  1  0.88114876  0.22831322  0.88447617  1
  N  N39  1  0.76465243  0.11539399  0.63380400  1
  N  N40  1  0.55831031  0.20640007  0.37972913  1
  N  N41  1  0.45621525  0.10219780  0.14467696  1
  N  N42  1  0.22956877  0.21538055  0.86783389  1
  N  N43  1  0.11187248  0.09368093  0.60074378  1
  N  N44  1  0.87275487  0.19659764  0.38278230  1
  N  N45  1  0.77642853  0.09544838  0.11472865  1
  N  N46  1  0.53091810  0.21639777  0.88713574  1
  N  N47  1  0.44764483  0.09374676  0.62253041  1
  N  N48  1  0.22264601  0.53924310  0.38232830  1
  N  N49  1  0.10119855  0.44761618  0.13469993  1
  N  N50  1  0.89069941  0.53912958  0.87762541  1
  N  N51  1  0.80068074  0.41894053  0.62089583  1
  N  N52  1  0.53851429  0.54104792  0.37721786  1
  N  N53  1  0.43036231  0.42236606  0.13348297  1
  N  N54  1  0.22083748  0.53716026  0.88201977  1
  N  N55  1  0.11120502  0.43097624  0.63016970  1
  N  N56  1  0.90250645  0.55234998  0.38723619  1
  N  N57  1  0.79516503  0.42568153  0.12735411  1
  N  N58  1  0.55576077  0.53861962  0.84776331  1
  N  N59  1  0.43011744  0.41363851  0.63272966  1
  N  N60  1  0.22824686  0.85020009  0.37514596  1
  N  N61  1  0.10157833  0.74799162  0.13480813  1
  N  N62  1  0.90091947  0.84931396  0.87351922  1
  N  N63  1  0.76652851  0.75224376  0.63254018  1
  N  N64  1  0.55822563  0.87051443  0.37571815  1
  N  N65  1  0.44965995  0.75436326  0.14212156  1
  N  N66  1  0.23133522  0.85229711  0.87312967  1
  N  N67  1  0.13253199  0.74739491  0.63049187  1
  N  N68  1  0.88635748  0.87632289  0.37148596  1
  N  N69  1  0.79698783  0.75025989  0.13237980  1
  N  N70  1  0.55303975  0.87576437  0.86934600  1
  N  N71  1  0.43344613  0.78409106  0.62535442  1
