# generated using pymatgen
data_Sc5Al13N18
_symmetry_space_group_name_H-M   'P 1'
_cell_length_a   9.83046166
_cell_length_b   9.83356454
_cell_length_c   10.15590738
_cell_angle_alpha   89.98273921
_cell_angle_beta   90.01553380
_cell_angle_gamma   59.80649167
_symmetry_Int_Tables_number   1
_chemical_formula_structural   Sc5Al13N18
_chemical_formula_sum   'Sc10 Al26 N36'
_cell_volume   848.56288427
_cell_formula_units_Z   2
loop_
 _symmetry_equiv_pos_site_id
 _symmetry_equiv_pos_as_xyz
  1  'x, y, z'
loop_
 _atom_site_type_symbol
 _atom_site_label
 _atom_site_symmetry_multiplicity
 _atom_site_fract_x
 _atom_site_fract_y
 _atom_site_fract_z
 _atom_site_occupancy
  Sc  Sc0  1  0.11158178  0.09438995  0.32140674  1
  Sc  Sc1  1  0.22193114  0.21362531  0.05594519  1
  Sc  Sc2  1  0.77095048  0.09880768  0.81870100  1
  Sc  Sc3  1  0.11304739  0.09399911  0.79018608  1
  Sc  Sc4  1  0.55651131  0.53147342  0.04217346  1
  Sc  Sc5  1  0.77695880  0.43450005  0.30893256  1
  Sc  Sc6  1  0.55201690  0.53659272  0.57057535  1
  Sc  Sc7  1  0.21786320  0.86814639  0.05928433  1
  Sc  Sc8  1  0.88863805  0.87278832  0.55645950  1
  Sc  Sc9  1  0.56096293  0.87225442  0.05741039  1
  Al  Al10  1  0.88373702  0.20641711  0.54619242  1
  Al  Al11  1  0.44992912  0.09830008  0.30709949  1
  Al  Al12  1  0.54826765  0.21001209  0.05450382  1
  Al  Al13  1  0.22692848  0.21307041  0.54717901  1
  Al  Al14  1  0.77248655  0.09352484  0.29318477  1
  Al  Al15  1  0.88734015  0.21181633  0.05104243  1
  Al  Al16  1  0.44343721  0.09767069  0.79229808  1
  Al  Al17  1  0.55303982  0.20619166  0.54699668  1
  Al  Al18  1  0.11315080  0.43837598  0.30220529  1
  Al  Al19  1  0.21687482  0.53823925  0.05167875  1
  Al  Al20  1  0.78573768  0.43026648  0.79422809  1
  Al  Al21  1  0.89591016  0.53854239  0.55178537  1
  Al  Al22  1  0.43816523  0.42772935  0.30245683  1
  Al  Al23  1  0.11178508  0.43238584  0.79681704  1
  Al  Al24  1  0.22268837  0.53434513  0.54842152  1
  Al  Al25  1  0.89442136  0.53982375  0.04830351  1
  Al  Al26  1  0.43304152  0.42411558  0.79660223  1
  Al  Al27  1  0.11003603  0.75323638  0.30008634  1
  Al  Al28  1  0.77760896  0.75490164  0.79842324  1
  Al  Al29  1  0.44500366  0.75531434  0.30718068  1
  Al  Al30  1  0.12035205  0.74826237  0.79940323  1
  Al  Al31  1  0.22615313  0.86507291  0.54420252  1
  Al  Al32  1  0.78394821  0.76138720  0.30028832  1
  Al  Al33  1  0.89395749  0.86159508  0.05069389  1
  Al  Al34  1  0.44314153  0.76646122  0.79032548  1
  Al  Al35  1  0.55364938  0.87458533  0.54840458  1
  N  N36  1  0.23293681  0.22177877  0.35845130  1
  N  N37  1  0.09496610  0.10408083  0.10960293  1
  N  N38  1  0.88301723  0.22541826  0.86373894  1
  N  N39  1  0.76575942  0.11447939  0.60956227  1
  N  N40  1  0.55785700  0.20616898  0.35781828  1
  N  N41  1  0.45472652  0.10182086  0.12233412  1
  N  N42  1  0.22868301  0.21449693  0.84384789  1
  N  N43  1  0.11215034  0.09368587  0.57504963  1
  N  N44  1  0.87127643  0.19926135  0.36108118  1
  N  N45  1  0.77615088  0.09533026  0.09509250  1
  N  N46  1  0.53119253  0.21642368  0.86630343  1
  N  N47  1  0.44806327  0.09370110  0.60189443  1
  N  N48  1  0.22232007  0.53986703  0.36067122  1
  N  N49  1  0.10135094  0.44666040  0.11396101  1
  N  N50  1  0.89130944  0.53902021  0.85643236  1
  N  N51  1  0.80290520  0.41718338  0.60364999  1
  N  N52  1  0.53858894  0.54173442  0.35812343  1
  N  N53  1  0.43153432  0.42228438  0.11286541  1
  N  N54  1  0.22149902  0.53684370  0.86092345  1
  N  N55  1  0.11135688  0.43114300  0.60816243  1
  N  N56  1  0.90146033  0.55137866  0.36560648  1
  N  N57  1  0.79242089  0.42617638  0.10087129  1
  N  N58  1  0.55559593  0.53817147  0.82332459  1
  N  N59  1  0.43034740  0.41328917  0.61089875  1
  N  N60  1  0.22874029  0.84962145  0.35534124  1
  N  N61  1  0.10282541  0.74857492  0.11275917  1
  N  N62  1  0.90089747  0.84936404  0.85577736  1
  N  N63  1  0.76801642  0.75195755  0.61089715  1
  N  N64  1  0.55774873  0.87087391  0.35569949  1
  N  N65  1  0.44937674  0.75416759  0.12132456  1
  N  N66  1  0.23137141  0.85370958  0.85015098  1
  N  N67  1  0.13175929  0.74803610  0.61019234  1
  N  N68  1  0.88696432  0.87597745  0.34649809  1
  N  N69  1  0.79587763  0.75031508  0.11169637  1
  N  N70  1  0.55389356  0.87501134  0.84564753  1
  N  N71  1  0.43345193  0.78428445  0.60411094  1
