# generated using pymatgen
data_Sc5Al13N18
_symmetry_space_group_name_H-M   'P 1'
_cell_length_a   10.17015669
_cell_length_b   10.17564599
_cell_length_c   9.21445297
_cell_angle_alpha   89.93831036
_cell_angle_beta   89.95687989
_cell_angle_gamma   59.73281406
_symmetry_Int_Tables_number   1
_chemical_formula_structural   Sc5Al13N18
_chemical_formula_sum   'Sc10 Al26 N36'
_cell_volume   823.59553150
_cell_formula_units_Z   2
loop_
 _symmetry_equiv_pos_site_id
 _symmetry_equiv_pos_as_xyz
  1  'x, y, z'
loop_
 _atom_site_type_symbol
 _atom_site_label
 _atom_site_symmetry_multiplicity
 _atom_site_fract_x
 _atom_site_fract_y
 _atom_site_fract_z
 _atom_site_occupancy
  Sc  Sc0  1  0.11373742  0.09200650  0.36335762  1
  Sc  Sc1  1  0.22386305  0.21741153  0.10970033  1
  Sc  Sc2  1  0.77220855  0.09523622  0.85990680  1
  Sc  Sc3  1  0.11063517  0.09771026  0.85282502  1
  Sc  Sc4  1  0.55290455  0.53383136  0.10588581  1
  Sc  Sc5  1  0.78337718  0.43179227  0.35488476  1
  Sc  Sc6  1  0.55471827  0.53297068  0.61045083  1
  Sc  Sc7  1  0.21894740  0.86518802  0.10584730  1
  Sc  Sc8  1  0.89215734  0.86668619  0.60190181  1
  Sc  Sc9  1  0.56064189  0.87354213  0.10773507  1
  Al  Al10  1  0.88454597  0.21283977  0.62037480  1
  Al  Al11  1  0.44772426  0.09522069  0.38025477  1
  Al  Al12  1  0.55488769  0.20612566  0.12847730  1
  Al  Al13  1  0.22596358  0.21120004  0.61687054  1
  Al  Al14  1  0.77069136  0.09709902  0.36835970  1
  Al  Al15  1  0.88557837  0.20402358  0.12211102  1
  Al  Al16  1  0.44625148  0.10097427  0.86414973  1
  Al  Al17  1  0.54736737  0.21012135  0.61869366  1
  Al  Al18  1  0.11412365  0.43606120  0.38284463  1
  Al  Al19  1  0.21529287  0.53715751  0.12459190  1
  Al  Al20  1  0.78148974  0.43295306  0.87408065  1
  Al  Al21  1  0.88947272  0.53794561  0.62595043  1
  Al  Al22  1  0.43548003  0.42664950  0.37136403  1
  Al  Al23  1  0.11000741  0.43657894  0.86350248  1
  Al  Al24  1  0.22408743  0.53625292  0.62470658  1
  Al  Al25  1  0.90004587  0.54293350  0.12030686  1
  Al  Al26  1  0.43496570  0.42520170  0.87467136  1
  Al  Al27  1  0.12065428  0.75043770  0.37010389  1
  Al  Al28  1  0.78476468  0.75560150  0.87122853  1
  Al  Al29  1  0.44164094  0.76404414  0.38190425  1
  Al  Al30  1  0.11072540  0.74870417  0.87402295  1
  Al  Al31  1  0.22335713  0.86576165  0.62312375  1
  Al  Al32  1  0.77708529  0.75886829  0.37266523  1
  Al  Al33  1  0.88985560  0.86806730  0.12716867  1
  Al  Al34  1  0.44657215  0.75785238  0.85958197  1
  Al  Al35  1  0.55493681  0.87377188  0.62292359  1
  N  N36  1  0.23111548  0.21931201  0.35126673  1
  N  N37  1  0.09772246  0.10358498  0.09625644  1
  N  N38  1  0.87586630  0.22595962  0.83328837  1
  N  N39  1  0.76652275  0.11306216  0.58785855  1
  N  N40  1  0.55331724  0.20462921  0.33760707  1
  N  N41  1  0.45643912  0.10404499  0.07371482  1
  N  N42  1  0.22993071  0.21806903  0.83380225  1
  N  N43  1  0.11139315  0.09286879  0.60244733  1
  N  N44  1  0.87853457  0.19707755  0.33410903  1
  N  N45  1  0.77569173  0.09352970  0.09685960  1
  N  N46  1  0.53754790  0.21798400  0.82549116  1
  N  N47  1  0.44768309  0.09214722  0.58919431  1
  N  N48  1  0.22143916  0.53686848  0.33205374  1
  N  N49  1  0.10345850  0.44719080  0.07065066  1
  N  N50  1  0.88789075  0.54063490  0.83397827  1
  N  N51  1  0.79564329  0.42279928  0.58708414  1
  N  N52  1  0.53818503  0.54638698  0.35049857  1
  N  N53  1  0.42998433  0.41821994  0.08498969  1
  N  N54  1  0.22303068  0.53882484  0.83052925  1
  N  N55  1  0.10832848  0.43415200  0.59184501  1
  N  N56  1  0.90567478  0.54906129  0.32959371  1
  N  N57  1  0.79752264  0.42354773  0.09250905  1
  N  N58  1  0.55722854  0.53204185  0.84876415  1
  N  N59  1  0.43108550  0.41825498  0.57818366  1
  N  N60  1  0.23141207  0.85405945  0.34192649  1
  N  N61  1  0.10046676  0.74870029  0.08593999  1
  N  N62  1  0.89877083  0.85335561  0.83385304  1
  N  N63  1  0.76797599  0.74985880  0.58135877  1
  N  N64  1  0.55284217  0.87311774  0.34535740  1
  N  N65  1  0.44658204  0.76048431  0.06859862  1
  N  N66  1  0.22542990  0.85148760  0.83843125  1
  N  N67  1  0.13235351  0.74676255  0.57847995  1
  N  N68  1  0.88785107  0.87171300  0.34389826  1
  N  N69  1  0.79568145  0.75377800  0.08209193  1
  N  N70  1  0.55927305  0.87349547  0.83655798  1
  N  N71  1  0.43671776  0.77788170  0.59625736  1
