
#======================================================================
# CRYSTAL DATA
#----------------------------------------------------------------------
data_VESTA_phase_1

_chemical_name_common                  'As   O    Li                          '
_cell_length_a                         5.177715
_cell_length_b                         5.522195
_cell_length_c                         6.377437
_cell_angle_alpha                      89.998840
_cell_angle_beta                       90.000282
_cell_angle_gamma                      90.421242
_cell_volume                           182.340974
_space_group_name_H-M_alt              'P 1'
_space_group_IT_number                 1

loop_
_space_group_symop_operation_xyz
   'x, y, z'

loop_
   _atom_site_label
   _atom_site_occupancy
   _atom_site_fract_x
   _atom_site_fract_y
   _atom_site_fract_z
   _atom_site_adp_type
   _atom_site_U_iso_or_equiv
   _atom_site_type_symbol
   As1        1.0     0.131237     0.174231     0.995852    Uiso  ? As
   As2        1.0     0.499683     0.825770     0.495844    Uiso  ? As
   O1         1.0     0.018617     0.879271     0.995834    Uiso  ? O
   O2         1.0     0.465875     0.173825     0.995842    Uiso  ? O
   O3         1.0     0.020646     0.321136     0.774686    Uiso  ? O
   O4         1.0     0.020669     0.321139     0.217013    Uiso  ? O
   O5         1.0     0.610193     0.678850     0.717039    Uiso  ? O
   O6         1.0     0.610211     0.678863     0.274667    Uiso  ? O
   O7         1.0     0.165025     0.826162     0.495841    Uiso  ? O
   O8         1.0     0.612224     0.120758     0.495832    Uiso  ? O
   Li1        1.0     0.006741     0.675185     0.744503    Uiso  ? Li
   Li2        1.0     0.006782     0.675210     0.247110    Uiso  ? Li
   Li3        1.0     0.621430     0.847187     0.995828    Uiso  ? Li
   Li4        1.0     0.009904     0.152859     0.495833    Uiso  ? Li
   Li5        1.0     0.624486     0.324749     0.747126    Uiso  ? Li
   Li6        1.0     0.624499     0.324804     0.244483    Uiso  ? Li
