
#======================================================================
# CRYSTAL DATA
#----------------------------------------------------------------------
data_VESTA_phase_1

_chemical_name_common                  'Mg   P    N                           '
_cell_length_a                         4.713711
_cell_length_b                         5.705346
_cell_length_c                         9.808851
_cell_angle_alpha                      90.000038
_cell_angle_beta                       90.000160
_cell_angle_gamma                      90.002213
_cell_volume                           263.792911
_space_group_name_H-M_alt              'P 1'
_space_group_IT_number                 1

loop_
_space_group_symop_operation_xyz
   'x, y, z'

loop_
   _atom_site_label
   _atom_site_occupancy
   _atom_site_fract_x
   _atom_site_fract_y
   _atom_site_fract_z
   _atom_site_adp_type
   _atom_site_U_iso_or_equiv
   _atom_site_type_symbol
   Mg1        1.0     0.052349     0.349628     0.163106    Uiso  ? Mg
   Mg2        1.0     0.052349     0.349629     0.836893    Uiso  ? Mg
   Mg3        1.0     0.552385     0.681204     0.163096    Uiso  ? Mg
   Mg4        1.0     0.552385     0.681204     0.836903    Uiso  ? Mg
   Mg5        1.0     0.090787     0.849568     0.663097    Uiso  ? Mg
   Mg6        1.0     0.090787     0.849568     0.336902    Uiso  ? Mg
   Mg7        1.0     0.590798     0.181136     0.663106    Uiso  ? Mg
   Mg8        1.0     0.590797     0.181137     0.336894    Uiso  ? Mg
   P1         1.0     0.022326     0.853214     0.999998    Uiso  ? P
   P2         1.0     0.522333     0.177660     0.999997    Uiso  ? P
   P3         1.0     0.120810     0.353116     0.500002    Uiso  ? P
   P4         1.0     0.620818     0.677553     0.500002    Uiso  ? P
   N1         1.0     0.166808     0.124710     0.999999    Uiso  ? N
   N2         1.0     0.666804     0.906160     0.999999    Uiso  ? N
   N3         1.0     0.091942     0.711555     0.859473    Uiso  ? N
   N4         1.0     0.091942     0.711554     0.140527    Uiso  ? N
   N5         1.0     0.591970     0.319290     0.859469    Uiso  ? N
   N6         1.0     0.591971     0.319291     0.140532    Uiso  ? N
   N7         1.0     0.051169     0.211479     0.359468    Uiso  ? N
   N8         1.0     0.051170     0.211481     0.640530    Uiso  ? N
   N9         1.0     0.551189     0.819212     0.359473    Uiso  ? N
   N10        1.0     0.551190     0.819211     0.640525    Uiso  ? N
   N11        1.0     0.976340     0.624615     0.500000    Uiso  ? N
   N12        1.0     0.476336     0.406058     0.500000    Uiso  ? N
