
#======================================================================
# CRYSTAL DATA
#----------------------------------------------------------------------
data_VESTA_phase_1

_chemical_name_common                  'Si   O    Li                          '
_cell_length_a                         5.261619
_cell_length_b                         5.267066
_cell_length_c                         5.399744
_cell_angle_alpha                      119.190254
_cell_angle_beta                       88.490364
_cell_angle_gamma                      93.097603
_cell_volume                           130.449703
_space_group_name_H-M_alt              'P 1'
_space_group_IT_number                 1

loop_
_space_group_symop_operation_xyz
   'x, y, z'

loop_
   _atom_site_label
   _atom_site_occupancy
   _atom_site_fract_x
   _atom_site_fract_y
   _atom_site_fract_z
   _atom_site_adp_type
   _atom_site_U_iso_or_equiv
   _atom_site_type_symbol
   Si1        1.0     0.987698     0.219668     0.000003    Uiso  ? Si
   Si2        1.0     0.632862     0.880317     0.000005    Uiso  ? Si
   O1         1.0     0.963552     0.889448     0.000019    Uiso  ? O
   O2         1.0     0.656990     0.210556     0.000018    Uiso  ? O
   O3         1.0     0.106512     0.192568     0.711858    Uiso  ? O
   O4         1.0     0.106521     0.480746     0.288196    Uiso  ? O
   O5         1.0     0.514057     0.619287     0.711847    Uiso  ? O
   O6         1.0     0.514054     0.907459     0.288200    Uiso  ? O
   Li1        1.0     0.130982     0.873915     0.329511    Uiso  ? Li
   Li2        1.0     0.130980     0.544424     0.670523    Uiso  ? Li
   Li3        1.0     0.489824     0.226170     0.670608    Uiso  ? Li
   Li4        1.0     0.489821     0.555585     0.329430    Uiso  ? Li
