
#======================================================================
# CRYSTAL DATA
#----------------------------------------------------------------------
data_VESTA_phase_1

_chemical_name_common                  'S    Al   Li                          '
_cell_length_a                         6.541299
_cell_length_b                         6.597832
_cell_length_c                         7.852262
_cell_angle_alpha                      89.997360
_cell_angle_beta                       89.996582
_cell_angle_gamma                      88.349434
_cell_volume                           338.750392
_space_group_name_H-M_alt              'P 1'
_space_group_IT_number                 1

loop_
_space_group_symop_operation_xyz
   'x, y, z'

loop_
   _atom_site_label
   _atom_site_occupancy
   _atom_site_fract_x
   _atom_site_fract_y
   _atom_site_fract_z
   _atom_site_adp_type
   _atom_site_U_iso_or_equiv
   _atom_site_type_symbol
   S1         1.0     0.870511     0.069529     0.865316    Uiso  ? S
   S2         1.0     0.950532     0.603081     0.132835    Uiso  ? S
   S3         1.0     0.950469     0.103056     0.342176    Uiso  ? S
   S4         1.0     0.468235     0.938812     0.109566    Uiso  ? S
   S5         1.0     0.870482     0.569508     0.609646    Uiso  ? S
   S6         1.0     0.388228     0.405328     0.842224    Uiso  ? S
   S7         1.0     0.388291     0.905357     0.632733    Uiso  ? S
   S8         1.0     0.468220     0.438818     0.365423    Uiso  ? S
   Al1        1.0     0.815978     0.924104     0.123446    Uiso  ? Al
   Al2        1.0     0.522777     0.084297     0.851468    Uiso  ? Al
   Al3        1.0     0.815958     0.424091     0.351533    Uiso  ? Al
   Al4        1.0     0.522755     0.584302     0.623505    Uiso  ? Al
   Li1        1.0     0.004260     0.406958     0.864248    Uiso  ? Li
   Li2        1.0     0.004396     0.906838     0.610765    Uiso  ? Li
   Li3        1.0     0.334609     0.601376     0.110843    Uiso  ? Li
   Li4        1.0     0.334463     0.101415     0.364097    Uiso  ? Li
