
#======================================================================
# CRYSTAL DATA
#----------------------------------------------------------------------
data_VESTA_phase_1

_chemical_name_common                  'Mg   Si   N                           '
_cell_length_a                         5.216887
_cell_length_b                         5.217419
_cell_length_c                         6.512383
_cell_angle_alpha                      89.999939
_cell_angle_beta                       89.999779
_cell_angle_gamma                      90.000015
_cell_volume                           177.258495
_space_group_name_H-M_alt              'P 1'
_space_group_IT_number                 1

loop_
_space_group_symop_operation_xyz
   'x, y, z'

loop_
   _atom_site_label
   _atom_site_occupancy
   _atom_site_fract_x
   _atom_site_fract_y
   _atom_site_fract_z
   _atom_site_adp_type
   _atom_site_U_iso_or_equiv
   _atom_site_type_symbol
   Mg1        1.0     0.977628     0.433543     0.883347    Uiso  ? Mg
   Mg2        1.0     0.101894     0.933538     0.633321    Uiso  ? Mg
   Mg3        1.0     0.477629     0.558132     0.133320    Uiso  ? Mg
   Mg4        1.0     0.601887     0.058141     0.383347    Uiso  ? Mg
   Si1        1.0     0.105665     0.929915     0.133338    Uiso  ? Si
   Si2        1.0     0.605668     0.061754     0.883333    Uiso  ? Si
   Si3        1.0     0.973861     0.429914     0.383332    Uiso  ? Si
   Si4        1.0     0.473861     0.561755     0.633334    Uiso  ? Si
   N1         1.0     0.941681     0.029173     0.913880    Uiso  ? N
   N2         1.0     0.441679     0.962497     0.102786    Uiso  ? N
   N3         1.0     0.073112     0.593929     0.163890    Uiso  ? N
   N4         1.0     0.006413     0.093929     0.352780    Uiso  ? N
   N5         1.0     0.573110     0.397739     0.852778    Uiso  ? N
   N6         1.0     0.506421     0.897740     0.663889    Uiso  ? N
   N7         1.0     0.137848     0.529172     0.602789    Uiso  ? N
   N8         1.0     0.637847     0.462500     0.413880    Uiso  ? N
