# generated using pymatgen
data_Al11BN12
_symmetry_space_group_name_H-M   'P 1'
_cell_length_a   9.25981099
_cell_length_b   9.25939665
_cell_length_c   9.89631179
_cell_angle_alpha   90.00326877
_cell_angle_beta   90.11580064
_cell_angle_gamma   59.98662551
_symmetry_Int_Tables_number   1
_chemical_formula_structural   Al11BN12
_chemical_formula_sum   'Al33 B3 N36'
_cell_volume   734.73227041
_cell_formula_units_Z   3
loop_
 _symmetry_equiv_pos_site_id
 _symmetry_equiv_pos_as_xyz
  1  'x, y, z'
loop_
 _atom_site_type_symbol
 _atom_site_label
 _atom_site_symmetry_multiplicity
 _atom_site_fract_x
 _atom_site_fract_y
 _atom_site_fract_z
 _atom_site_occupancy
  Al  Al0  1  0.11102058  0.09215074  0.39543396  1
  Al  Al1  1  0.22365656  0.20061820  0.15252612  1
  Al  Al2  1  0.88907968  0.20057754  0.65661784  1
  Al  Al3  1  0.44637592  0.09334996  0.40337650  1
  Al  Al4  1  0.55746798  0.20440371  0.14807429  1
  Al  Al5  1  0.11087625  0.08672711  0.90756324  1
  Al  Al6  1  0.22120486  0.20461213  0.65262746  1
  Al  Al7  1  0.77897691  0.09214740  0.40087095  1
  Al  Al8  1  0.89093085  0.19916597  0.14596195  1
  Al  Al9  1  0.45499761  0.08897427  0.90292422  1
  Al  Al10  1  0.56250895  0.20169267  0.65696058  1
  Al  Al11  1  0.10997798  0.42861669  0.40233829  1
  Al  Al12  1  0.22409036  0.54293106  0.15289613  1
  Al  Al13  1  0.77623903  0.42875287  0.90222755  1
  Al  Al14  1  0.88697276  0.54471830  0.65701770  1
  Al  Al15  1  0.44582592  0.42578436  0.40328161  1
  Al  Al16  1  0.55100248  0.54223660  0.15366797  1
  Al  Al17  1  0.10770043  0.43367903  0.90335150  1
  Al  Al18  1  0.22180577  0.54054149  0.65216677  1
  Al  Al19  1  0.77982241  0.42639293  0.40241553  1
  Al  Al20  1  0.88731107  0.54162937  0.14696782  1
  Al  Al21  1  0.45039173  0.42405613  0.90291217  1
  Al  Al22  1  0.55573348  0.54002976  0.65206133  1
  Al  Al23  1  0.10923036  0.76405390  0.39489151  1
  Al  Al24  1  0.88606282  0.87380294  0.66097848  1
  Al  Al25  1  0.44301234  0.76291422  0.39598697  1
  Al  Al26  1  0.55175526  0.87311436  0.14781623  1
  Al  Al27  1  0.10870256  0.76666508  0.90642767  1
  Al  Al28  1  0.22255259  0.87204202  0.65041659  1
  Al  Al29  1  0.77857895  0.76243838  0.40059475  1
  Al  Al30  1  0.89014147  0.87463868  0.13887850  1
  Al  Al31  1  0.44447212  0.76169156  0.90734658  1
  Al  Al32  1  0.56104659  0.86838045  0.65662065  1
  B  B33  1  0.77259937  0.09257957  0.90934839  1
  B  B34  1  0.22218976  0.87193270  0.15584448  1
  B  B35  1  0.77211075  0.76641587  0.90950862  1
  N  N36  1  0.22312716  0.20535155  0.34416822  1
  N  N37  1  0.12408918  0.06861025  0.10084883  1
  N  N38  1  0.87960353  0.19037049  0.85205654  1
  N  N39  1  0.78000777  0.09134155  0.59105345  1
  N  N40  1  0.55725973  0.20417817  0.34053675  1
  N  N41  1  0.44407579  0.09520126  0.09212493  1
  N  N42  1  0.22089891  0.20457503  0.84608779  1
  N  N43  1  0.11023655  0.09351898  0.58942485  1
  N  N44  1  0.88714705  0.20474036  0.33826592  1
  N  N45  1  0.77554865  0.09553351  0.07141498  1
  N  N46  1  0.58166281  0.19239873  0.85077226  1
  N  N47  1  0.44666164  0.09308341  0.59809593  1
  N  N48  1  0.22293079  0.53859612  0.34415937  1
  N  N49  1  0.11209016  0.42798125  0.09418310  1
  N  N50  1  0.87686547  0.56536607  0.85092917  1
  N  N51  1  0.78124134  0.42581018  0.59742325  1
  N  N52  1  0.55645179  0.53785510  0.34473298  1
  N  N53  1  0.44506486  0.42755878  0.09310493  1
  N  N54  1  0.22340122  0.54058213  0.84480658  1
  N  N55  1  0.10958905  0.42863505  0.59543539  1
  N  N56  1  0.88770688  0.54075807  0.33971921  1
  N  N57  1  0.77696003  0.42765528  0.09268447  1
  N  N58  1  0.55490787  0.54107789  0.84373267  1
  N  N59  1  0.44627969  0.42500999  0.59595599  1
  N  N60  1  0.22246373  0.87170523  0.32241162  1
  N  N61  1  0.12453563  0.77353096  0.09937967  1
  N  N62  1  0.86930049  0.88216491  0.85836232  1
  N  N63  1  0.77917073  0.76284049  0.59110459  1
  N  N64  1  0.55729335  0.87212617  0.33934321  1
  N  N65  1  0.41972840  0.77309667  0.10065621  1
  N  N66  1  0.22484272  0.87065231  0.83951699  1
  N  N67  1  0.10819967  0.76383282  0.59048316  1
  N  N68  1  0.88657056  0.87332119  0.33228116  1
  N  N69  1  0.77544967  0.76230707  0.07254580  1
  N  N70  1  0.57992216  0.85809605  0.85254057  1
  N  N71  1  0.44462220  0.76289324  0.58989890  1
