# generated using pymatgen
data_Al11BN12
_symmetry_space_group_name_H-M   'P 1'
_cell_length_a   9.30858505
_cell_length_b   9.28930743
_cell_length_c   9.99352310
_cell_angle_alpha   89.89164188
_cell_angle_beta   89.77580649
_cell_angle_gamma   59.94249850
_symmetry_Int_Tables_number   1
_chemical_formula_structural   Al11BN12
_chemical_formula_sum   'Al33 B3 N36'
_cell_volume   747.93008314
_cell_formula_units_Z   3
loop_
 _symmetry_equiv_pos_site_id
 _symmetry_equiv_pos_as_xyz
  1  'x, y, z'
loop_
 _atom_site_type_symbol
 _atom_site_label
 _atom_site_symmetry_multiplicity
 _atom_site_fract_x
 _atom_site_fract_y
 _atom_site_fract_z
 _atom_site_occupancy
  Al  Al0  1  0.10421071  0.10293808  0.38657825  1
  Al  Al1  1  0.22352696  0.19844691  0.13726206  1
  Al  Al2  1  0.88556487  0.20318077  0.64129183  1
  Al  Al3  1  0.44536225  0.09455602  0.38770835  1
  Al  Al4  1  0.55854318  0.20259286  0.13415940  1
  Al  Al5  1  0.10585105  0.09299936  0.88971643  1
  Al  Al6  1  0.22110154  0.20613733  0.63853665  1
  Al  Al7  1  0.78059395  0.09005127  0.38363549  1
  Al  Al8  1  0.89288317  0.19737621  0.13047085  1
  Al  Al9  1  0.45467180  0.09008619  0.88771838  1
  Al  Al10  1  0.56057103  0.20364926  0.63941983  1
  Al  Al11  1  0.10547801  0.42866189  0.38404796  1
  Al  Al12  1  0.22346185  0.54448856  0.06853317  1
  Al  Al13  1  0.77952815  0.42577218  0.88749891  1
  Al  Al14  1  0.88475390  0.54547636  0.64021898  1
  Al  Al15  1  0.44990065  0.42511736  0.38537361  1
  Al  Al16  1  0.55388588  0.53910954  0.13341498  1
  Al  Al17  1  0.10429376  0.42850078  0.88564218  1
  Al  Al18  1  0.21596919  0.54873060  0.57348221  1
  Al  Al19  1  0.77696684  0.42891443  0.38718656  1
  Al  Al20  1  0.88705626  0.54076733  0.13154386  1
  Al  Al21  1  0.45952373  0.41615979  0.88679763  1
  Al  Al22  1  0.55506740  0.54008723  0.64044414  1
  Al  Al23  1  0.11763594  0.76416736  0.30561868  1
  Al  Al24  1  0.87586819  0.87931040  0.64693798  1
  Al  Al25  1  0.44287364  0.76475909  0.35652871  1
  Al  Al26  1  0.55327149  0.87416945  0.12709247  1
  Al  Al27  1  0.10996413  0.75932786  0.82873432  1
  Al  Al28  1  0.22048160  0.87011290  0.57279614  1
  Al  Al29  1  0.77934110  0.76410469  0.38288709  1
  Al  Al30  1  0.88774449  0.87591189  0.11325177  1
  Al  Al31  1  0.45464050  0.75630371  0.88022965  1
  Al  Al32  1  0.56050416  0.87118243  0.64280500  1
  B  B33  1  0.77198806  0.09093817  0.89273837  1
  B  B34  1  0.22448855  0.86697912  0.05402036  1
  B  B35  1  0.77187133  0.77086177  0.89374602  1
  N  N36  1  0.22283863  0.20543253  0.32769442  1
  N  N37  1  0.12223711  0.07268762  0.08172308  1
  N  N38  1  0.87880341  0.18855223  0.83394063  1
  N  N39  1  0.77921317  0.09207982  0.57303240  1
  N  N40  1  0.55769824  0.20386090  0.32468292  1
  N  N41  1  0.44372908  0.09669002  0.07548643  1
  N  N42  1  0.22338135  0.20128837  0.82906425  1
  N  N43  1  0.10441196  0.10303532  0.58100403  1
  N  N44  1  0.88570698  0.20653370  0.32219283  1
  N  N45  1  0.77528689  0.09674319  0.05342185  1
  N  N46  1  0.58304148  0.18953687  0.83246467  1
  N  N47  1  0.44577131  0.09482766  0.58071204  1
  N  N48  1  0.21771761  0.54791939  0.37199373  1
  N  N49  1  0.10912755  0.42366700  0.07965785  1
  N  N50  1  0.87723512  0.56335415  0.83253598  1
  N  N51  1  0.77798746  0.42795375  0.58003549  1
  N  N52  1  0.55665533  0.53842513  0.32430799  1
  N  N53  1  0.45271524  0.42190531  0.07860868  1
  N  N54  1  0.22656681  0.53515718  0.87190575  1
  N  N55  1  0.10535219  0.42768763  0.57959896  1
  N  N56  1  0.88500517  0.54224471  0.32278266  1
  N  N57  1  0.77995173  0.42528532  0.07617384  1
  N  N58  1  0.56099547  0.53337141  0.83016574  1
  N  N59  1  0.44946840  0.42513320  0.58013757  1
  N  N60  1  0.21812058  0.87192780  0.37953160  1
  N  N61  1  0.12952235  0.77305917  0.11259424  1
  N  N62  1  0.86332223  0.88334730  0.84444634  1
  N  N63  1  0.77817448  0.76437035  0.57281599  1
  N  N64  1  0.55794743  0.87464154  0.31949476  1
  N  N65  1  0.42612385  0.77018626  0.08527854  1
  N  N66  1  0.22355652  0.86301999  0.89104348  1
  N  N67  1  0.10886823  0.76515263  0.63823654  1
  N  N68  1  0.88326304  0.87522280  0.30921700  1
  N  N69  1  0.77686466  0.76047470  0.05464505  1
  N  N70  1  0.58304437  0.86055711  0.83770491  1
  N  N71  1  0.44489114  0.76448262  0.60266275  1
