# generated using pymatgen
data_Al11BN12
_symmetry_space_group_name_H-M   'P 1'
_cell_length_a   9.27037328
_cell_length_b   9.25137976
_cell_length_c   10.07510177
_cell_angle_alpha   90.16251450
_cell_angle_beta   89.72299674
_cell_angle_gamma   60.07565727
_symmetry_Int_Tables_number   1
_chemical_formula_structural   Al11BN12
_chemical_formula_sum   'Al33 B3 N36'
_cell_volume   748.86124432
_cell_formula_units_Z   3
loop_
 _symmetry_equiv_pos_site_id
 _symmetry_equiv_pos_as_xyz
  1  'x, y, z'
loop_
 _atom_site_type_symbol
 _atom_site_label
 _atom_site_symmetry_multiplicity
 _atom_site_fract_x
 _atom_site_fract_y
 _atom_site_fract_z
 _atom_site_occupancy
  Al  Al0  1  0.11406870  0.08893347  0.30760011  1
  Al  Al1  1  0.22213658  0.20250409  0.06022804  1
  Al  Al2  1  0.88985455  0.20136146  0.56058855  1
  Al  Al3  1  0.44347739  0.09453090  0.30931533  1
  Al  Al4  1  0.55951024  0.20498865  0.06343507  1
  Al  Al5  1  0.10898515  0.08797781  0.81672132  1
  Al  Al6  1  0.22141388  0.20382937  0.56221476  1
  Al  Al7  1  0.77619368  0.09751913  0.32110379  1
  Al  Al8  1  0.89175447  0.19756055  0.06138199  1
  Al  Al9  1  0.45501576  0.08863289  0.81060686  1
  Al  Al10  1  0.55581626  0.20443952  0.55930270  1
  Al  Al11  1  0.11119382  0.42777674  0.31188770  1
  Al  Al12  1  0.22624920  0.54145231  0.06091829  1
  Al  Al13  1  0.77595784  0.42751617  0.81080819  1
  Al  Al14  1  0.89148583  0.53212327  0.56511738  1
  Al  Al15  1  0.44462242  0.42762518  0.31144859  1
  Al  Al16  1  0.55176784  0.54267697  0.06085295  1
  Al  Al17  1  0.10796350  0.43264582  0.81043424  1
  Al  Al18  1  0.21929479  0.54290219  0.56499476  1
  Al  Al19  1  0.77995839  0.42743406  0.30836261  1
  Al  Al20  1  0.89254165  0.53741167  0.05576063  1
  Al  Al21  1  0.45259715  0.42215921  0.80982684  1
  Al  Al22  1  0.55561058  0.53845731  0.56125049  1
  Al  Al23  1  0.12191903  0.75852774  0.30723000  1
  Al  Al24  1  0.87520409  0.87731209  0.64400840  1
  Al  Al25  1  0.44050557  0.76328251  0.30802589  1
  Al  Al26  1  0.54457095  0.87792798  0.06013935  1
  Al  Al27  1  0.11264542  0.76262050  0.82902603  1
  Al  Al28  1  0.21749132  0.87131746  0.56611385  1
  Al  Al29  1  0.78329144  0.76367971  0.38324330  1
  Al  Al30  1  0.89193917  0.87465158  0.12197870  1
  Al  Al31  1  0.45028875  0.75947128  0.81627116  1
  Al  Al32  1  0.54735627  0.87474088  0.56317900  1
  B  B33  1  0.77278423  0.09015236  0.84580060  1
  B  B34  1  0.22484409  0.87158382  0.05812077  1
  B  B35  1  0.76951667  0.77832971  0.89791501  1
  N  N36  1  0.22161266  0.20390985  0.37052929  1
  N  N37  1  0.12358925  0.07017668  0.11353358  1
  N  N38  1  0.87495884  0.18491588  0.86910240  1
  N  N39  1  0.77584674  0.09462483  0.60046431  1
  N  N40  1  0.55060237  0.20723649  0.37043959  1
  N  N41  1  0.44299531  0.09767521  0.11961727  1
  N  N42  1  0.22172344  0.20537470  0.87122023  1
  N  N43  1  0.11049338  0.09314395  0.62735957  1
  N  N44  1  0.89327292  0.20607496  0.36917094  1
  N  N45  1  0.77263766  0.10484865  0.12779070  1
  N  N46  1  0.58283940  0.19073673  0.86997087  1
  N  N47  1  0.44279195  0.09554333  0.62343612  1
  N  N48  1  0.22193021  0.54074040  0.37322734  1
  N  N49  1  0.11133689  0.43001828  0.12163638  1
  N  N50  1  0.88069853  0.55731751  0.86590111  1
  N  N51  1  0.77735933  0.42502759  0.62323643  1
  N  N52  1  0.55613487  0.54009007  0.36961999  1
  N  N53  1  0.44537667  0.42786758  0.12188652  1
  N  N54  1  0.22770623  0.53366470  0.87381129  1
  N  N55  1  0.11217603  0.42654164  0.62233408  1
  N  N56  1  0.89240827  0.53184501  0.37163858  1
  N  N57  1  0.77981006  0.42869897  0.11707382  1
  N  N58  1  0.55684272  0.53746489  0.87314848  1
  N  N59  1  0.44353807  0.42757297  0.62181814  1
  N  N60  1  0.22221124  0.87160188  0.37753581  1
  N  N61  1  0.13117062  0.77233953  0.11039565  1
  N  N62  1  0.86118956  0.89083259  0.84373341  1
  N  N63  1  0.77817248  0.76337687  0.57452200  1
  N  N64  1  0.55001559  0.87387780  0.36792230  1
  N  N65  1  0.42128705  0.77385989  0.11510764  1
  N  N66  1  0.22809867  0.87119324  0.89447850  1
  N  N67  1  0.11103105  0.76102049  0.63721754  1
  N  N68  1  0.89226201  0.86361671  0.31351233  1
  N  N69  1  0.77965389  0.77052161  0.05660844  1
  N  N70  1  0.57415787  0.86430384  0.86961364  1
  N  N71  1  0.44090974  0.76113456  0.62686046  1
