# generated using pymatgen
data_Al11BN12
_symmetry_space_group_name_H-M   'P 1'
_cell_length_a   9.31366727
_cell_length_b   9.31100658
_cell_length_c   10.00632393
_cell_angle_alpha   89.91650188
_cell_angle_beta   89.88306940
_cell_angle_gamma   59.92661759
_symmetry_Int_Tables_number   1
_chemical_formula_structural   Al11BN12
_chemical_formula_sum   'Al33 B3 N36'
_cell_volume   750.93088752
_cell_formula_units_Z   3
loop_
 _symmetry_equiv_pos_site_id
 _symmetry_equiv_pos_as_xyz
  1  'x, y, z'
loop_
 _atom_site_type_symbol
 _atom_site_label
 _atom_site_symmetry_multiplicity
 _atom_site_fract_x
 _atom_site_fract_y
 _atom_site_fract_z
 _atom_site_occupancy
  Al  Al0  1  0.10421217  0.10280731  0.38808189  1
  Al  Al1  1  0.22301818  0.19912996  0.13796216  1
  Al  Al2  1  0.88639720  0.20246913  0.64215054  1
  Al  Al3  1  0.44590505  0.09275456  0.38713541  1
  Al  Al4  1  0.56159198  0.19672964  0.12971747  1
  Al  Al5  1  0.10711452  0.09203998  0.89201549  1
  Al  Al6  1  0.22107131  0.20667149  0.63866604  1
  Al  Al7  1  0.77962714  0.09071666  0.38434635  1
  Al  Al8  1  0.89349858  0.19701996  0.13220171  1
  Al  Al9  1  0.45514145  0.08915526  0.88805483  1
  Al  Al10  1  0.56308634  0.19829596  0.63908190  1
  Al  Al11  1  0.10533347  0.42800059  0.38574272  1
  Al  Al12  1  0.22499071  0.54483873  0.06745655  1
  Al  Al13  1  0.78165890  0.42481061  0.88931393  1
  Al  Al14  1  0.88652724  0.54498522  0.64069081  1
  Al  Al15  1  0.44023934  0.42931425  0.32100147  1
  Al  Al16  1  0.55720372  0.54042895  0.12395023  1
  Al  Al17  1  0.10401248  0.42840105  0.88756862  1
  Al  Al18  1  0.22289514  0.54510556  0.57198227  1
  Al  Al19  1  0.77393631  0.43049885  0.38724179  1
  Al  Al20  1  0.88853916  0.54031409  0.13311040  1
  Al  Al21  1  0.44978011  0.42005105  0.84079060  1
  Al  Al22  1  0.55843086  0.53777086  0.64183184  1
  Al  Al23  1  0.11567499  0.76543155  0.30883064  1
  Al  Al24  1  0.87856462  0.87759361  0.64692134  1
  Al  Al25  1  0.43107295  0.77129184  0.31287077  1
  Al  Al26  1  0.55509848  0.87519986  0.12469408  1
  Al  Al27  1  0.11008196  0.76130374  0.83067010  1
  Al  Al28  1  0.22320811  0.86866143  0.57331391  1
  Al  Al29  1  0.77762626  0.76377929  0.38265813  1
  Al  Al30  1  0.88900782  0.87499032  0.11489327  1
  Al  Al31  1  0.44749263  0.76279661  0.83670803  1
  Al  Al32  1  0.56342610  0.87328740  0.64196316  1
  B  B33  1  0.77266930  0.08960707  0.89367673  1
  B  B34  1  0.22725581  0.86608169  0.05831144  1
  B  B35  1  0.77256087  0.77046702  0.89418688  1
  N  N36  1  0.22273541  0.20531439  0.32826091  1
  N  N37  1  0.12147382  0.07394596  0.08322483  1
  N  N38  1  0.88041031  0.18777581  0.83432765  1
  N  N39  1  0.78027835  0.09108985  0.57352423  1
  N  N40  1  0.55956959  0.19843521  0.32376464  1
  N  N41  1  0.44256103  0.09624030  0.07435098  1
  N  N42  1  0.22396241  0.20139561  0.82923641  1
  N  N43  1  0.10512301  0.10248911  0.58169392  1
  N  N44  1  0.88537354  0.20651531  0.32359510  1
  N  N45  1  0.77731664  0.09547057  0.05378015  1
  N  N46  1  0.58566850  0.18526818  0.83556415  1
  N  N47  1  0.44572875  0.09371818  0.57964168  1
  N  N48  1  0.21998570  0.54688888  0.37527057  1
  N  N49  1  0.10969975  0.42371648  0.08061363  1
  N  N50  1  0.87817677  0.56306804  0.83265060  1
  N  N51  1  0.77786200  0.42831698  0.58067996  1
  N  N52  1  0.55753162  0.54163467  0.32429223  1
  N  N53  1  0.44484188  0.42508329  0.11247300  1
  N  N54  1  0.22447356  0.53782714  0.87762436  1
  N  N55  1  0.10643213  0.42785085  0.57964619  1
  N  N56  1  0.88550363  0.54175801  0.32385470  1
  N  N57  1  0.78354219  0.42345971  0.07684664  1
  N  N58  1  0.56349689  0.53380713  0.84034745  1
  N  N59  1  0.44185431  0.42641559  0.62636366  1
  N  N60  1  0.22090604  0.87025831  0.38325752  1
  N  N61  1  0.12867125  0.77334434  0.11532917  1
  N  N62  1  0.86507129  0.88302364  0.84477011  1
  N  N63  1  0.77892795  0.76355396  0.57277596  1
  N  N64  1  0.55808583  0.87461347  0.31945230  1
  N  N65  1  0.41621871  0.77732169  0.11295269  1
  N  N66  1  0.22884155  0.86055189  0.89726958  1
  N  N67  1  0.11120765  0.76336295  0.63906997  1
  N  N68  1  0.88285294  0.87498195  0.31106284  1
  N  N69  1  0.77815131  0.75975364  0.05493472  1
  N  N70  1  0.58562885  0.86139543  0.83862073  1
  N  N71  1  0.43791948  0.76929613  0.63814630  1
