# generated using pymatgen
data_Al11BN12
_symmetry_space_group_name_H-M   'P 1'
_cell_length_a   9.25918796
_cell_length_b   9.32720200
_cell_length_c   9.95361612
_cell_angle_alpha   90.16523386
_cell_angle_beta   89.76166222
_cell_angle_gamma   60.06505636
_symmetry_Int_Tables_number   1
_chemical_formula_structural   Al11BN12
_chemical_formula_sum   'Al33 B3 N36'
_cell_volume   744.91935819
_cell_formula_units_Z   3
loop_
 _symmetry_equiv_pos_site_id
 _symmetry_equiv_pos_as_xyz
  1  'x, y, z'
loop_
 _atom_site_type_symbol
 _atom_site_label
 _atom_site_symmetry_multiplicity
 _atom_site_fract_x
 _atom_site_fract_y
 _atom_site_fract_z
 _atom_site_occupancy
  Al  Al0  1  0.11237991  0.08815055  0.30727453  1
  Al  Al1  1  0.22439785  0.19879584  0.05922545  1
  Al  Al2  1  0.88949823  0.20647144  0.56374508  1
  Al  Al3  1  0.44638772  0.09385816  0.30851676  1
  Al  Al4  1  0.56189595  0.20480407  0.05615911  1
  Al  Al5  1  0.10967818  0.08964590  0.81387586  1
  Al  Al6  1  0.22163548  0.20575858  0.56119108  1
  Al  Al7  1  0.78030569  0.09074369  0.30838414  1
  Al  Al8  1  0.88952135  0.19766628  0.05595672  1
  Al  Al9  1  0.46147201  0.08586560  0.80942128  1
  Al  Al10  1  0.55406728  0.20738428  0.56298305  1
  Al  Al11  1  0.11120763  0.42710124  0.31084017  1
  Al  Al12  1  0.22794917  0.53672742  0.06266393  1
  Al  Al13  1  0.77195025  0.43764918  0.80802415  1
  Al  Al14  1  0.88695802  0.54400100  0.55973053  1
  Al  Al15  1  0.44607921  0.42612708  0.31271694  1
  Al  Al16  1  0.55049467  0.54248674  0.06114139  1
  Al  Al17  1  0.10946837  0.43016940  0.81060951  1
  Al  Al18  1  0.21491138  0.54760236  0.56204222  1
  Al  Al19  1  0.77908521  0.42498261  0.30997697  1
  Al  Al20  1  0.88780147  0.53850989  0.06307183  1
  Al  Al21  1  0.44655793  0.43034833  0.80651439  1
  Al  Al22  1  0.55316648  0.54449068  0.55891791  1
  Al  Al23  1  0.11405987  0.76297692  0.30498848  1
  Al  Al24  1  0.87804997  0.87422257  0.65484223  1
  Al  Al25  1  0.43829282  0.76478033  0.30594638  1
  Al  Al26  1  0.55551085  0.87009017  0.06182488  1
  Al  Al27  1  0.11783623  0.75215142  0.83190622  1
  Al  Al28  1  0.21770716  0.87272073  0.56385023  1
  Al  Al29  1  0.77920059  0.76007916  0.31726524  1
  Al  Al30  1  0.89067753  0.86836600  0.07621779  1
  Al  Al31  1  0.44837268  0.76286866  0.81521424  1
  Al  Al32  1  0.55488284  0.87260158  0.55865015  1
  B  B33  1  0.74856912  0.15567442  0.79821813  1
  B  B34  1  0.22452168  0.87030451  0.05560099  1
  B  B35  1  0.78233271  0.75124706  0.84399513  1
  N  N36  1  0.22173916  0.20380166  0.36752614  1
  N  N37  1  0.12140577  0.06984328  0.11054066  1
  N  N38  1  0.87053227  0.20310275  0.86138917  1
  N  N39  1  0.76958436  0.11117331  0.64966318  1
  N  N40  1  0.55799528  0.20418708  0.37299927  1
  N  N41  1  0.44796433  0.09471797  0.11436748  1
  N  N42  1  0.22553448  0.20232013  0.86821668  1
  N  N43  1  0.11085464  0.09404621  0.62391726  1
  N  N44  1  0.88877514  0.20372066  0.37211347  1
  N  N45  1  0.77742873  0.09456083  0.11708081  1
  N  N46  1  0.58073725  0.20228964  0.86148943  1
  N  N47  1  0.44507834  0.09460196  0.62074349  1
  N  N48  1  0.22115033  0.54126238  0.36907263  1
  N  N49  1  0.11244763  0.42506994  0.11855996  1
  N  N50  1  0.87678872  0.55752149  0.86898033  1
  N  N51  1  0.77630239  0.43036489  0.61904817  1
  N  N52  1  0.55426446  0.54245971  0.36679695  1
  N  N53  1  0.44846128  0.42353040  0.12141063  1
  N  N54  1  0.23141965  0.52678415  0.87387713  1
  N  N55  1  0.11008536  0.42881794  0.62036694  1
  N  N56  1  0.88950685  0.53510290  0.36899670  1
  N  N57  1  0.77948660  0.42241656  0.11678733  1
  N  N58  1  0.55307817  0.54206685  0.87083694  1
  N  N59  1  0.44171756  0.43196471  0.61715662  1
  N  N60  1  0.22127798  0.87182805  0.37426201  1
  N  N61  1  0.12973465  0.76905810  0.10615735  1
  N  N62  1  0.88451951  0.83652974  0.86142926  1
  N  N63  1  0.77322973  0.76218662  0.61116029  1
  N  N64  1  0.55054667  0.87354655  0.36649195  1
  N  N65  1  0.41979679  0.77443498  0.11123700  1
  N  N66  1  0.22392297  0.87325358  0.89173267  1
  N  N67  1  0.11133726  0.76416135  0.63785442  1
  N  N68  1  0.89275794  0.87062112  0.33916747  1
  N  N69  1  0.77468892  0.75533704  0.12373678  1
  N  N70  1  0.58628422  0.85619031  0.86896517  1
  N  N71  1  0.44050358  0.76504816  0.62434792  1
