# generated using pymatgen
data_Al11BN12
_symmetry_space_group_name_H-M   'P 1'
_cell_length_a   9.27580147
_cell_length_b   9.25676865
_cell_length_c   10.07683381
_cell_angle_alpha   90.17842275
_cell_angle_beta   89.71470344
_cell_angle_gamma   60.04163490
_symmetry_Int_Tables_number   1
_chemical_formula_structural   Al11BN12
_chemical_formula_sum   'Al33 B3 N36'
_cell_volume   749.60620915
_cell_formula_units_Z   3
loop_
 _symmetry_equiv_pos_site_id
 _symmetry_equiv_pos_as_xyz
  1  'x, y, z'
loop_
 _atom_site_type_symbol
 _atom_site_label
 _atom_site_symmetry_multiplicity
 _atom_site_fract_x
 _atom_site_fract_y
 _atom_site_fract_z
 _atom_site_occupancy
  Al  Al0  1  0.11484857  0.08862289  0.30641571  1
  Al  Al1  1  0.22213590  0.20246455  0.05987362  1
  Al  Al2  1  0.89279636  0.20365537  0.55959036  1
  Al  Al3  1  0.44355574  0.09411851  0.30822479  1
  Al  Al4  1  0.55724460  0.20600783  0.06486783  1
  Al  Al5  1  0.10910540  0.08837030  0.81729055  1
  Al  Al6  1  0.22194435  0.20369678  0.56188786  1
  Al  Al7  1  0.78133791  0.08809856  0.36022350  1
  Al  Al8  1  0.89287893  0.19808148  0.06241604  1
  Al  Al9  1  0.45553504  0.08871002  0.81133921  1
  Al  Al10  1  0.55117814  0.20688688  0.55801828  1
  Al  Al11  1  0.11158564  0.42722658  0.31197077  1
  Al  Al12  1  0.22539657  0.54235123  0.06089120  1
  Al  Al13  1  0.77580471  0.42768069  0.81149651  1
  Al  Al14  1  0.89155432  0.53236760  0.56527654  1
  Al  Al15  1  0.44489575  0.42742910  0.31042892  1
  Al  Al16  1  0.55169382  0.54264017  0.06070434  1
  Al  Al17  1  0.10796392  0.43305696  0.81040573  1
  Al  Al18  1  0.21854087  0.54386482  0.56487567  1
  Al  Al19  1  0.77986228  0.42680228  0.30723566  1
  Al  Al20  1  0.89269037  0.53758618  0.05577313  1
  Al  Al21  1  0.45215544  0.42276433  0.81070615  1
  Al  Al22  1  0.55544993  0.53877711  0.56093842  1
  Al  Al23  1  0.12228775  0.75802179  0.30633167  1
  Al  Al24  1  0.87343227  0.88031872  0.64329691  1
  Al  Al25  1  0.44038852  0.76299140  0.30786492  1
  Al  Al26  1  0.54503453  0.87752277  0.06021933  1
  Al  Al27  1  0.11176589  0.76377994  0.82921545  1
  Al  Al28  1  0.21751533  0.87118712  0.56599448  1
  Al  Al29  1  0.78333990  0.76191003  0.38254151  1
  Al  Al30  1  0.88980565  0.87724494  0.12428971  1
  Al  Al31  1  0.44998680  0.75980540  0.81640886  1
  Al  Al32  1  0.54765458  0.87434463  0.56295910  1
  B  B33  1  0.77331209  0.08977299  0.86877196  1
  B  B34  1  0.22463221  0.87169698  0.05826638  1
  B  B35  1  0.76929097  0.77743157  0.89819001  1
  N  N36  1  0.22216440  0.20329584  0.37056065  1
  N  N37  1  0.12464894  0.06985313  0.11319143  1
  N  N38  1  0.87551279  0.18680929  0.86833369  1
  N  N39  1  0.78086668  0.08625701  0.56602135  1
  N  N40  1  0.54722054  0.20873752  0.36847878  1
  N  N41  1  0.44218262  0.09720831  0.11921714  1
  N  N42  1  0.22179101  0.20580867  0.87091195  1
  N  N43  1  0.11110849  0.09299177  0.62773923  1
  N  N44  1  0.89567108  0.20728211  0.36706604  1
  N  N45  1  0.77418409  0.10077940  0.10955568  1
  N  N46  1  0.58105066  0.19244498  0.86985259  1
  N  N47  1  0.44347185  0.09509966  0.62395737  1
  N  N48  1  0.22187305  0.54084886  0.37328483  1
  N  N49  1  0.11142689  0.42983370  0.12158641  1
  N  N50  1  0.88045897  0.55809227  0.86553225  1
  N  N51  1  0.77711068  0.42489716  0.62364399  1
  N  N52  1  0.55621998  0.53979757  0.36962274  1
  N  N53  1  0.44444780  0.42899154  0.12155675  1
  N  N54  1  0.22687662  0.53469030  0.87367008  1
  N  N55  1  0.11244630  0.42645439  0.62220665  1
  N  N56  1  0.89255165  0.53089636  0.37173773  1
  N  N57  1  0.77953612  0.42946252  0.11661833  1
  N  N58  1  0.55657338  0.53796250  0.87303261  1
  N  N59  1  0.44379331  0.42770972  0.62234557  1
  N  N60  1  0.22180686  0.87153963  0.37747298  1
  N  N61  1  0.13080094  0.77256467  0.11060934  1
  N  N62  1  0.85925925  0.89474341  0.84230891  1
  N  N63  1  0.77840136  0.76342987  0.57448030  1
  N  N64  1  0.55003774  0.87352615  0.36782348  1
  N  N65  1  0.42147830  0.77366085  0.11509283  1
  N  N66  1  0.22785196  0.87148730  0.89447424  1
  N  N67  1  0.10998683  0.76212325  0.63752720  1
  N  N68  1  0.89198978  0.86272443  0.31302654  1
  N  N69  1  0.78024633  0.77018458  0.05650866  1
  N  N70  1  0.57418464  0.86412183  0.86963737  1
  N  N71  1  0.44083533  0.76124722  0.62680126  1
