# generated using pymatgen
data_Al11BN12
_symmetry_space_group_name_H-M   'P 1'
_cell_length_a   9.30151614
_cell_length_b   9.27754113
_cell_length_c   10.07194433
_cell_angle_alpha   89.93141988
_cell_angle_beta   89.97230717
_cell_angle_gamma   60.04080929
_symmetry_Int_Tables_number   1
_chemical_formula_structural   Al11BN12
_chemical_formula_sum   'Al33 B3 N36'
_cell_volume   753.02381281
_cell_formula_units_Z   3
loop_
 _symmetry_equiv_pos_site_id
 _symmetry_equiv_pos_as_xyz
  1  'x, y, z'
loop_
 _atom_site_type_symbol
 _atom_site_label
 _atom_site_symmetry_multiplicity
 _atom_site_fract_x
 _atom_site_fract_y
 _atom_site_fract_z
 _atom_site_occupancy
  Al  Al0  1  0.10444795  0.10269211  0.38966994  1
  Al  Al1  1  0.22744915  0.19219005  0.13616294  1
  Al  Al2  1  0.88650754  0.20224434  0.64503561  1
  Al  Al3  1  0.44576148  0.09190688  0.38818571  1
  Al  Al4  1  0.56087110  0.20018757  0.13380864  1
  Al  Al5  1  0.10966184  0.09005403  0.89439747  1
  Al  Al6  1  0.22418052  0.19983781  0.64027043  1
  Al  Al7  1  0.77992739  0.08986187  0.38513906  1
  Al  Al8  1  0.89338234  0.19652015  0.13039215  1
  Al  Al9  1  0.45745817  0.08889316  0.88917009  1
  Al  Al10  1  0.56449302  0.19693228  0.63768881  1
  Al  Al11  1  0.11222125  0.43295065  0.31674484  1
  Al  Al12  1  0.22731985  0.54057767  0.06707893  1
  Al  Al13  1  0.78373257  0.42386953  0.88569733  1
  Al  Al14  1  0.87910103  0.54845747  0.64278795  1
  Al  Al15  1  0.44133598  0.43285179  0.32127348  1
  Al  Al16  1  0.54674866  0.54511380  0.06818793  1
  Al  Al17  1  0.11127719  0.43370516  0.82765097  1
  Al  Al18  1  0.21735769  0.54236433  0.57156950  1
  Al  Al19  1  0.78018021  0.42713444  0.37785113  1
  Al  Al20  1  0.88417666  0.54448243  0.12504894  1
  Al  Al21  1  0.44972968  0.42703449  0.82038788  1
  Al  Al22  1  0.54960961  0.54364728  0.57215902  1
  Al  Al23  1  0.11543880  0.76535443  0.30925485  1
  Al  Al24  1  0.87933725  0.87712470  0.64876709  1
  Al  Al25  1  0.43303626  0.76506821  0.31387885  1
  Al  Al26  1  0.55506940  0.87468485  0.12836528  1
  Al  Al27  1  0.11045654  0.76177135  0.83353672  1
  Al  Al28  1  0.22168847  0.86762427  0.57364851  1
  Al  Al29  1  0.77734393  0.76370696  0.38324508  1
  Al  Al30  1  0.88811608  0.87596945  0.11529529  1
  Al  Al31  1  0.44841663  0.75779023  0.82792162  1
  Al  Al32  1  0.56362375  0.87255827  0.64220287  1
  B  B33  1  0.77159994  0.09105475  0.89337417  1
  B  B34  1  0.22788774  0.86383619  0.06049412  1
  B  B35  1  0.77115179  0.76986641  0.89403194  1
  N  N36  1  0.22495276  0.20036126  0.32886000  1
  N  N37  1  0.12199345  0.07187388  0.08359031  1
  N  N38  1  0.88194161  0.18613234  0.83601250  1
  N  N39  1  0.78157419  0.09037173  0.57342271  1
  N  N40  1  0.55934966  0.19893785  0.32710294  1
  N  N41  1  0.44547000  0.09594152  0.07485701  1
  N  N42  1  0.22832714  0.19462818  0.83285185  1
  N  N43  1  0.10463376  0.10155596  0.58185553  1
  N  N44  1  0.88651863  0.20415707  0.32111621  1
  N  N45  1  0.77462973  0.09728866  0.05361740  1
  N  N46  1  0.58503506  0.18830425  0.83305626  1
  N  N47  1  0.44588776  0.09284467  0.57909791  1
  N  N48  1  0.21784902  0.54496934  0.38060150  1
  N  N49  1  0.11633593  0.42904125  0.12089972  1
  N  N50  1  0.87333561  0.56913178  0.83764815  1
  N  N51  1  0.78067991  0.42574785  0.58863459  1
  N  N52  1  0.54808902  0.54594990  0.37987510  1
  N  N53  1  0.44365778  0.43276640  0.13104996  1
  N  N54  1  0.22885717  0.53466154  0.88181961  1
  N  N55  1  0.11034349  0.43156652  0.63164918  1
  N  N56  1  0.88025826  0.54586042  0.31999574  1
  N  N57  1  0.78418534  0.42244120  0.07801753  1
  N  N58  1  0.55389624  0.53849619  0.87983652  1
  N  N59  1  0.44134226  0.43006495  0.62938250  1
  N  N60  1  0.22079949  0.86928253  0.38463750  1
  N  N61  1  0.12840525  0.77222460  0.11568456  1
  N  N62  1  0.86471983  0.88409143  0.84515843  1
  N  N63  1  0.77864807  0.76399836  0.57240065  1
  N  N64  1  0.55770457  0.87319417  0.32085801  1
  N  N65  1  0.41704001  0.77373784  0.12013329  1
  N  N66  1  0.23239754  0.85809568  0.89900422  1
  N  N67  1  0.11189205  0.76172110  0.64192358  1
  N  N68  1  0.88281502  0.87457936  0.31078238  1
  N  N69  1  0.77495928  0.76351226  0.05402470  1
  N  N70  1  0.58430897  0.86120374  0.83659931  1
  N  N71  1  0.43994764  0.76344345  0.63723852  1
