# generated using pymatgen
data_Al11BN12
_symmetry_space_group_name_H-M   'P 1'
_cell_length_a   9.31025149
_cell_length_b   9.29125450
_cell_length_c   10.00378593
_cell_angle_alpha   89.89944115
_cell_angle_beta   89.83442491
_cell_angle_gamma   59.93154191
_symmetry_Int_Tables_number   1
_chemical_formula_structural   Al11BN12
_chemical_formula_sum   'Al33 B3 N36'
_cell_volume   748.90882192
_cell_formula_units_Z   3
loop_
 _symmetry_equiv_pos_site_id
 _symmetry_equiv_pos_as_xyz
  1  'x, y, z'
loop_
 _atom_site_type_symbol
 _atom_site_label
 _atom_site_symmetry_multiplicity
 _atom_site_fract_x
 _atom_site_fract_y
 _atom_site_fract_z
 _atom_site_occupancy
  Al  Al0  1  0.10450740  0.10250786  0.38723795  1
  Al  Al1  1  0.22335135  0.19865469  0.13744632  1
  Al  Al2  1  0.88610369  0.20277032  0.64149396  1
  Al  Al3  1  0.44571574  0.09376427  0.38713046  1
  Al  Al4  1  0.55864149  0.20245397  0.13456486  1
  Al  Al5  1  0.10694321  0.09165262  0.89122049  1
  Al  Al6  1  0.22093750  0.20608319  0.63862019  1
  Al  Al7  1  0.78024714  0.09037804  0.38381319  1
  Al  Al8  1  0.89314905  0.19712566  0.13098764  1
  Al  Al9  1  0.45481446  0.09032358  0.88794949  1
  Al  Al10  1  0.56062117  0.20384077  0.63945585  1
  Al  Al11  1  0.10552160  0.42838682  0.38416044  1
  Al  Al12  1  0.22310679  0.54479922  0.06876300  1
  Al  Al13  1  0.78031464  0.42546668  0.88823734  1
  Al  Al14  1  0.88500403  0.54532707  0.64048024  1
  Al  Al15  1  0.44994592  0.42594833  0.38500822  1
  Al  Al16  1  0.55555157  0.53610813  0.13148958  1
  Al  Al17  1  0.10443397  0.42826155  0.88574918  1
  Al  Al18  1  0.21567248  0.54903299  0.57350380  1
  Al  Al19  1  0.77596416  0.42989434  0.38674529  1
  Al  Al20  1  0.88746197  0.54060997  0.13186195  1
  Al  Al21  1  0.45946411  0.41549635  0.88743417  1
  Al  Al22  1  0.55657099  0.53693277  0.64075096  1
  Al  Al23  1  0.11675735  0.76414961  0.30711584  1
  Al  Al24  1  0.87654409  0.87928170  0.64716664  1
  Al  Al25  1  0.43292910  0.76991063  0.31592495  1
  Al  Al26  1  0.55486802  0.87511800  0.12427383  1
  Al  Al27  1  0.11055534  0.75972020  0.82993166  1
  Al  Al28  1  0.22329605  0.86892438  0.57291131  1
  Al  Al29  1  0.77819781  0.76413942  0.38253236  1
  Al  Al30  1  0.88799112  0.87599509  0.11393274  1
  Al  Al31  1  0.44923330  0.75974612  0.84134467  1
  Al  Al32  1  0.56215335  0.87358840  0.64242825  1
  B  B33  1  0.77239049  0.09067080  0.89272231  1
  B  B34  1  0.22729695  0.86529019  0.05712624  1
  B  B35  1  0.77209814  0.77112311  0.89424109  1
  N  N36  1  0.22285943  0.20509548  0.32774126  1
  N  N37  1  0.12176783  0.07332248  0.08251232  1
  N  N38  1  0.88010027  0.18739702  0.83404679  1
  N  N39  1  0.77912227  0.09219309  0.57320023  1
  N  N40  1  0.55739345  0.20418985  0.32483296  1
  N  N41  1  0.44333407  0.09751409  0.07511347  1
  N  N42  1  0.22367412  0.20057397  0.82902310  1
  N  N43  1  0.10471243  0.10267090  0.58087653  1
  N  N44  1  0.88597159  0.20626985  0.32259209  1
  N  N45  1  0.77523478  0.09676709  0.05354731  1
  N  N46  1  0.58313357  0.18936385  0.83225122  1
  N  N47  1  0.44553866  0.09525435  0.58016012  1
  N  N48  1  0.21747682  0.54781237  0.37255313  1
  N  N49  1  0.10922897  0.42361984  0.07958796  1
  N  N50  1  0.87744740  0.56304807  0.83246930  1
  N  N51  1  0.77773712  0.42846468  0.57976410  1
  N  N52  1  0.55684176  0.53831567  0.32443230  1
  N  N53  1  0.45228090  0.42136165  0.07849601  1
  N  N54  1  0.22645231  0.53519036  0.87209278  1
  N  N55  1  0.10536340  0.42765821  0.57973143  1
  N  N56  1  0.88525591  0.54212882  0.32281030  1
  N  N57  1  0.78092304  0.42473216  0.07636303  1
  N  N58  1  0.56325014  0.52926753  0.83197349  1
  N  N59  1  0.44923253  0.42549146  0.57979962  1
  N  N60  1  0.22116632  0.86972101  0.38228213  1
  N  N61  1  0.12878332  0.77291942  0.11393138  1
  N  N62  1  0.86406185  0.88354173  0.84457693  1
  N  N63  1  0.77819453  0.76421063  0.57268809  1
  N  N64  1  0.55834490  0.87492336  0.31936271  1
  N  N65  1  0.41884712  0.77411737  0.10982658  1
  N  N66  1  0.22832209  0.85993830  0.89625690  1
  N  N67  1  0.10947800  0.76548452  0.63889092  1
  N  N68  1  0.88292880  0.87545639  0.30991957  1
  N  N69  1  0.77798315  0.76006511  0.05463136  1
  N  N70  1  0.58499896  0.86140857  0.83922888  1
  N  N71  1  0.43823857  0.76877770  0.63574054  1
