# generated using pymatgen
data_Al11BN12
_symmetry_space_group_name_H-M   'P 1'
_cell_length_a   9.28549361
_cell_length_b   9.33110963
_cell_length_c   10.08257871
_cell_angle_alpha   90.01828516
_cell_angle_beta   90.06473747
_cell_angle_gamma   60.05684025
_symmetry_Int_Tables_number   1
_chemical_formula_structural   Al11BN12
_chemical_formula_sum   'Al33 B3 N36'
_cell_volume   756.98749820
_cell_formula_units_Z   3
loop_
 _symmetry_equiv_pos_site_id
 _symmetry_equiv_pos_as_xyz
  1  'x, y, z'
loop_
 _atom_site_type_symbol
 _atom_site_label
 _atom_site_symmetry_multiplicity
 _atom_site_fract_x
 _atom_site_fract_y
 _atom_site_fract_z
 _atom_site_occupancy
  Al  Al0  1  0.11356107  0.08830890  0.31686723  1
  Al  Al1  1  0.21794135  0.20371962  0.06858018  1
  Al  Al2  1  0.89636242  0.20512509  0.57046366  1
  Al  Al3  1  0.44132670  0.09383155  0.31821712  1
  Al  Al4  1  0.55826456  0.20769709  0.13255067  1
  Al  Al5  1  0.10775543  0.08921390  0.82605705  1
  Al  Al6  1  0.22900045  0.20075348  0.57214989  1
  Al  Al7  1  0.77834781  0.08711469  0.38911740  1
  Al  Al8  1  0.89294648  0.20335336  0.06558305  1
  Al  Al9  1  0.44876481  0.09730066  0.83552217  1
  Al  Al10  1  0.56963295  0.20206922  0.64350004  1
  Al  Al11  1  0.10990744  0.42790910  0.32164188  1
  Al  Al12  1  0.22154641  0.54189497  0.07115101  1
  Al  Al13  1  0.77915354  0.41818397  0.81935420  1
  Al  Al14  1  0.89382947  0.53117459  0.57505388  1
  Al  Al15  1  0.44168459  0.43378515  0.32442725  1
  Al  Al16  1  0.55045341  0.54266690  0.07120882  1
  Al  Al17  1  0.11107862  0.42358244  0.81901840  1
  Al  Al18  1  0.21979862  0.54288336  0.57567089  1
  Al  Al19  1  0.77947559  0.42721561  0.31966639  1
  Al  Al20  1  0.88953936  0.53606341  0.05546498  1
  Al  Al21  1  0.44555805  0.43256696  0.82656461  1
  Al  Al22  1  0.55496253  0.54159310  0.57352070  1
  Al  Al23  1  0.11795011  0.76085490  0.31508584  1
  Al  Al24  1  0.87896583  0.87742669  0.65364391  1
  Al  Al25  1  0.43699360  0.75892592  0.31721802  1
  Al  Al26  1  0.55285077  0.87046774  0.12538068  1
  Al  Al27  1  0.10834116  0.76231022  0.84074997  1
  Al  Al28  1  0.22224312  0.87076089  0.57800573  1
  Al  Al29  1  0.77716470  0.76469916  0.38931646  1
  Al  Al30  1  0.88781372  0.87901054  0.12627051  1
  Al  Al31  1  0.44700512  0.75837497  0.83758824  1
  Al  Al32  1  0.56869748  0.86540229  0.64797649  1
  B  B33  1  0.76683514  0.10001459  0.90220654  1
  B  B34  1  0.22264001  0.87009196  0.06683831  1
  B  B35  1  0.75094535  0.81779394  0.90806510  1
  N  N36  1  0.22387546  0.20210750  0.38065416  1
  N  N37  1  0.12041377  0.07038493  0.12447198  1
  N  N38  1  0.87856623  0.18897980  0.87476457  1
  N  N39  1  0.78210996  0.08653531  0.57757401  1
  N  N40  1  0.56192983  0.20301521  0.32939546  1
  N  N41  1  0.43728338  0.09948738  0.12039143  1
  N  N42  1  0.22373656  0.20023831  0.88153991  1
  N  N43  1  0.11495501  0.09183643  0.63611440  1
  N  N44  1  0.89404883  0.20553989  0.37703417  1
  N  N45  1  0.76940937  0.09453343  0.06159804  1
  N  N46  1  0.58428893  0.19701710  0.84271043  1
  N  N47  1  0.44568963  0.09497394  0.63736360  1
  N  N48  1  0.21908921  0.54317905  0.38367011  1
  N  N49  1  0.10718290  0.43124059  0.13197114  1
  N  N50  1  0.89684593  0.51727175  0.87401400  1
  N  N51  1  0.77729149  0.42452532  0.63041043  1
  N  N52  1  0.55535265  0.54126589  0.38302555  1
  N  N53  1  0.43921284  0.43700111  0.13260699  1
  N  N54  1  0.22223893  0.53486788  0.88430764  1
  N  N55  1  0.11629673  0.42362892  0.63019582  1
  N  N56  1  0.89218050  0.53237511  0.38267811  1
  N  N57  1  0.77667028  0.42954153  0.13004433  1
  N  N58  1  0.55885999  0.53708377  0.88547470  1
  N  N59  1  0.44278960  0.43283696  0.63399258  1
  N  N60  1  0.22163445  0.87102693  0.38825845  1
  N  N61  1  0.12639574  0.77289678  0.11945818  1
  N  N62  1  0.85733396  0.89042532  0.84969213  1
  N  N63  1  0.77970656  0.76492311  0.57920387  1
  N  N64  1  0.56332437  0.86302646  0.32122901  1
  N  N65  1  0.41519192  0.77198651  0.12121775  1
  N  N66  1  0.22299515  0.87202208  0.90500969  1
  N  N67  1  0.11247806  0.76175697  0.64743461  1
  N  N68  1  0.88435769  0.87268193  0.31681972  1
  N  N69  1  0.77240079  0.77472738  0.05594329  1
  N  N70  1  0.58428360  0.86302117  0.84775360  1
  N  N71  1  0.44299415  0.75999718  0.64360452  1
