# generated using pymatgen
data_Al11BN12
_symmetry_space_group_name_H-M   'P 1'
_cell_length_a   9.27333404
_cell_length_b   9.26597682
_cell_length_c   9.94055313
_cell_angle_alpha   89.74703579
_cell_angle_beta   89.78070384
_cell_angle_gamma   60.05436439
_symmetry_Int_Tables_number   1
_chemical_formula_structural   Al11BN12
_chemical_formula_sum   'Al33 B3 N36'
_cell_volume   740.11797515
_cell_formula_units_Z   3
loop_
 _symmetry_equiv_pos_site_id
 _symmetry_equiv_pos_as_xyz
  1  'x, y, z'
loop_
 _atom_site_type_symbol
 _atom_site_label
 _atom_site_symmetry_multiplicity
 _atom_site_fract_x
 _atom_site_fract_y
 _atom_site_fract_z
 _atom_site_occupancy
  Al  Al0  1  0.10965552  0.09531212  0.39906571  1
  Al  Al1  1  0.22385286  0.19807255  0.14857732  1
  Al  Al2  1  0.88676108  0.20208786  0.65257979  1
  Al  Al3  1  0.44529874  0.09328729  0.39844193  1
  Al  Al4  1  0.55781216  0.20317958  0.14463942  1
  Al  Al5  1  0.11039342  0.08756980  0.89701473  1
  Al  Al6  1  0.22091346  0.20663114  0.64954058  1
  Al  Al7  1  0.77942897  0.09230204  0.39487275  1
  Al  Al8  1  0.89159194  0.19746267  0.14116068  1
  Al  Al9  1  0.45456367  0.08951767  0.89866996  1
  Al  Al10  1  0.56120586  0.20270572  0.65075933  1
  Al  Al11  1  0.10972888  0.42974297  0.39656746  1
  Al  Al12  1  0.22639507  0.53913793  0.14144488  1
  Al  Al13  1  0.77713449  0.42838592  0.89781790  1
  Al  Al14  1  0.88700546  0.54524921  0.65073738  1
  Al  Al15  1  0.44499928  0.42747592  0.39756711  1
  Al  Al16  1  0.55037731  0.54235367  0.14903757  1
  Al  Al17  1  0.10725820  0.43208070  0.89944927  1
  Al  Al18  1  0.22305765  0.53677699  0.64930630  1
  Al  Al19  1  0.77945263  0.42677015  0.39723565  1
  Al  Al20  1  0.88684635  0.54121204  0.14267236  1
  Al  Al21  1  0.45340508  0.42117571  0.89912280  1
  Al  Al22  1  0.55687596  0.53863856  0.64861758  1
  Al  Al23  1  0.11055093  0.76657277  0.36022249  1
  Al  Al24  1  0.87978177  0.87654493  0.65623562  1
  Al  Al25  1  0.44536359  0.76221401  0.39918534  1
  Al  Al26  1  0.54995349  0.87330279  0.14351940  1
  Al  Al27  1  0.10770554  0.76498077  0.86944495  1
  Al  Al28  1  0.22307317  0.87330984  0.63958752  1
  Al  Al29  1  0.77854346  0.76321300  0.39422513  1
  Al  Al30  1  0.88918870  0.87510565  0.12521682  1
  Al  Al31  1  0.44696671  0.76063695  0.89717927  1
  Al  Al32  1  0.56163717  0.86911622  0.65284830  1
  B  B33  1  0.77058159  0.09392348  0.90401218  1
  B  B34  1  0.22258473  0.87029827  0.11617541  1
  B  B35  1  0.77053749  0.76871076  0.90443267  1
  N  N36  1  0.22209679  0.20627060  0.33911545  1
  N  N37  1  0.12583586  0.06413027  0.09104229  1
  N  N38  1  0.87831580  0.19023387  0.84694690  1
  N  N39  1  0.77865836  0.09271310  0.58466581  1
  N  N40  1  0.55695874  0.20467037  0.33600588  1
  N  N41  1  0.44385778  0.09497965  0.08757750  1
  N  N42  1  0.22180171  0.20508535  0.84186828  1
  N  N43  1  0.10700806  0.09993735  0.59109079  1
  N  N44  1  0.88859074  0.20488441  0.33282494  1
  N  N45  1  0.77416604  0.09713547  0.06534140  1
  N  N46  1  0.58167214  0.19208812  0.84480846  1
  N  N47  1  0.44585887  0.09355816  0.59299835  1
  N  N48  1  0.22340954  0.53801040  0.33431772  1
  N  N49  1  0.11120653  0.42586803  0.08920567  1
  N  N50  1  0.87775222  0.56496953  0.84471338  1
  N  N51  1  0.78088213  0.42623402  0.59167647  1
  N  N52  1  0.55640915  0.53943859  0.33915330  1
  N  N53  1  0.44802677  0.42528505  0.08810639  1
  N  N54  1  0.22913496  0.53145359  0.84253050  1
  N  N55  1  0.10977530  0.42884207  0.58894131  1
  N  N56  1  0.88770157  0.54141366  0.33449101  1
  N  N57  1  0.77737059  0.42695995  0.08787887  1
  N  N58  1  0.55689147  0.53870877  0.83944729  1
  N  N59  1  0.44591579  0.42592784  0.58968264  1
  N  N60  1  0.22496029  0.87495095  0.35331705  1
  N  N61  1  0.12710952  0.77407034  0.09531336  1
  N  N62  1  0.86359134  0.88431842  0.85458522  1
  N  N63  1  0.77779028  0.76369110  0.58421753  1
  N  N64  1  0.55724229  0.87175550  0.33401215  1
  N  N65  1  0.41661356  0.77410673  0.09094739  1
  N  N66  1  0.22927863  0.87268798  0.83226309  1
  N  N67  1  0.10455948  0.76280435  0.61775379  1
  N  N68  1  0.88408480  0.87527501  0.32117181  1
  N  N69  1  0.77391824  0.76138193  0.06682709  1
  N  N70  1  0.58066217  0.85905807  0.84784528  1
  N  N71  1  0.45013496  0.76043800  0.59111173  1
