# generated using pymatgen
data_Al11BN12
_symmetry_space_group_name_H-M   'P 1'
_cell_length_a   9.27323375
_cell_length_b   9.25382052
_cell_length_c   10.07397795
_cell_angle_alpha   90.18532276
_cell_angle_beta   89.72655713
_cell_angle_gamma   60.06174540
_symmetry_Int_Tables_number   1
_chemical_formula_structural   Al11BN12
_chemical_formula_sum   'Al33 B3 N36'
_cell_volume   749.09985978
_cell_formula_units_Z   3
loop_
 _symmetry_equiv_pos_site_id
 _symmetry_equiv_pos_as_xyz
  1  'x, y, z'
loop_
 _atom_site_type_symbol
 _atom_site_label
 _atom_site_symmetry_multiplicity
 _atom_site_fract_x
 _atom_site_fract_y
 _atom_site_fract_z
 _atom_site_occupancy
  Al  Al0  1  0.11461448  0.08894212  0.30707866  1
  Al  Al1  1  0.22200019  0.20272975  0.06008509  1
  Al  Al2  1  0.89094809  0.20164887  0.55858870  1
  Al  Al3  1  0.44310005  0.09449694  0.30890247  1
  Al  Al4  1  0.55955829  0.20516255  0.06576752  1
  Al  Al5  1  0.10895470  0.08783100  0.81708687  1
  Al  Al6  1  0.22168674  0.20358663  0.56229378  1
  Al  Al7  1  0.77716693  0.09568695  0.33002558  1
  Al  Al8  1  0.89152453  0.19756477  0.06350312  1
  Al  Al9  1  0.45527780  0.08848680  0.81100456  1
  Al  Al10  1  0.55480994  0.20467881  0.55738606  1
  Al  Al11  1  0.11128090  0.42771978  0.31215452  1
  Al  Al12  1  0.22571859  0.54208910  0.06089065  1
  Al  Al13  1  0.77569426  0.42754031  0.81114505  1
  Al  Al14  1  0.89153739  0.53177325  0.56536415  1
  Al  Al15  1  0.44421098  0.42814055  0.31089877  1
  Al  Al16  1  0.55154284  0.54304505  0.06076700  1
  Al  Al17  1  0.10789501  0.43283668  0.81033631  1
  Al  Al18  1  0.21944590  0.54274421  0.56505937  1
  Al  Al19  1  0.77996866  0.42779628  0.30777153  1
  Al  Al20  1  0.89259259  0.53787968  0.05582851  1
  Al  Al21  1  0.45266998  0.42206788  0.81031172  1
  Al  Al22  1  0.55577657  0.53808852  0.56124290  1
  Al  Al23  1  0.12206205  0.75835006  0.30733178  1
  Al  Al24  1  0.87483377  0.87882950  0.64194792  1
  Al  Al25  1  0.44054926  0.76327194  0.30818111  1
  Al  Al26  1  0.54461921  0.87789784  0.06013745  1
  Al  Al27  1  0.11252165  0.76295974  0.82872478  1
  Al  Al28  1  0.21739571  0.87130010  0.56607174  1
  Al  Al29  1  0.78336321  0.76314456  0.38375331  1
  Al  Al30  1  0.89108707  0.87570605  0.12387726  1
  Al  Al31  1  0.45008947  0.75945723  0.81612186  1
  Al  Al32  1  0.54751654  0.87454656  0.56339998  1
  B  B33  1  0.77343983  0.08905121  0.85401479  1
  B  B34  1  0.22467452  0.87177757  0.05814324  1
  B  B35  1  0.76902602  0.77772420  0.89774648  1
  N  N36  1  0.22176410  0.20375631  0.37065971  1
  N  N37  1  0.12396335  0.07013356  0.11320870  1
  N  N38  1  0.87456147  0.18420711  0.86989694  1
  N  N39  1  0.77862241  0.08991836  0.58198613  1
  N  N40  1  0.54773212  0.20881976  0.36882705  1
  N  N41  1  0.44265325  0.09756077  0.11928701  1
  N  N42  1  0.22151737  0.20560318  0.87112087  1
  N  N43  1  0.11041570  0.09313644  0.62769533  1
  N  N44  1  0.89474910  0.20746816  0.36745579  1
  N  N45  1  0.77241973  0.10519693  0.12992421  1
  N  N46  1  0.58352844  0.19032262  0.87098100  1
  N  N47  1  0.44321192  0.09544371  0.62383072  1
  N  N48  1  0.22190918  0.54088750  0.37339894  1
  N  N49  1  0.11127990  0.43018318  0.12169331  1
  N  N50  1  0.88040714  0.55786490  0.86576581  1
  N  N51  1  0.77757454  0.42418662  0.62359748  1
  N  N52  1  0.55621365  0.54000905  0.36961113  1
  N  N53  1  0.44479742  0.42878081  0.12150188  1
  N  N54  1  0.22741855  0.53396779  0.87372877  1
  N  N55  1  0.11234023  0.42635020  0.62232668  1
  N  N56  1  0.89243825  0.53171571  0.37186581  1
  N  N57  1  0.77951343  0.42952380  0.11657258  1
  N  N58  1  0.55669635  0.53760057  0.87309294  1
  N  N59  1  0.44410752  0.42684005  0.62221425  1
  N  N60  1  0.22212837  0.87173389  0.37751342  1
  N  N61  1  0.13076127  0.77289333  0.11042691  1
  N  N62  1  0.86041199  0.89327311  0.84309596  1
  N  N63  1  0.77819721  0.76277825  0.57524871  1
  N  N64  1  0.55008046  0.87389188  0.36805420  1
  N  N65  1  0.42130890  0.77398736  0.11516526  1
  N  N66  1  0.22813401  0.87112659  0.89442617  1
  N  N67  1  0.11098396  0.76098401  0.63731673  1
  N  N68  1  0.89281491  0.86204304  0.31386346  1
  N  N69  1  0.77989489  0.77112355  0.05609824  1
  N  N70  1  0.57408276  0.86402943  0.86952720  1
  N  N71  1  0.44088070  0.76095167  0.62676415  1
