# generated using pymatgen
data_Al11BN12
_symmetry_space_group_name_H-M   'P 1'
_cell_length_a   9.30069092
_cell_length_b   9.28289004
_cell_length_c   9.95080365
_cell_angle_alpha   89.70744777
_cell_angle_beta   89.66362909
_cell_angle_gamma   60.01168946
_symmetry_Int_Tables_number   1
_chemical_formula_structural   Al11BN12
_chemical_formula_sum   'Al33 B3 N36'
_cell_volume   744.09690972
_cell_formula_units_Z   3
loop_
 _symmetry_equiv_pos_site_id
 _symmetry_equiv_pos_as_xyz
  1  'x, y, z'
loop_
 _atom_site_type_symbol
 _atom_site_label
 _atom_site_symmetry_multiplicity
 _atom_site_fract_x
 _atom_site_fract_y
 _atom_site_fract_z
 _atom_site_occupancy
  Al  Al0  1  0.10789211  0.09604911  0.40195382  1
  Al  Al1  1  0.22455496  0.19695040  0.14746402  1
  Al  Al2  1  0.88549173  0.20331981  0.65276574  1
  Al  Al3  1  0.44540229  0.09211501  0.39748088  1
  Al  Al4  1  0.55910121  0.20169743  0.14479954  1
  Al  Al5  1  0.11077382  0.08717413  0.89235268  1
  Al  Al6  1  0.22084715  0.20768696  0.64984697  1
  Al  Al7  1  0.78174682  0.08916919  0.39359948  1
  Al  Al8  1  0.89159118  0.19751524  0.13930371  1
  Al  Al9  1  0.45436726  0.09059249  0.89772409  1
  Al  Al10  1  0.56037866  0.20334427  0.64965390  1
  Al  Al11  1  0.10788053  0.42687503  0.39039212  1
  Al  Al12  1  0.22580702  0.54155566  0.09971417  1
  Al  Al13  1  0.77729389  0.42870766  0.89710023  1
  Al  Al14  1  0.88574912  0.54536479  0.64947510  1
  Al  Al15  1  0.44869255  0.42473305  0.39202369  1
  Al  Al16  1  0.55131012  0.54264940  0.14841372  1
  Al  Al17  1  0.10464986  0.43260967  0.89865535  1
  Al  Al18  1  0.21862580  0.54283443  0.59902902  1
  Al  Al19  1  0.77919925  0.42592807  0.39656617  1
  Al  Al20  1  0.88563093  0.54108258  0.14242375  1
  Al  Al21  1  0.45702873  0.42009591  0.89909127  1
  Al  Al22  1  0.55754603  0.53823312  0.64899066  1
  Al  Al23  1  0.11728698  0.76567604  0.32440622  1
  Al  Al24  1  0.87417416  0.87910294  0.65546745  1
  Al  Al25  1  0.44711403  0.76045052  0.40200429  1
  Al  Al26  1  0.54994798  0.87361231  0.14198657  1
  Al  Al27  1  0.10952167  0.76220769  0.83634208  1
  Al  Al28  1  0.22257002  0.87381074  0.62256268  1
  Al  Al29  1  0.77903419  0.76282394  0.39255610  1
  Al  Al30  1  0.88627429  0.87676559  0.12370300  1
  Al  Al31  1  0.44606139  0.76169410  0.89271959  1
  Al  Al32  1  0.56192091  0.86951515  0.65281532  1
  B  B33  1  0.77130161  0.09274405  0.90298031  1
  B  B34  1  0.22386439  0.87202424  0.10410117  1
  B  B35  1  0.77029997  0.77008695  0.90351126  1
  N  N36  1  0.22275171  0.20221372  0.33753015  1
  N  N37  1  0.12705767  0.06308719  0.08878022  1
  N  N38  1  0.87781448  0.19084487  0.84656252  1
  N  N39  1  0.77862660  0.09309234  0.58360305  1
  N  N40  1  0.55907181  0.20135874  0.33542994  1
  N  N41  1  0.44430850  0.09518767  0.08662277  1
  N  N42  1  0.22222765  0.20664963  0.84136523  1
  N  N43  1  0.10387818  0.10553236  0.59360012  1
  N  N44  1  0.88928552  0.20360981  0.33124928  1
  N  N45  1  0.77464186  0.09703198  0.06407302  1
  N  N46  1  0.58157068  0.19243413  0.84343153  1
  N  N47  1  0.44553346  0.09393840  0.59206376  1
  N  N48  1  0.22237746  0.53886940  0.35437902  1
  N  N49  1  0.10827890  0.42296592  0.09105244  1
  N  N50  1  0.87714020  0.56557159  0.84296727  1
  N  N51  1  0.78002500  0.42626538  0.59064972  1
  N  N52  1  0.55706363  0.53991248  0.33769433  1
  N  N53  1  0.45453864  0.42209375  0.09051913  1
  N  N54  1  0.22636249  0.53889035  0.88078020  1
  N  N55  1  0.10658358  0.42731507  0.58633872  1
  N  N56  1  0.88568301  0.54109481  0.33336126  1
  N  N57  1  0.77734111  0.42715706  0.08675669  1
  N  N58  1  0.55791880  0.53846092  0.83905928  1
  N  N59  1  0.44837099  0.42540097  0.58806017  1
  N  N60  1  0.22096495  0.87017329  0.38948501  1
  N  N61  1  0.12956402  0.77866778  0.12054080  1
  N  N62  1  0.86254701  0.88619400  0.85468995  1
  N  N63  1  0.77755127  0.76387502  0.58266478  1
  N  N64  1  0.55647991  0.87057295  0.33261840  1
  N  N65  1  0.41557386  0.77525205  0.08888808  1
  N  N66  1  0.23037122  0.87389571  0.82904678  1
  N  N67  1  0.10250854  0.76117372  0.64018974  1
  N  N68  1  0.88372803  0.87397565  0.31934471  1
  N  N69  1  0.77424295  0.76104867  0.06561594  1
  N  N70  1  0.58099428  0.86003820  0.84741460  1
  N  N71  1  0.45511594  0.75816217  0.59341160  1
