# generated using pymatgen
data_Al11BN12
_symmetry_space_group_name_H-M   'P 1'
_cell_length_a   9.29974857
_cell_length_b   9.27255690
_cell_length_c   10.06979107
_cell_angle_alpha   90.11482953
_cell_angle_beta   90.16693446
_cell_angle_gamma   59.99275964
_symmetry_Int_Tables_number   1
_chemical_formula_structural   Al11BN12
_chemical_formula_sum   'Al33 B3 N36'
_cell_volume   751.94865297
_cell_formula_units_Z   3
loop_
 _symmetry_equiv_pos_site_id
 _symmetry_equiv_pos_as_xyz
  1  'x, y, z'
loop_
 _atom_site_type_symbol
 _atom_site_label
 _atom_site_symmetry_multiplicity
 _atom_site_fract_x
 _atom_site_fract_y
 _atom_site_fract_z
 _atom_site_occupancy
  Al  Al0  1  0.11242981  0.08907856  0.31384477  1
  Al  Al1  1  0.21677273  0.20630243  0.06974390  1
  Al  Al2  1  0.88902681  0.20096119  0.61312830  1
  Al  Al3  1  0.45239882  0.08735258  0.38966254  1
  Al  Al4  1  0.55933645  0.20133782  0.13885361  1
  Al  Al5  1  0.11358295  0.08873172  0.83079926  1
  Al  Al6  1  0.21731527  0.20452137  0.57197716  1
  Al  Al7  1  0.78245875  0.08902193  0.38919981  1
  Al  Al8  1  0.89214907  0.20225851  0.06856639  1
  Al  Al9  1  0.46000374  0.08939647  0.89142441  1
  Al  Al10  1  0.56378975  0.19539692  0.64218721  1
  Al  Al11  1  0.11090546  0.42646762  0.32041067  1
  Al  Al12  1  0.22498953  0.54210186  0.07091053  1
  Al  Al13  1  0.77446765  0.43518764  0.82534086  1
  Al  Al14  1  0.89191912  0.53099956  0.56973553  1
  Al  Al15  1  0.44250809  0.43175683  0.32469482  1
  Al  Al16  1  0.54855061  0.54505328  0.07121001  1
  Al  Al17  1  0.10703447  0.43444647  0.81902583  1
  Al  Al18  1  0.22006739  0.54187272  0.57398528  1
  Al  Al19  1  0.77928173  0.42517114  0.31567867  1
  Al  Al20  1  0.88895714  0.54212191  0.06363603  1
  Al  Al21  1  0.44781798  0.42886273  0.82425244  1
  Al  Al22  1  0.55456310  0.54004139  0.57251069  1
  Al  Al23  1  0.11738927  0.76142836  0.31398984  1
  Al  Al24  1  0.87992639  0.87254996  0.65339504  1
  Al  Al25  1  0.43629320  0.76052775  0.31795052  1
  Al  Al26  1  0.55151459  0.87726175  0.13260250  1
  Al  Al27  1  0.10974749  0.76403450  0.83934890  1
  Al  Al28  1  0.22120992  0.86986926  0.57583467  1
  Al  Al29  1  0.77756654  0.76502102  0.38660270  1
  Al  Al30  1  0.88726174  0.87864839  0.12380842  1
  Al  Al31  1  0.44533713  0.75994970  0.83305341  1
  Al  Al32  1  0.56563497  0.86829595  0.64661883  1
  B  B33  1  0.76711750  0.09043557  0.89822913  1
  B  B34  1  0.22494189  0.87101336  0.06679003  1
  B  B35  1  0.76869035  0.77814176  0.90080419  1
  N  N36  1  0.21906927  0.20366824  0.37832149  1
  N  N37  1  0.12384571  0.06990402  0.11993809  1
  N  N38  1  0.87953122  0.19448932  0.86622913  1
  N  N39  1  0.78024903  0.08559461  0.57918296  1
  N  N40  1  0.56115810  0.19781521  0.32999758  1
  N  N41  1  0.44646687  0.09691763  0.07948072  1
  N  N42  1  0.21803526  0.21028750  0.87848971  1
  N  N43  1  0.11608200  0.08900114  0.64069261  1
  N  N44  1  0.89120227  0.20306166  0.35682452  1
  N  N45  1  0.76853005  0.09538950  0.05694951  1
  N  N46  1  0.58404089  0.18999865  0.83586637  1
  N  N47  1  0.45103248  0.08777109  0.58328747  1
  N  N48  1  0.21969383  0.54185800  0.38278382  1
  N  N49  1  0.10872941  0.43216424  0.13074045  1
  N  N50  1  0.88095562  0.56123750  0.87402020  1
  N  N51  1  0.77540731  0.42977470  0.63605275  1
  N  N52  1  0.55660643  0.54022645  0.38219956  1
  N  N53  1  0.44216581  0.43400730  0.13347113  1
  N  N54  1  0.22556673  0.53569940  0.88390143  1
  N  N55  1  0.11194684  0.42648321  0.63072053  1
  N  N56  1  0.89145008  0.53178440  0.37847596  1
  N  N57  1  0.77656101  0.43248127  0.12346932  1
  N  N58  1  0.55586923  0.53884674  0.88540130  1
  N  N59  1  0.44314000  0.42910519  0.63220600  1
  N  N60  1  0.22113209  0.87164028  0.38723173  1
  N  N61  1  0.12709130  0.77367662  0.11889980  1
  N  N62  1  0.86299873  0.88534706  0.84856979  1
  N  N63  1  0.77813820  0.76408766  0.57687341  1
  N  N64  1  0.55981083  0.86958419  0.32286482  1
  N  N65  1  0.41592145  0.77410744  0.12313319  1
  N  N66  1  0.22572292  0.87155012  0.90498373  1
  N  N67  1  0.11292042  0.76051107  0.64541389  1
  N  N68  1  0.88484605  0.87230022  0.31579389  1
  N  N69  1  0.76909344  0.77529875  0.06045547  1
  N  N70  1  0.58389821  0.86108791  0.84027590  1
  N  N71  1  0.44094200  0.75969497  0.64024667  1
