# generated using pymatgen
data_Al11BN12
_symmetry_space_group_name_H-M   'P 1'
_cell_length_a   9.30591471
_cell_length_b   9.28412987
_cell_length_c   10.09734113
_cell_angle_alpha   89.81639743
_cell_angle_beta   90.01379113
_cell_angle_gamma   59.97615977
_symmetry_Int_Tables_number   1
_chemical_formula_structural   Al11BN12
_chemical_formula_sum   'Al33 B3 N36'
_cell_volume   755.31887810
_cell_formula_units_Z   3
loop_
 _symmetry_equiv_pos_site_id
 _symmetry_equiv_pos_as_xyz
  1  'x, y, z'
loop_
 _atom_site_type_symbol
 _atom_site_label
 _atom_site_symmetry_multiplicity
 _atom_site_fract_x
 _atom_site_fract_y
 _atom_site_fract_z
 _atom_site_occupancy
  Al  Al0  1  0.11460834  0.08331330  0.31622540  1
  Al  Al1  1  0.22693189  0.20215861  0.12720875  1
  Al  Al2  1  0.88615969  0.19431871  0.64790014  1
  Al  Al3  1  0.44518207  0.09031102  0.38932012  1
  Al  Al4  1  0.55990272  0.20142883  0.13657657  1
  Al  Al5  1  0.11012495  0.08840198  0.85171281  1
  Al  Al6  1  0.22944206  0.19770289  0.64536683  1
  Al  Al7  1  0.78161599  0.08840033  0.38648525  1
  Al  Al8  1  0.88704748  0.20147090  0.11923248  1
  Al  Al9  1  0.45793897  0.09134193  0.89139657  1
  Al  Al10  1  0.56474705  0.19564897  0.63955477  1
  Al  Al11  1  0.10811605  0.43266292  0.31860794  1
  Al  Al12  1  0.22487461  0.54412794  0.06909219  1
  Al  Al13  1  0.77276311  0.43598644  0.82553171  1
  Al  Al14  1  0.89410206  0.52718216  0.57055969  1
  Al  Al15  1  0.44270016  0.43038314  0.32364929  1
  Al  Al16  1  0.54745607  0.54659946  0.06976627  1
  Al  Al17  1  0.10511140  0.44068664  0.82151328  1
  Al  Al18  1  0.22043150  0.54162915  0.57273120  1
  Al  Al19  1  0.77527756  0.43145471  0.31519701  1
  Al  Al20  1  0.88766506  0.54378831  0.06006659  1
  Al  Al21  1  0.44804125  0.42874449  0.82255611  1
  Al  Al22  1  0.55600447  0.53911196  0.57265308  1
  Al  Al23  1  0.11683668  0.76056934  0.31222832  1
  Al  Al24  1  0.88056522  0.87184937  0.65055476  1
  Al  Al25  1  0.43683578  0.75982124  0.31694042  1
  Al  Al26  1  0.55247220  0.87690146  0.13158041  1
  Al  Al27  1  0.10982473  0.76380300  0.83550696  1
  Al  Al28  1  0.22070515  0.87148966  0.57609925  1
  Al  Al29  1  0.77709817  0.76450261  0.38636617  1
  Al  Al30  1  0.88725425  0.87938740  0.11996515  1
  Al  Al31  1  0.44601164  0.76021186  0.83073661  1
  Al  Al32  1  0.56713183  0.86745908  0.64468037  1
  B  B33  1  0.76832456  0.09901699  0.89568637  1
  B  B34  1  0.22532971  0.86935533  0.06467732  1
  B  B35  1  0.76669465  0.78404435  0.89860982  1
  N  N36  1  0.22798565  0.19949700  0.32462098  1
  N  N37  1  0.12416716  0.06889992  0.10838446  1
  N  N38  1  0.87269154  0.18925000  0.84443141  1
  N  N39  1  0.78202810  0.08718423  0.57442851  1
  N  N40  1  0.56023443  0.19650610  0.32879188  1
  N  N41  1  0.44615215  0.09782954  0.07582810  1
  N  N42  1  0.23004268  0.20383754  0.84156050  1
  N  N43  1  0.11306859  0.08661943  0.63823895  1
  N  N44  1  0.88527394  0.19852309  0.31684594  1
  N  N45  1  0.77094075  0.10000006  0.05430605  1
  N  N46  1  0.58370394  0.19046028  0.83413511  1
  N  N47  1  0.44760304  0.08984719  0.58038904  1
  N  N48  1  0.22006347  0.54162291  0.38220565  1
  N  N49  1  0.10465795  0.44083131  0.12712779  1
  N  N50  1  0.88092613  0.55792170  0.87292066  1
  N  N51  1  0.77624545  0.42758099  0.63511692  1
  N  N52  1  0.55596445  0.53933112  0.38256373  1
  N  N53  1  0.44201690  0.43437552  0.13295110  1
  N  N54  1  0.22659250  0.53701312  0.88335775  1
  N  N55  1  0.11157228  0.43010299  0.63115257  1
  N  N56  1  0.89227198  0.52917931  0.38034272  1
  N  N57  1  0.77230451  0.44078651  0.12382698  1
  N  N58  1  0.55501301  0.53929534  0.88461147  1
  N  N59  1  0.44321684  0.42915438  0.63106191  1
  N  N60  1  0.22118236  0.86969464  0.38679798  1
  N  N61  1  0.12726912  0.77441085  0.11869880  1
  N  N62  1  0.86381746  0.88299830  0.84601212  1
  N  N63  1  0.77916189  0.76290295  0.57533243  1
  N  N64  1  0.55961934  0.86949011  0.32249137  1
  N  N65  1  0.41565612  0.77476106  0.12294305  1
  N  N66  1  0.22833845  0.86576202  0.90451152  1
  N  N67  1  0.11344985  0.75984545  0.64305848  1
  N  N68  1  0.88433251  0.87115575  0.31340160  1
  N  N69  1  0.76813909  0.77786113  0.05726387  1
  N  N70  1  0.58379161  0.86275401  0.83810586  1
  N  N71  1  0.44203384  0.75955256  0.63868267  1
