# generated using pymatgen
data_Al11BN12
_symmetry_space_group_name_H-M   'P 1'
_cell_length_a   9.29035888
_cell_length_b   9.27207022
_cell_length_c   10.01339806
_cell_angle_alpha   89.71025826
_cell_angle_beta   89.61517716
_cell_angle_gamma   60.00730453
_symmetry_Int_Tables_number   1
_chemical_formula_structural   Al11BN12
_chemical_formula_sum   'Al33 B3 N36'
_cell_volume   747.03791656
_cell_formula_units_Z   3
loop_
 _symmetry_equiv_pos_site_id
 _symmetry_equiv_pos_as_xyz
  1  'x, y, z'
loop_
 _atom_site_type_symbol
 _atom_site_label
 _atom_site_symmetry_multiplicity
 _atom_site_fract_x
 _atom_site_fract_y
 _atom_site_fract_z
 _atom_site_occupancy
  Al  Al0  1  0.10639096  0.09959897  0.39937250  1
  Al  Al1  1  0.22406766  0.19824427  0.14720374  1
  Al  Al2  1  0.88508591  0.20323420  0.65269710  1
  Al  Al3  1  0.44573559  0.09292345  0.39794879  1
  Al  Al4  1  0.55849346  0.20272900  0.14419323  1
  Al  Al5  1  0.10762155  0.09064311  0.89554174  1
  Al  Al6  1  0.22091469  0.20717217  0.65006478  1
  Al  Al7  1  0.78196906  0.08867062  0.39365662  1
  Al  Al8  1  0.89204011  0.19771740  0.13967437  1
  Al  Al9  1  0.45435922  0.08969804  0.89837319  1
  Al  Al10  1  0.55999678  0.20338705  0.65005350  1
  Al  Al11  1  0.10603417  0.42673647  0.39233876  1
  Al  Al12  1  0.22406174  0.54573737  0.07979261  1
  Al  Al13  1  0.77741222  0.42817024  0.89773372  1
  Al  Al14  1  0.88565506  0.54471799  0.65007834  1
  Al  Al15  1  0.45164038  0.42331891  0.39468801  1
  Al  Al16  1  0.55092516  0.54321420  0.14849010  1
  Al  Al17  1  0.10388606  0.43081039  0.89697212  1
  Al  Al18  1  0.21571584  0.54731276  0.57928474  1
  Al  Al19  1  0.77881823  0.42658163  0.39709862  1
  Al  Al20  1  0.88590851  0.54151552  0.14191205  1
  Al  Al21  1  0.45925949  0.41840189  0.89748279  1
  Al  Al22  1  0.55629872  0.53836041  0.64965017  1
  Al  Al23  1  0.12002837  0.76455065  0.31843504  1
  Al  Al24  1  0.87451257  0.87870194  0.65644376  1
  Al  Al25  1  0.45000825  0.75982057  0.40019032  1
  Al  Al26  1  0.55054988  0.87353777  0.14250173  1
  Al  Al27  1  0.11075396  0.76005246  0.83459209  1
  Al  Al28  1  0.21803802  0.87120490  0.59345410  1
  Al  Al29  1  0.78020060  0.76310017  0.39288651  1
  Al  Al30  1  0.88686383  0.87644095  0.12368172  1
  Al  Al31  1  0.45080765  0.75872030  0.89638930  1
  Al  Al32  1  0.56096035  0.86974922  0.65287583  1
  B  B33  1  0.77164996  0.09192016  0.90265030  1
  B  B34  1  0.22445840  0.87111970  0.08113468  1
  B  B35  1  0.77065676  0.77085038  0.90304248  1
  N  N36  1  0.22329646  0.20346845  0.33691904  1
  N  N37  1  0.12478749  0.06816216  0.08958076  1
  N  N38  1  0.87694641  0.19098903  0.84527588  1
  N  N39  1  0.77900359  0.09209125  0.58308198  1
  N  N40  1  0.55900791  0.20201988  0.33444065  1
  N  N41  1  0.44435153  0.09529333  0.08637484  1
  N  N42  1  0.22265840  0.20496586  0.84032924  1
  N  N43  1  0.10419246  0.10402174  0.59312901  1
  N  N44  1  0.88828115  0.20446956  0.33127224  1
  N  N45  1  0.77505779  0.09688791  0.06334494  1
  N  N46  1  0.58191996  0.19103716  0.84312882  1
  N  N47  1  0.44548813  0.09382152  0.59126147  1
  N  N48  1  0.21945686  0.54522512  0.37873334  1
  N  N49  1  0.10865571  0.42436342  0.09057212  1
  N  N50  1  0.87695542  0.56480684  0.84258655  1
  N  N51  1  0.77915703  0.42664735  0.59001392  1
  N  N52  1  0.55694643  0.53988119  0.33729854  1
  N  N53  1  0.45345985  0.42323784  0.08980496  1
  N  N54  1  0.22604399  0.53820476  0.88483282  1
  N  N55  1  0.10537376  0.42660318  0.58759338  1
  N  N56  1  0.88547992  0.54147660  0.33247959  1
  N  N57  1  0.77743349  0.42718218  0.08658815  1
  N  N58  1  0.55891035  0.53769993  0.83816946  1
  N  N59  1  0.44913673  0.42463551  0.58951006  1
  N  N60  1  0.21984026  0.87006142  0.39463879  1
  N  N61  1  0.13110112  0.77648576  0.12273776  1
  N  N62  1  0.86261330  0.88457707  0.85402265  1
  N  N63  1  0.77789987  0.76349134  0.58248522  1
  N  N64  1  0.55723362  0.87149186  0.33284951  1
  N  N65  1  0.42137138  0.77307058  0.08979361  1
  N  N66  1  0.22652591  0.86844812  0.86645536  1
  N  N67  1  0.10572199  0.76091635  0.64421968  1
  N  N68  1  0.88488611  0.87380022  0.31866564  1
  N  N69  1  0.77445202  0.76149357  0.06489910  1
  N  N70  1  0.58110044  0.85992077  0.84630393  1
  N  N71  1  0.45234020  0.75928507  0.59359774  1
