# generated using pymatgen
data_Al11BN12
_symmetry_space_group_name_H-M   'P 1'
_cell_length_a   9.31602318
_cell_length_b   9.31041635
_cell_length_c   9.99903586
_cell_angle_alpha   89.93292157
_cell_angle_beta   89.89067672
_cell_angle_gamma   59.91782511
_symmetry_Int_Tables_number   1
_chemical_formula_structural   Al11BN12
_chemical_formula_sum   'Al33 B3 N36'
_cell_volume   750.45974943
_cell_formula_units_Z   3
loop_
 _symmetry_equiv_pos_site_id
 _symmetry_equiv_pos_as_xyz
  1  'x, y, z'
loop_
 _atom_site_type_symbol
 _atom_site_label
 _atom_site_symmetry_multiplicity
 _atom_site_fract_x
 _atom_site_fract_y
 _atom_site_fract_z
 _atom_site_occupancy
  Al  Al0  1  0.10419436  0.10275792  0.38810794  1
  Al  Al1  1  0.22308858  0.19902105  0.13790445  1
  Al  Al2  1  0.88623811  0.20255369  0.64201134  1
  Al  Al3  1  0.44580124  0.09276328  0.38726285  1
  Al  Al4  1  0.56140832  0.19719613  0.12979260  1
  Al  Al5  1  0.10715303  0.09194600  0.89189629  1
  Al  Al6  1  0.22115179  0.20667052  0.63858511  1
  Al  Al7  1  0.77964860  0.09071956  0.38447210  1
  Al  Al8  1  0.89348270  0.19703466  0.13206149  1
  Al  Al9  1  0.45507068  0.08904179  0.88791323  1
  Al  Al10  1  0.56216773  0.20013325  0.63951182  1
  Al  Al11  1  0.10501908  0.42797722  0.38559782  1
  Al  Al12  1  0.22394853  0.54529402  0.06804983  1
  Al  Al13  1  0.78189806  0.42491823  0.88909947  1
  Al  Al14  1  0.88631804  0.54502903  0.64058403  1
  Al  Al15  1  0.44146435  0.42880104  0.32961162  1
  Al  Al16  1  0.55721666  0.54002798  0.12447179  1
  Al  Al17  1  0.10404335  0.42839243  0.88730179  1
  Al  Al18  1  0.22246535  0.54527467  0.57233346  1
  Al  Al19  1  0.77406649  0.43044296  0.38739297  1
  Al  Al20  1  0.88843302  0.54031420  0.13301190  1
  Al  Al21  1  0.45224592  0.41884743  0.85439813  1
  Al  Al22  1  0.55769903  0.53699259  0.64215166  1
  Al  Al23  1  0.11538850  0.76575740  0.30866114  1
  Al  Al24  1  0.87831441  0.87785903  0.64685413  1
  Al  Al25  1  0.43087179  0.77151986  0.31266220  1
  Al  Al26  1  0.55510650  0.87517125  0.12454188  1
  Al  Al27  1  0.11021796  0.76118181  0.83040545  1
  Al  Al28  1  0.22334392  0.86856856  0.57340223  1
  Al  Al29  1  0.77761816  0.76381531  0.38268966  1
  Al  Al30  1  0.88887899  0.87507633  0.11477840  1
  Al  Al31  1  0.44750701  0.76273359  0.83637047  1
  Al  Al32  1  0.56337916  0.87331855  0.64184064  1
  B  B33  1  0.77298489  0.08928208  0.89365849  1
  B  B34  1  0.22730552  0.86608651  0.05824538  1
  B  B35  1  0.77256871  0.77041345  0.89417550  1
  N  N36  1  0.22272628  0.20521785  0.32828513  1
  N  N37  1  0.12150238  0.07389810  0.08323847  1
  N  N38  1  0.88045652  0.18771835  0.83434853  1
  N  N39  1  0.77993441  0.09125395  0.57362384  1
  N  N40  1  0.55928190  0.19889104  0.32307244  1
  N  N41  1  0.44261262  0.09626966  0.07439779  1
  N  N42  1  0.22391799  0.20129556  0.82927241  1
  N  N43  1  0.10509906  0.10249558  0.58171989  1
  N  N44  1  0.88530762  0.20651637  0.32359249  1
  N  N45  1  0.77737283  0.09538393  0.05381505  1
  N  N46  1  0.58549824  0.18556527  0.83551293  1
  N  N47  1  0.44584070  0.09385150  0.57979052  1
  N  N48  1  0.21876187  0.54728430  0.37396704  1
  N  N49  1  0.10963888  0.42366398  0.08064546  1
  N  N50  1  0.87814085  0.56314116  0.83265886  1
  N  N51  1  0.77770377  0.42851013  0.58073666  1
  N  N52  1  0.55750682  0.54129496  0.32333132  1
  N  N53  1  0.44679659  0.42406859  0.10373629  1
  N  N54  1  0.22405904  0.53789940  0.87692670  1
  N  N55  1  0.10624321  0.42792480  0.57955834  1
  N  N56  1  0.88521719  0.54180172  0.32380748  1
  N  N57  1  0.78349715  0.42355020  0.07675709  1
  N  N58  1  0.56374067  0.53348420  0.83947928  1
  N  N59  1  0.44322411  0.42617121  0.61763201  1
  N  N60  1  0.22094837  0.87013358  0.38320415  1
  N  N61  1  0.12858354  0.77352852  0.11529509  1
  N  N62  1  0.86503748  0.88314220  0.84479350  1
  N  N63  1  0.77891269  0.76359328  0.57277663  1
  N  N64  1  0.55807981  0.87459165  0.31949128  1
  N  N65  1  0.41627364  0.77720758  0.11296910  1
  N  N66  1  0.22897551  0.86038731  0.89720431  1
  N  N67  1  0.11092197  0.76366007  0.63885592  1
  N  N68  1  0.88261393  0.87516841  0.31101740  1
  N  N69  1  0.77818211  0.75973335  0.05495752  1
  N  N70  1  0.58568316  0.86132203  0.83866951  1
  N  N71  1  0.43803447  0.76919060  0.63811337  1
