# generated using pymatgen
data_Al11BN12
_symmetry_space_group_name_H-M   'P 1'
_cell_length_a   9.27363844
_cell_length_b   9.26267095
_cell_length_c   10.09298429
_cell_angle_alpha   90.03172650
_cell_angle_beta   89.69046643
_cell_angle_gamma   60.02099436
_symmetry_Int_Tables_number   1
_chemical_formula_structural   Al11BN12
_chemical_formula_sum   'Al33 B3 N36'
_cell_volume   750.96390290
_cell_formula_units_Z   3
loop_
 _symmetry_equiv_pos_site_id
 _symmetry_equiv_pos_as_xyz
  1  'x, y, z'
loop_
 _atom_site_type_symbol
 _atom_site_label
 _atom_site_symmetry_multiplicity
 _atom_site_fract_x
 _atom_site_fract_y
 _atom_site_fract_z
 _atom_site_occupancy
  Al  Al0  1  0.11416169  0.08904119  0.31064545  1
  Al  Al1  1  0.22312300  0.20089273  0.06307180  1
  Al  Al2  1  0.89319658  0.20573500  0.56754196  1
  Al  Al3  1  0.44395287  0.09431679  0.31247197  1
  Al  Al4  1  0.54980815  0.20852993  0.06297225  1
  Al  Al5  1  0.11005906  0.08931496  0.82002749  1
  Al  Al6  1  0.22193618  0.20451602  0.56487155  1
  Al  Al7  1  0.78332712  0.08506799  0.38296249  1
  Al  Al8  1  0.89711800  0.20022881  0.05995881  1
  Al  Al9  1  0.45632296  0.08903798  0.81401807  1
  Al  Al10  1  0.54893099  0.20931069  0.56491479  1
  Al  Al11  1  0.11127570  0.42742238  0.31466087  1
  Al  Al12  1  0.22612133  0.54077619  0.06398158  1
  Al  Al13  1  0.77745656  0.42673579  0.81421855  1
  Al  Al14  1  0.89134345  0.53456216  0.56775536  1
  Al  Al15  1  0.44467354  0.42778654  0.31515602  1
  Al  Al16  1  0.55210288  0.54162314  0.06360339  1
  Al  Al17  1  0.10893268  0.43169288  0.81410562  1
  Al  Al18  1  0.21663233  0.54628321  0.56838158  1
  Al  Al19  1  0.77917296  0.42685495  0.31172448  1
  Al  Al20  1  0.89294151  0.53498807  0.05831485  1
  Al  Al21  1  0.45215924  0.42263673  0.81354202  1
  Al  Al22  1  0.55468275  0.54057687  0.56420607  1
  Al  Al23  1  0.12064474  0.76010905  0.30819893  1
  Al  Al24  1  0.87126943  0.88111723  0.65309165  1
  Al  Al25  1  0.43956728  0.76333641  0.31088972  1
  Al  Al26  1  0.54561311  0.87621559  0.06328589  1
  Al  Al27  1  0.11121333  0.76294332  0.83336556  1
  Al  Al28  1  0.21749124  0.87147637  0.56971229  1
  Al  Al29  1  0.78258128  0.76393018  0.38301039  1
  Al  Al30  1  0.89101199  0.87460351  0.12239401  1
  Al  Al31  1  0.45059293  0.75991141  0.82018280  1
  Al  Al32  1  0.54796079  0.87462065  0.56545932  1
  B  B33  1  0.77349896  0.08759310  0.90094924  1
  B  B34  1  0.22539572  0.87033676  0.06122786  1
  B  B35  1  0.77190814  0.77769269  0.90180226  1
  N  N36  1  0.22180320  0.20399096  0.37386967  1
  N  N37  1  0.12447253  0.06890149  0.11807622  1
  N  N38  1  0.88075862  0.19324343  0.86975258  1
  N  N39  1  0.78033594  0.08778295  0.57444449  1
  N  N40  1  0.54994295  0.20771897  0.37260933  1
  N  N41  1  0.44316088  0.09558295  0.12430858  1
  N  N42  1  0.22421602  0.20425935  0.87449393  1
  N  N43  1  0.11267642  0.09296405  0.63031006  1
  N  N44  1  0.89403458  0.20636198  0.37124377  1
  N  N45  1  0.77954749  0.08828765  0.06122480  1
  N  N46  1  0.57437230  0.19635301  0.87201181  1
  N  N47  1  0.44330017  0.09495555  0.62640152  1
  N  N48  1  0.21967002  0.54285538  0.37623030  1
  N  N49  1  0.11216453  0.42811210  0.12473758  1
  N  N50  1  0.88198191  0.55515409  0.86922593  1
  N  N51  1  0.77631944  0.42771300  0.62578482  1
  N  N52  1  0.55540420  0.54061882  0.37324458  1
  N  N53  1  0.44599272  0.42701598  0.12660028  1
  N  N54  1  0.22731739  0.53407024  0.87731658  1
  N  N55  1  0.11232108  0.42700340  0.62543212  1
  N  N56  1  0.89197463  0.53249831  0.37384157  1
  N  N57  1  0.77953012  0.42659903  0.12180171  1
  N  N58  1  0.55710815  0.53763446  0.87628964  1
  N  N59  1  0.44223432  0.43031221  0.62490498  1
  N  N60  1  0.22084481  0.87173703  0.38098555  1
  N  N61  1  0.13157127  0.77070016  0.11393985  1
  N  N62  1  0.86024829  0.88674781  0.84699446  1
  N  N63  1  0.77931343  0.76581478  0.57481526  1
  N  N64  1  0.54922566  0.87367805  0.37079721  1
  N  N65  1  0.42146575  0.77266403  0.11834173  1
  N  N66  1  0.22747733  0.87141488  0.89819646  1
  N  N67  1  0.10886321  0.76379275  0.64136974  1
  N  N68  1  0.88618919  0.87246090  0.31050306  1
  N  N69  1  0.78040003  0.76664921  0.06164421  1
  N  N70  1  0.57474032  0.86431035  0.87344177  1
  N  N71  1  0.44103000  0.76215732  0.63037218  1
