# generated using pymatgen
data_Al11BN12
_symmetry_space_group_name_H-M   'P 1'
_cell_length_a   9.30730163
_cell_length_b   9.28487737
_cell_length_c   10.06349612
_cell_angle_alpha   89.93166660
_cell_angle_beta   89.97918166
_cell_angle_gamma   60.02202548
_symmetry_Int_Tables_number   1
_chemical_formula_structural   Al11BN12
_chemical_formula_sum   'Al33 B3 N36'
_cell_volume   753.31306139
_cell_formula_units_Z   3
loop_
 _symmetry_equiv_pos_site_id
 _symmetry_equiv_pos_as_xyz
  1  'x, y, z'
loop_
 _atom_site_type_symbol
 _atom_site_label
 _atom_site_symmetry_multiplicity
 _atom_site_fract_x
 _atom_site_fract_y
 _atom_site_fract_z
 _atom_site_occupancy
  Al  Al0  1  0.10416885  0.10317125  0.39019736  1
  Al  Al1  1  0.22762401  0.19204587  0.13605469  1
  Al  Al2  1  0.88658244  0.20149454  0.64650222  1
  Al  Al3  1  0.44567815  0.09188736  0.38837494  1
  Al  Al4  1  0.56062204  0.20028564  0.13381975  1
  Al  Al5  1  0.11015139  0.08949198  0.89445419  1
  Al  Al6  1  0.22380503  0.20018007  0.64031741  1
  Al  Al7  1  0.77978356  0.08962912  0.38548807  1
  Al  Al8  1  0.89425890  0.19445684  0.12808418  1
  Al  Al9  1  0.45764725  0.08880562  0.88900532  1
  Al  Al10  1  0.56438932  0.19718720  0.63760470  1
  Al  Al11  1  0.11261815  0.43288726  0.31662284  1
  Al  Al12  1  0.22765591  0.54068134  0.06708281  1
  Al  Al13  1  0.78206413  0.42466454  0.87784420  1
  Al  Al14  1  0.87928852  0.54888520  0.64408778  1
  Al  Al15  1  0.44080926  0.43261375  0.32179928  1
  Al  Al16  1  0.54635152  0.54526376  0.06788651  1
  Al  Al17  1  0.11171127  0.43380068  0.82821453  1
  Al  Al18  1  0.21749806  0.54248946  0.57191004  1
  Al  Al19  1  0.77618549  0.42879654  0.35396724  1
  Al  Al20  1  0.88547526  0.54528481  0.12182453  1
  Al  Al21  1  0.44975684  0.42711464  0.82000990  1
  Al  Al22  1  0.55317242  0.54177175  0.57303196  1
  Al  Al23  1  0.11530804  0.76553958  0.30943788  1
  Al  Al24  1  0.87926589  0.87712194  0.64888431  1
  Al  Al25  1  0.43249345  0.76579808  0.31416598  1
  Al  Al26  1  0.55490832  0.87476627  0.12839510  1
  Al  Al27  1  0.11045671  0.76181274  0.83361082  1
  Al  Al28  1  0.22181906  0.86751705  0.57387705  1
  Al  Al29  1  0.77727357  0.76386245  0.38365014  1
  Al  Al30  1  0.88796315  0.87604234  0.11571061  1
  Al  Al31  1  0.44840105  0.75776161  0.82763523  1
  Al  Al32  1  0.56348036  0.87240976  0.64217042  1
  B  B33  1  0.77239634  0.09060492  0.89356985  1
  B  B34  1  0.22819758  0.86360176  0.06052598  1
  B  B35  1  0.77185551  0.76993645  0.89435901  1
  N  N36  1  0.22476455  0.20050368  0.32890724  1
  N  N37  1  0.12267679  0.07149598  0.08362660  1
  N  N38  1  0.88268131  0.18328515  0.83813403  1
  N  N39  1  0.78162996  0.09027846  0.57354152  1
  N  N40  1  0.55929051  0.19892197  0.32733637  1
  N  N41  1  0.44545695  0.09592319  0.07495590  1
  N  N42  1  0.22810010  0.19472004  0.83303943  1
  N  N43  1  0.10433727  0.10166817  0.58204637  1
  N  N44  1  0.88728592  0.20211129  0.31978761  1
  N  N45  1  0.77418202  0.09686016  0.05394224  1
  N  N46  1  0.58501469  0.18843461  0.83307228  1
  N  N47  1  0.44574927  0.09290968  0.57923975  1
  N  N48  1  0.21774978  0.54517916  0.38063597  1
  N  N49  1  0.11705153  0.42869560  0.12050386  1
  N  N50  1  0.87462008  0.57049510  0.84025613  1
  N  N51  1  0.77754171  0.42704825  0.60815291  1
  N  N52  1  0.54932870  0.54522388  0.37980016  1
  N  N53  1  0.44359982  0.43286713  0.13156910  1
  N  N54  1  0.22929591  0.53473049  0.88181088  1
  N  N55  1  0.11039340  0.43184409  0.63187507  1
  N  N56  1  0.88115021  0.54696455  0.31896740  1
  N  N57  1  0.78250817  0.42334169  0.08263677  1
  N  N58  1  0.55294672  0.53894629  0.88084709  1
  N  N59  1  0.44133896  0.43027569  0.62872216  1
  N  N60  1  0.22061427  0.86947603  0.38471216  1
  N  N61  1  0.12830165  0.77231335  0.11578767  1
  N  N62  1  0.86476562  0.88399255  0.84536857  1
  N  N63  1  0.77868624  0.76391510  0.57263643  1
  N  N64  1  0.55769159  0.87308156  0.32111097  1
  N  N65  1  0.41695061  0.77372014  0.12050168  1
  N  N66  1  0.23270961  0.85777295  0.89904864  1
  N  N67  1  0.11173864  0.76190601  0.64190799  1
  N  N68  1  0.88282111  0.87452309  0.31119735  1
  N  N69  1  0.77445396  0.76469687  0.05440063  1
  N  N70  1  0.58437349  0.86104757  0.83666932  1
  N  N71  1  0.43996103  0.76326491  0.63674596  1
