# generated using pymatgen
data_Al11BN12
_symmetry_space_group_name_H-M   'P 1'
_cell_length_a   9.26398615
_cell_length_b   9.32857314
_cell_length_c   9.97612357
_cell_angle_alpha   90.13560255
_cell_angle_beta   89.69968092
_cell_angle_gamma   60.05420214
_symmetry_Int_Tables_number   1
_chemical_formula_structural   Al11BN12
_chemical_formula_sum   'Al33 B3 N36'
_cell_volume   747.01507186
_cell_formula_units_Z   3
loop_
 _symmetry_equiv_pos_site_id
 _symmetry_equiv_pos_as_xyz
  1  'x, y, z'
loop_
 _atom_site_type_symbol
 _atom_site_label
 _atom_site_symmetry_multiplicity
 _atom_site_fract_x
 _atom_site_fract_y
 _atom_site_fract_z
 _atom_site_occupancy
  Al  Al0  1  0.11251935  0.08832930  0.30733246  1
  Al  Al1  1  0.22433195  0.19876241  0.05883126  1
  Al  Al2  1  0.88949887  0.20682428  0.56470891  1
  Al  Al3  1  0.44560445  0.09437842  0.30766338  1
  Al  Al4  1  0.56182500  0.20482699  0.05525292  1
  Al  Al5  1  0.10978444  0.08955074  0.81372848  1
  Al  Al6  1  0.22152395  0.20616053  0.56136548  1
  Al  Al7  1  0.77842015  0.09483846  0.30870922  1
  Al  Al8  1  0.88971925  0.19723461  0.05493551  1
  Al  Al9  1  0.46185472  0.08569148  0.80938877  1
  Al  Al10  1  0.55404496  0.20739664  0.56366735  1
  Al  Al11  1  0.11175204  0.42636598  0.31019988  1
  Al  Al12  1  0.22812270  0.53671178  0.06195476  1
  Al  Al13  1  0.77179485  0.43792239  0.80832737  1
  Al  Al14  1  0.88738985  0.54364280  0.55794591  1
  Al  Al15  1  0.44625995  0.42584417  0.31262281  1
  Al  Al16  1  0.55058446  0.54214292  0.06093418  1
  Al  Al17  1  0.10906414  0.43086521  0.81081955  1
  Al  Al18  1  0.21485515  0.54781710  0.56284215  1
  Al  Al19  1  0.77916726  0.42423274  0.30925182  1
  Al  Al20  1  0.88774487  0.53809089  0.06457192  1
  Al  Al21  1  0.44635711  0.43059303  0.80639696  1
  Al  Al22  1  0.55333651  0.54470971  0.55900091  1
  Al  Al23  1  0.11931603  0.76021923  0.30591540  1
  Al  Al24  1  0.87639358  0.87227252  0.65648431  1
  Al  Al25  1  0.43812523  0.76477446  0.30501930  1
  Al  Al26  1  0.55548550  0.87003711  0.06257372  1
  Al  Al27  1  0.11537497  0.75346719  0.83205491  1
  Al  Al28  1  0.21808555  0.87287010  0.56444332  1
  Al  Al29  1  0.77773271  0.75869800  0.32432635  1
  Al  Al30  1  0.89184799  0.86822273  0.10610406  1
  Al  Al31  1  0.44841136  0.76262485  0.81537233  1
  Al  Al32  1  0.55355379  0.87380684  0.55653218  1
  B  B33  1  0.74894193  0.15470867  0.79777177  1
  B  B34  1  0.22489890  0.86966735  0.05539205  1
  B  B35  1  0.78351876  0.75179367  0.85410337  1
  N  N36  1  0.22174973  0.20387599  0.36776134  1
  N  N37  1  0.12129361  0.06980487  0.11077026  1
  N  N38  1  0.87061647  0.20294056  0.86090325  1
  N  N39  1  0.76962946  0.11108544  0.64916388  1
  N  N40  1  0.55780937  0.20379443  0.37375739  1
  N  N41  1  0.44778830  0.09506405  0.11393871  1
  N  N42  1  0.22543515  0.20242031  0.86822620  1
  N  N43  1  0.11102107  0.09432082  0.62404608  1
  N  N44  1  0.88903646  0.20335108  0.37326386  1
  N  N45  1  0.77555937  0.09795872  0.11776293  1
  N  N46  1  0.58066303  0.20231762  0.86113079  1
  N  N47  1  0.44477989  0.09479048  0.62109569  1
  N  N48  1  0.22142691  0.54049554  0.36992036  1
  N  N49  1  0.11287914  0.42503756  0.11842251  1
  N  N50  1  0.87624065  0.55803296  0.87037585  1
  N  N51  1  0.77632833  0.43121331  0.61954022  1
  N  N52  1  0.55428794  0.54237281  0.36681202  1
  N  N53  1  0.44822901  0.42342747  0.12154945  1
  N  N54  1  0.23103991  0.52744235  0.87371816  1
  N  N55  1  0.10962296  0.42925229  0.62085002  1
  N  N56  1  0.89110571  0.53169688  0.36761439  1
  N  N57  1  0.77945189  0.42164576  0.11662059  1
  N  N58  1  0.55299896  0.54191753  0.87095011  1
  N  N59  1  0.44178026  0.43219536  0.61730530  1
  N  N60  1  0.22155277  0.87207639  0.37494198  1
  N  N61  1  0.13233914  0.76773268  0.10689381  1
  N  N62  1  0.88322150  0.83491660  0.85251038  1
  N  N63  1  0.77568629  0.76601220  0.58871899  1
  N  N64  1  0.54727822  0.87525351  0.36478067  1
  N  N65  1  0.41970634  0.77425196  0.11078556  1
  N  N66  1  0.22368790  0.87318354  0.89167205  1
  N  N67  1  0.11090684  0.76495208  0.63670273  1
  N  N68  1  0.89423495  0.86998985  0.32123274  1
  N  N69  1  0.77275702  0.75377799  0.12565779  1
  N  N70  1  0.58732454  0.85537537  0.86910754  1
  N  N71  1  0.44110956  0.76527639  0.62465317  1
