# generated using pymatgen
data_Al11BN12
_symmetry_space_group_name_H-M   'P 1'
_cell_length_a   9.29813530
_cell_length_b   9.27100643
_cell_length_c   10.07230909
_cell_angle_alpha   90.12126904
_cell_angle_beta   90.17463827
_cell_angle_gamma   59.98511068
_symmetry_Int_Tables_number   1
_chemical_formula_structural   Al11BN12
_chemical_formula_sum   'Al33 B3 N36'
_cell_volume   751.82215938
_cell_formula_units_Z   3
loop_
 _symmetry_equiv_pos_site_id
 _symmetry_equiv_pos_as_xyz
  1  'x, y, z'
loop_
 _atom_site_type_symbol
 _atom_site_label
 _atom_site_symmetry_multiplicity
 _atom_site_fract_x
 _atom_site_fract_y
 _atom_site_fract_z
 _atom_site_occupancy
  Al  Al0  1  0.11235125  0.08927317  0.31452180  1
  Al  Al1  1  0.21636644  0.20620894  0.06975915  1
  Al  Al2  1  0.89051446  0.20229791  0.59884061  1
  Al  Al3  1  0.45245687  0.08738564  0.38974761  1
  Al  Al4  1  0.55901166  0.20139142  0.13870374  1
  Al  Al5  1  0.11201342  0.08950442  0.82958874  1
  Al  Al6  1  0.21769614  0.20451701  0.57217897  1
  Al  Al7  1  0.78167578  0.08818940  0.38942037  1
  Al  Al8  1  0.89221525  0.20227729  0.06519499  1
  Al  Al9  1  0.45980397  0.08944434  0.89146796  1
  Al  Al10  1  0.56425103  0.19536142  0.64257095  1
  Al  Al11  1  0.11099151  0.42654788  0.32036859  1
  Al  Al12  1  0.22494164  0.54204454  0.07082112  1
  Al  Al13  1  0.77520251  0.43342432  0.82432656  1
  Al  Al14  1  0.89188415  0.53139654  0.56995525  1
  Al  Al15  1  0.44239368  0.43192219  0.32462446  1
  Al  Al16  1  0.54884869  0.54472803  0.07129360  1
  Al  Al17  1  0.10694460  0.43437962  0.81912550  1
  Al  Al18  1  0.22010406  0.54189010  0.57410980  1
  Al  Al19  1  0.77941657  0.42514066  0.31642527  1
  Al  Al20  1  0.88885491  0.54164016  0.06372311  1
  Al  Al21  1  0.44790706  0.42890681  0.82434779  1
  Al  Al22  1  0.55448587  0.54016298  0.57266056  1
  Al  Al23  1  0.11757533  0.76130695  0.31391990  1
  Al  Al24  1  0.87991159  0.87298047  0.65368495  1
  Al  Al25  1  0.43631286  0.76055859  0.31790914  1
  Al  Al26  1  0.55145615  0.87726517  0.13258599  1
  Al  Al27  1  0.10977967  0.76411801  0.83941089  1
  Al  Al28  1  0.22133471  0.86976959  0.57596801  1
  Al  Al29  1  0.77759155  0.76507997  0.38669632  1
  Al  Al30  1  0.88726694  0.87838676  0.12363517  1
  Al  Al31  1  0.44536259  0.75997076  0.83325404  1
  Al  Al32  1  0.56569479  0.86834194  0.64674448  1
  B  B33  1  0.76717350  0.09054369  0.89857335  1
  B  B34  1  0.22462114  0.87100778  0.06691867  1
  B  B35  1  0.76866840  0.77786652  0.90085514  1
  N  N36  1  0.21919803  0.20379383  0.37836048  1
  N  N37  1  0.12253166  0.07050958  0.12111083  1
  N  N38  1  0.87982875  0.19504746  0.86932085  1
  N  N39  1  0.77998986  0.08527796  0.57911954  1
  N  N40  1  0.56119952  0.19794112  0.32973289  1
  N  N41  1  0.44611990  0.09692775  0.07951758  1
  N  N42  1  0.21774337  0.21007564  0.87844713  1
  N  N43  1  0.11548055  0.08939101  0.63998241  1
  N  N44  1  0.89221467  0.20402410  0.36648810  1
  N  N45  1  0.76827732  0.09515127  0.05771491  1
  N  N46  1  0.58407442  0.19002845  0.83616476  1
  N  N47  1  0.45122702  0.08783760  0.58331760  1
  N  N48  1  0.21971410  0.54188773  0.38284971  1
  N  N49  1  0.10870435  0.43215963  0.13076798  1
  N  N50  1  0.88076260  0.56088225  0.87408175  1
  N  N51  1  0.77570152  0.42933681  0.63544646  1
  N  N52  1  0.55657158  0.54023534  0.38224690  1
  N  N53  1  0.44205976  0.43406915  0.13350054  1
  N  N54  1  0.22556730  0.53569071  0.88392044  1
  N  N55  1  0.11198998  0.42654020  0.63079896  1
  N  N56  1  0.89157432  0.53193712  0.37852759  1
  N  N57  1  0.77712964  0.43104119  0.12475488  1
  N  N58  1  0.55634521  0.53863747  0.88545962  1
  N  N59  1  0.44317148  0.42913362  0.63230892  1
  N  N60  1  0.22115148  0.87159469  0.38727089  1
  N  N61  1  0.12710011  0.77358779  0.11891835  1
  N  N62  1  0.86309325  0.88531678  0.84884419  1
  N  N63  1  0.77818740  0.76428986  0.57692041  1
  N  N64  1  0.55985535  0.86963659  0.32285077  1
  N  N65  1  0.41585628  0.77410275  0.12316006  1
  N  N66  1  0.22540561  0.87209554  0.90505694  1
  N  N67  1  0.11299207  0.76050002  0.64550015  1
  N  N68  1  0.88497702  0.87237813  0.31559280  1
  N  N69  1  0.76905905  0.77491651  0.06053961  1
  N  N70  1  0.58390660  0.86111383  0.84033573  1
  N  N71  1  0.44096659  0.75975272  0.64038853  1
