# generated using pymatgen
data_Al11BN12
_symmetry_space_group_name_H-M   'P 1'
_cell_length_a   9.28994811
_cell_length_b   9.31981553
_cell_length_c   10.05116580
_cell_angle_alpha   90.05848815
_cell_angle_beta   89.76783022
_cell_angle_gamma   60.10977302
_symmetry_Int_Tables_number   1
_chemical_formula_structural   Al11BN12
_chemical_formula_sum   'Al33 B3 N36'
_cell_volume   754.46790268
_cell_formula_units_Z   3
loop_
 _symmetry_equiv_pos_site_id
 _symmetry_equiv_pos_as_xyz
  1  'x, y, z'
loop_
 _atom_site_type_symbol
 _atom_site_label
 _atom_site_symmetry_multiplicity
 _atom_site_fract_x
 _atom_site_fract_y
 _atom_site_fract_z
 _atom_site_occupancy
  Al  Al0  1  0.11505202  0.08821235  0.31745820  1
  Al  Al1  1  0.22189047  0.20228190  0.06939815  1
  Al  Al2  1  0.89385263  0.20522320  0.57286843  1
  Al  Al3  1  0.44362045  0.09689362  0.31874229  1
  Al  Al4  1  0.54910335  0.21154514  0.07077812  1
  Al  Al5  1  0.10950603  0.08886518  0.82840985  1
  Al  Al6  1  0.22295070  0.20316104  0.57127308  1
  Al  Al7  1  0.78337625  0.08484156  0.38830215  1
  Al  Al8  1  0.89586829  0.20307808  0.06917252  1
  Al  Al9  1  0.45402504  0.09571745  0.82445452  1
  Al  Al10  1  0.54974830  0.21059373  0.57209094  1
  Al  Al11  1  0.11020671  0.42765163  0.32227209  1
  Al  Al12  1  0.22441472  0.54038246  0.07207041  1
  Al  Al13  1  0.77934274  0.41603100  0.82051418  1
  Al  Al14  1  0.89261450  0.53215260  0.57783661  1
  Al  Al15  1  0.44414528  0.42818712  0.32318297  1
  Al  Al16  1  0.55202119  0.54066995  0.07140957  1
  Al  Al17  1  0.11388587  0.42105277  0.82048329  1
  Al  Al18  1  0.21644164  0.54586415  0.57605580  1
  Al  Al19  1  0.77921346  0.42785125  0.32018756  1
  Al  Al20  1  0.89240160  0.53379602  0.05635260  1
  Al  Al21  1  0.44970724  0.42552813  0.82144255  1
  Al  Al22  1  0.55459389  0.54043723  0.57258094  1
  Al  Al23  1  0.12085821  0.75947113  0.31645918  1
  Al  Al24  1  0.87235350  0.88309688  0.65883478  1
  Al  Al25  1  0.43866628  0.76044838  0.31809744  1
  Al  Al26  1  0.54937210  0.87403201  0.10464148  1
  Al  Al27  1  0.11063668  0.76116947  0.84226508  1
  Al  Al28  1  0.21808792  0.87176129  0.57874003  1
  Al  Al29  1  0.78023802  0.76317032  0.38946786  1
  Al  Al30  1  0.89202798  0.87646219  0.13064425  1
  Al  Al31  1  0.45150316  0.75958257  0.83600871  1
  Al  Al32  1  0.55647854  0.87075781  0.60814770  1
  B  B33  1  0.77394661  0.09442297  0.90839821  1
  B  B34  1  0.22490209  0.86937949  0.06732444  1
  B  B35  1  0.74858883  0.82321237  0.91509151  1
  N  N36  1  0.22269335  0.20296148  0.38050369  1
  N  N37  1  0.12431579  0.06926307  0.12458750  1
  N  N38  1  0.87895747  0.18697965  0.87702515  1
  N  N39  1  0.78079311  0.08787935  0.58071889  1
  N  N40  1  0.55007755  0.20851607  0.37977625  1
  N  N41  1  0.44052426  0.10175259  0.12932595  1
  N  N42  1  0.23036856  0.19681293  0.88113192  1
  N  N43  1  0.11291094  0.09271289  0.63752733  1
  N  N44  1  0.89436708  0.20581929  0.37658442  1
  N  N45  1  0.77850895  0.09057573  0.07161672  1
  N  N46  1  0.57358910  0.20103135  0.87970770  1
  N  N47  1  0.44414821  0.09662933  0.63356160  1
  N  N48  1  0.21946360  0.54307309  0.38345002  1
  N  N49  1  0.10951539  0.42979112  0.13216152  1
  N  N50  1  0.90043657  0.51036973  0.87528326  1
  N  N51  1  0.77566338  0.42534394  0.63094347  1
  N  N52  1  0.55466461  0.54075153  0.38165266  1
  N  N53  1  0.44445302  0.42847672  0.13432364  1
  N  N54  1  0.22499556  0.53318670  0.88431537  1
  N  N55  1  0.11532501  0.42438906  0.63086584  1
  N  N56  1  0.89237407  0.53212615  0.38384791  1
  N  N57  1  0.77753770  0.42974281  0.13051472  1
  N  N58  1  0.55781863  0.53656783  0.88384372  1
  N  N59  1  0.44174138  0.43084783  0.63211033  1
  N  N60  1  0.22153283  0.87143179  0.38917349  1
  N  N61  1  0.13047439  0.77078290  0.12059556  1
  N  N62  1  0.85401220  0.89559948  0.85426744  1
  N  N63  1  0.78018975  0.76523989  0.58211518  1
  N  N64  1  0.55867687  0.86808916  0.34175466  1
  N  N65  1  0.41797500  0.77096904  0.12326740  1
  N  N66  1  0.22592388  0.87070703  0.90527007  1
  N  N67  1  0.10828259  0.76383279  0.64949814  1
  N  N68  1  0.88712340  0.87101415  0.31923925  1
  N  N69  1  0.77941814  0.77118259  0.06143020  1
  N  N70  1  0.57713237  0.86963483  0.87134007  1
  N  N71  1  0.44126269  0.76097648  0.64183486  1
