# generated using pymatgen
data_Al11BN12
_symmetry_space_group_name_H-M   'P 1'
_cell_length_a   9.29103472
_cell_length_b   9.27299742
_cell_length_c   10.01242225
_cell_angle_alpha   89.71987751
_cell_angle_beta   89.62117564
_cell_angle_gamma   60.01045177
_symmetry_Int_Tables_number   1
_chemical_formula_structural   Al11BN12
_chemical_formula_sum   'Al33 B3 N36'
_cell_volume   747.11855248
_cell_formula_units_Z   3
loop_
 _symmetry_equiv_pos_site_id
 _symmetry_equiv_pos_as_xyz
  1  'x, y, z'
loop_
 _atom_site_type_symbol
 _atom_site_label
 _atom_site_symmetry_multiplicity
 _atom_site_fract_x
 _atom_site_fract_y
 _atom_site_fract_z
 _atom_site_occupancy
  Al  Al0  1  0.10629486  0.09991401  0.39871208  1
  Al  Al1  1  0.22380574  0.19810937  0.14717391  1
  Al  Al2  1  0.88500582  0.20327448  0.65255706  1
  Al  Al3  1  0.44579498  0.09301914  0.39789676  1
  Al  Al4  1  0.55848620  0.20274217  0.14413295  1
  Al  Al5  1  0.10652252  0.09248935  0.89637313  1
  Al  Al6  1  0.22104965  0.20717811  0.64986793  1
  Al  Al7  1  0.78193056  0.08865945  0.39357300  1
  Al  Al8  1  0.89232098  0.19768299  0.13968123  1
  Al  Al9  1  0.45440317  0.08966841  0.89849155  1
  Al  Al10  1  0.56004682  0.20336270  0.65006051  1
  Al  Al11  1  0.10605528  0.42699876  0.39231469  1
  Al  Al12  1  0.22385974  0.54574037  0.07971354  1
  Al  Al13  1  0.77735084  0.42814779  0.89781825  1
  Al  Al14  1  0.88566023  0.54469678  0.65011671  1
  Al  Al15  1  0.45154222  0.42338009  0.39468734  1
  Al  Al16  1  0.55083649  0.54350260  0.14845652  1
  Al  Al17  1  0.10391401  0.43058424  0.89702098  1
  Al  Al18  1  0.21580510  0.54747664  0.57963977  1
  Al  Al19  1  0.77882481  0.42662798  0.39701414  1
  Al  Al20  1  0.88589306  0.54151939  0.14179322  1
  Al  Al21  1  0.45926760  0.41831182  0.89754191  1
  Al  Al22  1  0.55629535  0.53830030  0.64951318  1
  Al  Al23  1  0.12030096  0.76461457  0.31705118  1
  Al  Al24  1  0.87464824  0.87881200  0.65665427  1
  Al  Al25  1  0.45024315  0.75979641  0.39963579  1
  Al  Al26  1  0.55045447  0.87334393  0.14254624  1
  Al  Al27  1  0.11024471  0.75979982  0.83577056  1
  Al  Al28  1  0.21761954  0.87102917  0.58991503  1
  Al  Al29  1  0.78038357  0.76315045  0.39280715  1
  Al  Al30  1  0.88708536  0.87621824  0.12352998  1
  Al  Al31  1  0.45267785  0.75770268  0.89729295  1
  Al  Al32  1  0.56104055  0.86986720  0.65273090  1
  B  B33  1  0.77149704  0.09197376  0.90276134  1
  B  B34  1  0.22407186  0.87044918  0.07259486  1
  B  B35  1  0.77067657  0.77085580  0.90315795  1
  N  N36  1  0.22334788  0.20368177  0.33710716  1
  N  N37  1  0.12383162  0.06991831  0.08939333  1
  N  N38  1  0.87684686  0.19099594  0.84491658  1
  N  N39  1  0.77908960  0.09198926  0.58306859  1
  N  N40  1  0.55897161  0.20212283  0.33444154  1
  N  N41  1  0.44432052  0.09526565  0.08643237  1
  N  N42  1  0.22280521  0.20462576  0.83998169  1
  N  N43  1  0.10450310  0.10346015  0.59341588  1
  N  N44  1  0.88812064  0.20458618  0.33145903  1
  N  N45  1  0.77506571  0.09687924  0.06328531  1
  N  N46  1  0.58195088  0.19097304  0.84312692  1
  N  N47  1  0.44555554  0.09383766  0.59120633  1
  N  N48  1  0.21928504  0.54573185  0.37913490  1
  N  N49  1  0.10867301  0.42429900  0.09053356  1
  N  N50  1  0.87694459  0.56469388  0.84257742  1
  N  N51  1  0.77918559  0.42670431  0.58995835  1
  N  N52  1  0.55697194  0.53982064  0.33748673  1
  N  N53  1  0.45339904  0.42328060  0.08979432  1
  N  N54  1  0.22620004  0.53766943  0.88445957  1
  N  N55  1  0.10536836  0.42676651  0.58769382  1
  N  N56  1  0.88549775  0.54151352  0.33247202  1
  N  N57  1  0.77737932  0.42714864  0.08660153  1
  N  N58  1  0.55888468  0.53758554  0.83786234  1
  N  N59  1  0.44917799  0.42458437  0.58954340  1
  N  N60  1  0.21984801  0.87015030  0.39411071  1
  N  N61  1  0.13061438  0.77596333  0.12226765  1
  N  N62  1  0.86250230  0.88443123  0.85397925  1
  N  N63  1  0.77818952  0.76344671  0.58252413  1
  N  N64  1  0.55735873  0.87159009  0.33307602  1
  N  N65  1  0.42313091  0.77215975  0.08964631  1
  N  N66  1  0.22521307  0.86728579  0.87827539  1
  N  N67  1  0.10672259  0.76157738  0.64556942  1
  N  N68  1  0.88495190  0.87386923  0.31871982  1
  N  N69  1  0.77438822  0.76153610  0.06483702  1
  N  N70  1  0.58104831  0.86004410  0.84597546  1
  N  N71  1  0.45161180  0.75971090  0.59403777  1
