# generated using pymatgen
data_Al11BN12
_symmetry_space_group_name_H-M   'P 1'
_cell_length_a   9.26578494
_cell_length_b   9.32916598
_cell_length_c   9.98288949
_cell_angle_alpha   90.15072773
_cell_angle_beta   89.70166627
_cell_angle_gamma   60.04577302
_symmetry_Int_Tables_number   1
_chemical_formula_structural   Al11BN12
_chemical_formula_sum   'Al33 B3 N36'
_cell_volume   747.64986364
_cell_formula_units_Z   3
loop_
 _symmetry_equiv_pos_site_id
 _symmetry_equiv_pos_as_xyz
  1  'x, y, z'
loop_
 _atom_site_type_symbol
 _atom_site_label
 _atom_site_symmetry_multiplicity
 _atom_site_fract_x
 _atom_site_fract_y
 _atom_site_fract_z
 _atom_site_occupancy
  Al  Al0  1  0.11267436  0.08853208  0.30734483  1
  Al  Al1  1  0.22426393  0.19862938  0.05850977  1
  Al  Al2  1  0.88954140  0.20720811  0.56488750  1
  Al  Al3  1  0.44516932  0.09481817  0.30700964  1
  Al  Al4  1  0.56204117  0.20451871  0.05507904  1
  Al  Al5  1  0.10972033  0.08936897  0.81364953  1
  Al  Al6  1  0.22156215  0.20641621  0.56143784  1
  Al  Al7  1  0.77790914  0.09649915  0.30952931  1
  Al  Al8  1  0.88973806  0.19662295  0.05475164  1
  Al  Al9  1  0.46201911  0.08541053  0.80967041  1
  Al  Al10  1  0.55393177  0.20762874  0.56372865  1
  Al  Al11  1  0.11220741  0.42591413  0.30958012  1
  Al  Al12  1  0.22774272  0.53715307  0.06167915  1
  Al  Al13  1  0.77171088  0.43771555  0.80897107  1
  Al  Al14  1  0.88822095  0.54236944  0.55679264  1
  Al  Al15  1  0.44631581  0.42586523  0.31237694  1
  Al  Al16  1  0.55051672  0.54190441  0.06075728  1
  Al  Al17  1  0.10861216  0.43117016  0.81128772  1
  Al  Al18  1  0.21525017  0.54756322  0.56278339  1
  Al  Al19  1  0.77914309  0.42416340  0.30867388  1
  Al  Al20  1  0.88736726  0.53869472  0.06620468  1
  Al  Al21  1  0.44614309  0.43051449  0.80646625  1
  Al  Al22  1  0.55345547  0.54482286  0.55907902  1
  Al  Al23  1  0.12099909  0.75965743  0.30700842  1
  Al  Al24  1  0.87612630  0.87150959  0.65271965  1
  Al  Al25  1  0.43824572  0.76476143  0.30426246  1
  Al  Al26  1  0.55637639  0.86956199  0.06374735  1
  Al  Al27  1  0.11390588  0.75391183  0.83035569  1
  Al  Al28  1  0.21865791  0.87307860  0.56425738  1
  Al  Al29  1  0.77826220  0.75962000  0.33420244  1
  Al  Al30  1  0.89171865  0.86791337  0.11543302  1
  Al  Al31  1  0.44806388  0.76246039  0.81592720  1
  Al  Al32  1  0.55206229  0.87483897  0.55527646  1
  B  B33  1  0.74916930  0.15388429  0.79718109  1
  B  B34  1  0.22439272  0.86952987  0.05536895  1
  B  B35  1  0.78343559  0.75154159  0.85662843  1
  N  N36  1  0.22186376  0.20403933  0.36788659  1
  N  N37  1  0.12122346  0.06969864  0.11075698  1
  N  N38  1  0.87058090  0.20237177  0.86068200  1
  N  N39  1  0.76965668  0.11114141  0.64835760  1
  N  N40  1  0.55749804  0.20395880  0.37391307  1
  N  N41  1  0.44764291  0.09520642  0.11350806  1
  N  N42  1  0.22534377  0.20229682  0.86809230  1
  N  N43  1  0.11115414  0.09450651  0.62403198  1
  N  N44  1  0.88920485  0.20373387  0.37362813  1
  N  N45  1  0.77536861  0.09796281  0.11846024  1
  N  N46  1  0.58087108  0.20194479  0.86092842  1
  N  N47  1  0.44493797  0.09481193  0.62142456  1
  N  N48  1  0.22164576  0.54011079  0.37005611  1
  N  N49  1  0.11321849  0.42479693  0.11811122  1
  N  N50  1  0.87581119  0.55798532  0.87136043  1
  N  N51  1  0.77636875  0.43185075  0.62010838  1
  N  N52  1  0.55432482  0.54242904  0.36684368  1
  N  N53  1  0.44803360  0.42334888  0.12137083  1
  N  N54  1  0.23052151  0.52807469  0.87350182  1
  N  N55  1  0.10944437  0.42964825  0.62129336  1
  N  N56  1  0.89239748  0.52943057  0.36686189  1
  N  N57  1  0.77929861  0.42124821  0.11635472  1
  N  N58  1  0.55280794  0.54166385  0.87096170  1
  N  N59  1  0.44190934  0.43230173  0.61743302  1
  N  N60  1  0.22214866  0.87232017  0.37501954  1
  N  N61  1  0.13203132  0.76773407  0.10766058  1
  N  N62  1  0.88213119  0.83335263  0.84551405  1
  N  N63  1  0.77749550  0.76796392  0.57367365  1
  N  N64  1  0.54500022  0.87661498  0.36388474  1
  N  N65  1  0.41959254  0.77401923  0.11032213  1
  N  N66  1  0.22287479  0.87291897  0.89151167  1
  N  N67  1  0.11126536  0.76510202  0.63508515  1
  N  N68  1  0.89532300  0.87094956  0.32091238  1
  N  N69  1  0.77284423  0.75387609  0.12795511  1
  N  N70  1  0.58757252  0.85478828  0.86925422  1
  N  N71  1  0.44170975  0.76539491  0.62506627  1
