# generated using pymatgen
data_Al11BN12
_symmetry_space_group_name_H-M   'P 1'
_cell_length_a   9.30329436
_cell_length_b   9.29828435
_cell_length_c   10.05764761
_cell_angle_alpha   90.09390927
_cell_angle_beta   90.05090157
_cell_angle_gamma   59.90299845
_symmetry_Int_Tables_number   1
_chemical_formula_structural   Al11BN12
_chemical_formula_sum   'Al33 B3 N36'
_cell_volume   752.73258314
_cell_formula_units_Z   3
loop_
 _symmetry_equiv_pos_site_id
 _symmetry_equiv_pos_as_xyz
  1  'x, y, z'
loop_
 _atom_site_type_symbol
 _atom_site_label
 _atom_site_symmetry_multiplicity
 _atom_site_fract_x
 _atom_site_fract_y
 _atom_site_fract_z
 _atom_site_occupancy
  Al  Al0  1  0.11283731  0.08862793  0.31752744  1
  Al  Al1  1  0.21569871  0.20437198  0.06900316  1
  Al  Al2  1  0.89471535  0.20578144  0.57245177  1
  Al  Al3  1  0.44170033  0.09366265  0.32172222  1
  Al  Al4  1  0.55972593  0.20589566  0.12975898  1
  Al  Al5  1  0.10723425  0.09103756  0.82491922  1
  Al  Al6  1  0.22836427  0.20106537  0.57429991  1
  Al  Al7  1  0.77813968  0.08704882  0.38962129  1
  Al  Al8  1  0.89399426  0.20088332  0.06445272  1
  Al  Al9  1  0.45085113  0.09321864  0.85200342  1
  Al  Al10  1  0.56824931  0.19839871  0.64653590  1
  Al  Al11  1  0.11041963  0.42841210  0.32199254  1
  Al  Al12  1  0.22291144  0.54231939  0.07082626  1
  Al  Al13  1  0.77747256  0.42774196  0.82067764  1
  Al  Al14  1  0.89273464  0.53324207  0.57215175  1
  Al  Al15  1  0.44233090  0.43313144  0.32331975  1
  Al  Al16  1  0.55071269  0.54276449  0.07100323  1
  Al  Al17  1  0.10629627  0.43390959  0.81924094  1
  Al  Al18  1  0.22119783  0.54218521  0.57558854  1
  Al  Al19  1  0.77942683  0.42664911  0.31935220  1
  Al  Al20  1  0.89005700  0.53733265  0.06408843  1
  Al  Al21  1  0.44770309  0.43045455  0.82700458  1
  Al  Al22  1  0.55488536  0.54088784  0.57372760  1
  Al  Al23  1  0.11779576  0.76124310  0.31504907  1
  Al  Al24  1  0.87948537  0.87652310  0.65410271  1
  Al  Al25  1  0.43673928  0.75949182  0.31650313  1
  Al  Al26  1  0.55378517  0.86971966  0.12243310  1
  Al  Al27  1  0.10860701  0.76447407  0.83948058  1
  Al  Al28  1  0.22229850  0.87055735  0.57694878  1
  Al  Al29  1  0.77550330  0.76689938  0.38817604  1
  Al  Al30  1  0.88797367  0.87625690  0.12502395  1
  Al  Al31  1  0.44494685  0.75871512  0.83617449  1
  Al  Al32  1  0.56732121  0.86588266  0.65109872  1
  B  B33  1  0.76788640  0.09182488  0.90211787  1
  B  B34  1  0.22275543  0.87037716  0.06710590  1
  B  B35  1  0.76934848  0.77575051  0.90317320  1
  N  N36  1  0.22341185  0.20265602  0.38041729  1
  N  N37  1  0.12061499  0.07026514  0.12525105  1
  N  N38  1  0.88020454  0.19543283  0.87454746  1
  N  N39  1  0.78038851  0.08745825  0.57843182  1
  N  N40  1  0.56253961  0.20119444  0.32648055  1
  N  N41  1  0.43909448  0.09882593  0.10755333  1
  N  N42  1  0.21434977  0.20970882  0.88140177  1
  N  N43  1  0.11386457  0.09232937  0.63536977  1
  N  N44  1  0.89347119  0.20570554  0.37808969  1
  N  N45  1  0.77179107  0.09201993  0.06061367  1
  N  N46  1  0.58557306  0.19375473  0.84476179  1
  N  N47  1  0.44382364  0.09439388  0.63807384  1
  N  N48  1  0.22035252  0.54215770  0.38331002  1
  N  N49  1  0.10886164  0.43076444  0.13198681  1
  N  N50  1  0.88080683  0.55692344  0.87415886  1
  N  N51  1  0.77782261  0.42742864  0.63192634  1
  N  N52  1  0.55599410  0.54044680  0.38249610  1
  N  N53  1  0.44046056  0.43621147  0.13151253  1
  N  N54  1  0.22408867  0.53606767  0.88399546  1
  N  N55  1  0.11331200  0.42656148  0.63059542  1
  N  N56  1  0.89161852  0.53319197  0.38028886  1
  N  N57  1  0.77816582  0.42757490  0.12872861  1
  N  N58  1  0.55884744  0.53723331  0.88542726  1
  N  N59  1  0.44407375  0.43063664  0.63436059  1
  N  N60  1  0.22189833  0.87094238  0.38756729  1
  N  N61  1  0.12686981  0.77279309  0.11964836  1
  N  N62  1  0.86254007  0.88512823  0.84956963  1
  N  N63  1  0.77743975  0.76673464  0.57847165  1
  N  N64  1  0.56219686  0.86433656  0.31917863  1
  N  N65  1  0.41508577  0.77198593  0.12117171  1
  N  N66  1  0.22267189  0.87394206  0.90484251  1
  N  N67  1  0.11318553  0.76155769  0.64550123  1
  N  N68  1  0.88497095  0.87242592  0.31684959  1
  N  N69  1  0.77385865  0.77024139  0.06148076  1
  N  N70  1  0.58472160  0.85661677  0.84924407  1
  N  N71  1  0.44175557  0.75967903  0.64226324  1
