# generated using pymatgen
data_Al11BN12
_symmetry_space_group_name_H-M   'P 1'
_cell_length_a   9.27704753
_cell_length_b   9.26006471
_cell_length_c   10.09275247
_cell_angle_alpha   90.05714320
_cell_angle_beta   89.69432974
_cell_angle_gamma   59.98495239
_symmetry_Int_Tables_number   1
_chemical_formula_structural   Al11BN12
_chemical_formula_sum   'Al33 B3 N36'
_cell_volume   750.73750457
_cell_formula_units_Z   3
loop_
 _symmetry_equiv_pos_site_id
 _symmetry_equiv_pos_as_xyz
  1  'x, y, z'
loop_
 _atom_site_type_symbol
 _atom_site_label
 _atom_site_symmetry_multiplicity
 _atom_site_fract_x
 _atom_site_fract_y
 _atom_site_fract_z
 _atom_site_occupancy
  Al  Al0  1  0.11414536  0.08913336  0.30792987  1
  Al  Al1  1  0.22301006  0.20097664  0.06025151  1
  Al  Al2  1  0.89311625  0.20586708  0.56498800  1
  Al  Al3  1  0.44393045  0.09420473  0.30960014  1
  Al  Al4  1  0.54990393  0.20830441  0.06019871  1
  Al  Al5  1  0.10985384  0.08980963  0.81718001  1
  Al  Al6  1  0.22186660  0.20464027  0.56225360  1
  Al  Al7  1  0.78345571  0.08503691  0.38024609  1
  Al  Al8  1  0.89711820  0.20006224  0.05693694  1
  Al  Al9  1  0.45630640  0.08860143  0.81138876  1
  Al  Al10  1  0.54898639  0.20900068  0.56214600  1
  Al  Al11  1  0.11146182  0.42741636  0.31193161  1
  Al  Al12  1  0.22626814  0.54086937  0.06117777  1
  Al  Al13  1  0.77717742  0.42763970  0.81159226  1
  Al  Al14  1  0.89132029  0.53471726  0.56460087  1
  Al  Al15  1  0.44481587  0.42760054  0.31237901  1
  Al  Al16  1  0.55202031  0.54164483  0.06082486  1
  Al  Al17  1  0.10847142  0.43279076  0.81143787  1
  Al  Al18  1  0.21677074  0.54626078  0.56562951  1
  Al  Al19  1  0.77917995  0.42675694  0.30892104  1
  Al  Al20  1  0.89291455  0.53508726  0.05654527  1
  Al  Al21  1  0.45242314  0.42222425  0.81075654  1
  Al  Al22  1  0.55471922  0.54045352  0.56143100  1
  Al  Al23  1  0.12069210  0.76011267  0.30540220  1
  Al  Al24  1  0.87136989  0.88106796  0.65036243  1
  Al  Al25  1  0.43956349  0.76329135  0.30804925  1
  Al  Al26  1  0.54563285  0.87608987  0.06024212  1
  Al  Al27  1  0.11119250  0.76332433  0.83054234  1
  Al  Al28  1  0.21746341  0.87152749  0.56680892  1
  Al  Al29  1  0.78243562  0.76410821  0.38003311  1
  Al  Al30  1  0.89097456  0.87436625  0.11958733  1
  Al  Al31  1  0.45011667  0.75995143  0.81730585  1
  Al  Al32  1  0.54791120  0.87450045  0.56269320  1
  B  B33  1  0.77338477  0.08659795  0.89816537  1
  B  B34  1  0.22530014  0.87056156  0.05852080  1
  B  B35  1  0.77296991  0.77464186  0.89877455  1
  N  N36  1  0.22184216  0.20400609  0.37120253  1
  N  N37  1  0.12439085  0.06905912  0.11536399  1
  N  N38  1  0.88082228  0.19401179  0.86696230  1
  N  N39  1  0.78036371  0.08785745  0.57173424  1
  N  N40  1  0.55005704  0.20742913  0.36980705  1
  N  N41  1  0.44303068  0.09560257  0.12139935  1
  N  N42  1  0.22358470  0.20510867  0.87169660  1
  N  N43  1  0.11264306  0.09310979  0.62750715  1
  N  N44  1  0.89406186  0.20636918  0.36865033  1
  N  N45  1  0.77964127  0.08809377  0.05836767  1
  N  N46  1  0.57449209  0.19577474  0.86923724  1
  N  N47  1  0.44318292  0.09492899  0.62376660  1
  N  N48  1  0.21983609  0.54275207  0.37349821  1
  N  N49  1  0.11231370  0.42822855  0.12200588  1
  N  N50  1  0.88092137  0.55779647  0.86678103  1
  N  N51  1  0.77636207  0.42812908  0.62317728  1
  N  N52  1  0.55549290  0.54044497  0.37046571  1
  N  N53  1  0.44610037  0.42693091  0.12381618  1
  N  N54  1  0.22749878  0.53429698  0.87452914  1
  N  N55  1  0.11203313  0.42740593  0.62279282  1
  N  N56  1  0.89200710  0.53248493  0.37078776  1
  N  N57  1  0.77952842  0.42649542  0.11897786  1
  N  N58  1  0.55693549  0.53761256  0.87353199  1
  N  N59  1  0.44238622  0.43011719  0.62214264  1
  N  N60  1  0.22087537  0.87172723  0.37814231  1
  N  N61  1  0.13155297  0.77079970  0.11119745  1
  N  N62  1  0.86065240  0.88636218  0.84424507  1
  N  N63  1  0.77924710  0.76601425  0.57187928  1
  N  N64  1  0.54915288  0.87358292  0.36803825  1
  N  N65  1  0.42135885  0.77274997  0.11556169  1
  N  N66  1  0.22724597  0.87183026  0.89543767  1
  N  N67  1  0.10896542  0.76387155  0.63850118  1
  N  N68  1  0.88631444  0.87235845  0.30773757  1
  N  N69  1  0.78012602  0.76651182  0.05946402  1
  N  N70  1  0.57471042  0.86355284  0.87055684  1
  N  N71  1  0.44088844  0.76212889  0.62748995  1
