# generated using pymatgen
data_Al11BN12
_symmetry_space_group_name_H-M   'P 1'
_cell_length_a   9.29160373
_cell_length_b   9.27393618
_cell_length_c   10.01378003
_cell_angle_alpha   89.73876335
_cell_angle_beta   89.63496608
_cell_angle_gamma   60.01394857
_symmetry_Int_Tables_number   1
_chemical_formula_structural   Al11BN12
_chemical_formula_sum   'Al33 B3 N36'
_cell_volume   747.36907715
_cell_formula_units_Z   3
loop_
 _symmetry_equiv_pos_site_id
 _symmetry_equiv_pos_as_xyz
  1  'x, y, z'
loop_
 _atom_site_type_symbol
 _atom_site_label
 _atom_site_symmetry_multiplicity
 _atom_site_fract_x
 _atom_site_fract_y
 _atom_site_fract_z
 _atom_site_occupancy
  Al  Al0  1  0.10618484  0.10033867  0.39786354  1
  Al  Al1  1  0.22351615  0.19804112  0.14717453  1
  Al  Al2  1  0.88501323  0.20329161  0.65228256  1
  Al  Al3  1  0.44587562  0.09318112  0.39783882  1
  Al  Al4  1  0.55845701  0.20276575  0.14407400  1
  Al  Al5  1  0.10540841  0.09421548  0.89731428  1
  Al  Al6  1  0.22119612  0.20711670  0.64954828  1
  Al  Al7  1  0.78188057  0.08868189  0.39348601  1
  Al  Al8  1  0.89246374  0.19776943  0.13973246  1
  Al  Al9  1  0.45444296  0.08958477  0.89861418  1
  Al  Al10  1  0.56015285  0.20330658  0.65006117  1
  Al  Al11  1  0.10609371  0.42741309  0.39239179  1
  Al  Al12  1  0.22366927  0.54552405  0.07953731  1
  Al  Al13  1  0.77724753  0.42810393  0.89787604  1
  Al  Al14  1  0.88568708  0.54468792  0.65016788  1
  Al  Al15  1  0.45138052  0.42351721  0.39476688  1
  Al  Al16  1  0.55083279  0.54367395  0.14846835  1
  Al  Al17  1  0.10393222  0.43018861  0.89701047  1
  Al  Al18  1  0.21590411  0.54780553  0.58026790  1
  Al  Al19  1  0.77884002  0.42673374  0.39693785  1
  Al  Al20  1  0.88586381  0.54151387  0.14164596  1
  Al  Al21  1  0.45929302  0.41816898  0.89757129  1
  Al  Al22  1  0.55624666  0.53834464  0.64927552  1
  Al  Al23  1  0.12058939  0.76465426  0.31544768  1
  Al  Al24  1  0.87498074  0.87889364  0.65696599  1
  Al  Al25  1  0.45053052  0.75980453  0.39894409  1
  Al  Al26  1  0.55042785  0.87314831  0.14264262  1
  Al  Al27  1  0.10973221  0.75959744  0.83738259  1
  Al  Al28  1  0.21720695  0.87091974  0.58648561  1
  Al  Al29  1  0.78067121  0.76323312  0.39274643  1
  Al  Al30  1  0.88719042  0.87600506  0.12334724  1
  Al  Al31  1  0.45453350  0.75666642  0.89831216  1
  Al  Al32  1  0.56112735  0.86997508  0.65247064  1
  B  B33  1  0.77126855  0.09200422  0.90288032  1
  B  B34  1  0.22357263  0.86956564  0.06485548  1
  B  B35  1  0.77066997  0.77085097  0.90327698  1
  N  N36  1  0.22341339  0.20405405  0.33727628  1
  N  N37  1  0.12269300  0.07185393  0.08931710  1
  N  N38  1  0.87678041  0.19091905  0.84445490  1
  N  N39  1  0.77922199  0.09183346  0.58303638  1
  N  N40  1  0.55890694  0.20231160  0.33441487  1
  N  N41  1  0.44426393  0.09521814  0.08648145  1
  N  N42  1  0.22297209  0.20405231  0.83954722  1
  N  N43  1  0.10480237  0.10293892  0.59341395  1
  N  N44  1  0.88787214  0.20478997  0.33162527  1
  N  N45  1  0.77505325  0.09687748  0.06319593  1
  N  N46  1  0.58198425  0.19085841  0.84312445  1
  N  N47  1  0.44566697  0.09386846  0.59109921  1
  N  N48  1  0.21904297  0.54648212  0.37973295  1
  N  N49  1  0.10865803  0.42418937  0.09041830  1
  N  N50  1  0.87690964  0.56450896  0.84257161  1
  N  N51  1  0.77921901  0.42680080  0.58987369  1
  N  N52  1  0.55701072  0.53973676  0.33766599  1
  N  N53  1  0.45332383  0.42331783  0.08973925  1
  N  N54  1  0.22638523  0.53693114  0.88399590  1
  N  N55  1  0.10541772  0.42699433  0.58786904  1
  N  N56  1  0.88555003  0.54158371  0.33242795  1
  N  N57  1  0.77728569  0.42711543  0.08657099  1
  N  N58  1  0.55877121  0.53750969  0.83747969  1
  N  N59  1  0.44926712  0.42449404  0.58960064  1
  N  N60  1  0.21989732  0.87034059  0.39305770  1
  N  N61  1  0.12997358  0.77522141  0.12163209  1
  N  N62  1  0.86231212  0.88422881  0.85400074  1
  N  N63  1  0.77861630  0.76341521  0.58257703  1
  N  N64  1  0.55757075  0.87174178  0.33329919  1
  N  N65  1  0.42506038  0.77109215  0.08961468  1
  N  N66  1  0.22379072  0.86605805  0.89017873  1
  N  N67  1  0.10794080  0.76237397  0.64733523  1
  N  N68  1  0.88504076  0.87400620  0.31870140  1
  N  N69  1  0.77429626  0.76156744  0.06474311  1
  N  N70  1  0.58093585  0.86015375  0.84557627  1
  N  N71  1  0.45087587  0.76017275  0.59425612  1
