# generated using pymatgen
data_Al11BN12
_symmetry_space_group_name_H-M   'P 1'
_cell_length_a   9.29774307
_cell_length_b   9.34290811
_cell_length_c   10.04549936
_cell_angle_alpha   90.10387019
_cell_angle_beta   90.00862079
_cell_angle_gamma   60.05540540
_symmetry_Int_Tables_number   1
_chemical_formula_structural   Al11BN12
_chemical_formula_sum   'Al33 B3 N36'
_cell_volume   756.14154191
_cell_formula_units_Z   3
loop_
 _symmetry_equiv_pos_site_id
 _symmetry_equiv_pos_as_xyz
  1  'x, y, z'
loop_
 _atom_site_type_symbol
 _atom_site_label
 _atom_site_symmetry_multiplicity
 _atom_site_fract_x
 _atom_site_fract_y
 _atom_site_fract_z
 _atom_site_occupancy
  Al  Al0  1  0.11408291  0.08811611  0.31689501  1
  Al  Al1  1  0.21862727  0.20329828  0.06862342  1
  Al  Al2  1  0.89591949  0.20534779  0.57047203  1
  Al  Al3  1  0.44175200  0.09460442  0.31883804  1
  Al  Al4  1  0.55639417  0.20831854  0.12430986  1
  Al  Al5  1  0.10778226  0.08927210  0.82679651  1
  Al  Al6  1  0.22746614  0.20100939  0.57165329  1
  Al  Al7  1  0.77906603  0.08697890  0.38767106  1
  Al  Al8  1  0.89380563  0.20345867  0.06692885  1
  Al  Al9  1  0.44972272  0.09815638  0.83370737  1
  Al  Al10  1  0.56495673  0.20417644  0.63132776  1
  Al  Al11  1  0.10970534  0.42806087  0.32193209  1
  Al  Al12  1  0.22189412  0.54163783  0.07119713  1
  Al  Al13  1  0.77918008  0.41647646  0.81958304  1
  Al  Al14  1  0.89362406  0.53147356  0.57649872  1
  Al  Al15  1  0.44211533  0.43282609  0.32452161  1
  Al  Al16  1  0.55084331  0.54241646  0.07131183  1
  Al  Al17  1  0.11239535  0.42193616  0.81926734  1
  Al  Al18  1  0.21834881  0.54413094  0.57567821  1
  Al  Al19  1  0.77939789  0.42756722  0.32008134  1
  Al  Al20  1  0.88983783  0.53567738  0.05490883  1
  Al  Al21  1  0.44680727  0.43050181  0.82620677  1
  Al  Al22  1  0.55474542  0.54220451  0.57341717  1
  Al  Al23  1  0.11853342  0.76052459  0.31565581  1
  Al  Al24  1  0.87791896  0.87909456  0.65468422  1
  Al  Al25  1  0.43718366  0.75910991  0.31782484  1
  Al  Al26  1  0.55312558  0.87019062  0.12621215  1
  Al  Al27  1  0.10868814  0.76196759  0.84146285  1
  Al  Al28  1  0.22175325  0.87110605  0.57855496  1
  Al  Al29  1  0.77737849  0.76451316  0.39001544  1
  Al  Al30  1  0.88901615  0.87776351  0.12712012  1
  Al  Al31  1  0.44737788  0.75830237  0.83820238  1
  Al  Al32  1  0.56859582  0.86511850  0.64741171  1
  B  B33  1  0.76749871  0.09970902  0.90374428  1
  B  B34  1  0.22314229  0.87003840  0.06671150  1
  B  B35  1  0.74876182  0.82207459  0.90887646  1
  N  N36  1  0.22339864  0.20230023  0.38015123  1
  N  N37  1  0.12146937  0.07003933  0.12423672  1
  N  N38  1  0.87838321  0.18817775  0.87538146  1
  N  N39  1  0.78219393  0.08690053  0.57763906  1
  N  N40  1  0.56008374  0.20403128  0.33546801  1
  N  N41  1  0.43736036  0.09903017  0.12169400  1
  N  N42  1  0.22572652  0.19870143  0.88106636  1
  N  N43  1  0.11416600  0.09226096  0.63622567  1
  N  N44  1  0.89421762  0.20553242  0.37622126  1
  N  N45  1  0.77229191  0.09329389  0.06458390  1
  N  N46  1  0.58215786  0.19804727  0.84943447  1
  N  N47  1  0.44502899  0.09471468  0.63558443  1
  N  N48  1  0.21899609  0.54335354  0.38338945  1
  N  N49  1  0.10739559  0.43120147  0.13166823  1
  N  N50  1  0.89911811  0.51214374  0.87379726  1
  N  N51  1  0.77668946  0.42465529  0.63005181  1
  N  N52  1  0.55503684  0.54152558  0.38259625  1
  N  N53  1  0.43964613  0.43640458  0.13249356  1
  N  N54  1  0.22267418  0.53441599  0.88376855  1
  N  N55  1  0.11652363  0.42348558  0.62989581  1
  N  N56  1  0.89203905  0.53253543  0.38320252  1
  N  N57  1  0.77665643  0.43004592  0.13009238  1
  N  N58  1  0.55867933  0.53688324  0.88489152  1
  N  N59  1  0.44186822  0.43362123  0.63298500  1
  N  N60  1  0.22164649  0.87120717  0.38843066  1
  N  N61  1  0.12723720  0.77237433  0.11946880  1
  N  N62  1  0.85639110  0.89230946  0.85083776  1
  N  N63  1  0.78011348  0.76509775  0.58041322  1
  N  N64  1  0.56331869  0.86333620  0.32240761  1
  N  N65  1  0.41571124  0.77182399  0.12110300  1
  N  N66  1  0.22324803  0.87183077  0.90491232  1
  N  N67  1  0.11142705  0.76270718  0.64776738  1
  N  N68  1  0.88522228  0.87158792  0.31771353  1
  N  N69  1  0.77240642  0.77490848  0.05581465  1
  N  N70  1  0.58427604  0.86395231  0.84753784  1
  N  N71  1  0.44260296  0.76046380  0.64360831  1
