# generated using pymatgen
data_Al11BN12
_symmetry_space_group_name_H-M   'P 1'
_cell_length_a   9.30025611
_cell_length_b   9.27307394
_cell_length_c   10.06877564
_cell_angle_alpha   90.11032638
_cell_angle_beta   90.16166446
_cell_angle_gamma   59.99685967
_symmetry_Int_Tables_number   1
_chemical_formula_structural   Al11BN12
_chemical_formula_sum   'Al33 B3 N36'
_cell_volume   751.98707685
_cell_formula_units_Z   3
loop_
 _symmetry_equiv_pos_site_id
 _symmetry_equiv_pos_as_xyz
  1  'x, y, z'
loop_
 _atom_site_type_symbol
 _atom_site_label
 _atom_site_symmetry_multiplicity
 _atom_site_fract_x
 _atom_site_fract_y
 _atom_site_fract_z
 _atom_site_occupancy
  Al  Al0  1  0.11256252  0.08894461  0.31357012  1
  Al  Al1  1  0.21694887  0.20634875  0.06971243  1
  Al  Al2  1  0.88832952  0.20033413  0.61970389  1
  Al  Al3  1  0.45237213  0.08733809  0.38964423  1
  Al  Al4  1  0.55946944  0.20131688  0.13889420  1
  Al  Al5  1  0.11425894  0.08838577  0.83131481  1
  Al  Al6  1  0.21713849  0.20451081  0.57194689  1
  Al  Al7  1  0.78277699  0.08935518  0.38909118  1
  Al  Al8  1  0.89208746  0.20220855  0.07094738  1
  Al  Al9  1  0.46009505  0.08937661  0.89139077  1
  Al  Al10  1  0.56365552  0.19541150  0.64198880  1
  Al  Al11  1  0.11087378  0.42643829  0.32043171  1
  Al  Al12  1  0.22500948  0.54212558  0.07094191  1
  Al  Al13  1  0.77413342  0.43595834  0.82574918  1
  Al  Al14  1  0.89192247  0.53081624  0.56969393  1
  Al  Al15  1  0.44254834  0.43168652  0.32472208  1
  Al  Al16  1  0.54840846  0.54520278  0.07115928  1
  Al  Al17  1  0.10707384  0.43447363  0.81897359  1
  Al  Al18  1  0.22005601  0.54187024  0.57394082  1
  Al  Al19  1  0.77917028  0.42527983  0.31537465  1
  Al  Al20  1  0.88900594  0.54233532  0.06357354  1
  Al  Al21  1  0.44777668  0.42884027  0.82419781  1
  Al  Al22  1  0.55464873  0.53995614  0.57248113  1
  Al  Al23  1  0.11730923  0.76147070  0.31401377  1
  Al  Al24  1  0.87993316  0.87242635  0.65323255  1
  Al  Al25  1  0.43628531  0.76050926  0.31797370  1
  Al  Al26  1  0.55153977  0.87725807  0.13260426  1
  Al  Al27  1  0.10972674  0.76399675  0.83930844  1
  Al  Al28  1  0.22112132  0.86996969  0.57581251  1
  Al  Al29  1  0.77755679  0.76499075  0.38657744  1
  Al  Al30  1  0.88726024  0.87875266  0.12385061  1
  Al  Al31  1  0.44532438  0.75994218  0.83295781  1
  Al  Al32  1  0.56561392  0.86827988  0.64656449  1
  B  B33  1  0.76714381  0.09046323  0.89804572  1
  B  B34  1  0.22509996  0.87099277  0.06672755  1
  B  B35  1  0.76870014  0.77827853  0.90076737  1
  N  N36  1  0.21898911  0.20362381  0.37832264  1
  N  N37  1  0.12450288  0.06960421  0.11944612  1
  N  N38  1  0.87930983  0.19414030  0.86444594  1
  N  N39  1  0.78046125  0.08583155  0.57913474  1
  N  N40  1  0.56113809  0.19776283  0.33009164  1
  N  N41  1  0.44661736  0.09691185  0.07945691  1
  N  N42  1  0.21815106  0.21037563  0.87850498  1
  N  N43  1  0.11622594  0.08890620  0.64093446  1
  N  N44  1  0.89069488  0.20257855  0.35210025  1
  N  N45  1  0.76867415  0.09552858  0.05658002  1
  N  N46  1  0.58402379  0.18999102  0.83573086  1
  N  N47  1  0.45096473  0.08775138  0.58327121  1
  N  N48  1  0.21968391  0.54184586  0.38275350  1
  N  N49  1  0.10873452  0.43216140  0.13073273  1
  N  N50  1  0.88104204  0.56137386  0.87398870  1
  N  N51  1  0.77535285  0.42984337  0.63624558  1
  N  N52  1  0.55662387  0.54020773  0.38218843  1
  N  N53  1  0.44220981  0.43398249  0.13345945  1
  N  N54  1  0.22556555  0.53570105  0.88389796  1
  N  N55  1  0.11193893  0.42646837  0.63068855  1
  N  N56  1  0.89140872  0.53169362  0.37847532  1
  N  N57  1  0.77626328  0.43320928  0.12293453  1
  N  N58  1  0.55566390  0.53893427  0.88537516  1
  N  N59  1  0.44312156  0.42909867  0.63215837  1
  N  N60  1  0.22110658  0.87166415  0.38722268  1
  N  N61  1  0.12708954  0.77371446  0.11889556  1
  N  N62  1  0.86296330  0.88534781  0.84844348  1
  N  N63  1  0.77812636  0.76401373  0.57685022  1
  N  N64  1  0.55979099  0.86956109  0.32286935  1
  N  N65  1  0.41595140  0.77410123  0.12312839  1
  N  N66  1  0.22585825  0.87131083  0.90496137  1
  N  N67  1  0.11289769  0.76051040  0.64537722  1
  N  N68  1  0.88479002  0.87226170  0.31586028  1
  N  N69  1  0.76910708  0.77546709  0.06041174  1
  N  N70  1  0.58389486  0.86107701  0.84025017  1
  N  N71  1  0.44093327  0.75967293  0.64018265  1
