# generated using pymatgen
data_Al11BN12
_symmetry_space_group_name_H-M   'P 1'
_cell_length_a   9.26868341
_cell_length_b   9.27679365
_cell_length_c   10.09088016
_cell_angle_alpha   90.00377564
_cell_angle_beta   89.69004355
_cell_angle_gamma   60.10935504
_symmetry_Int_Tables_number   1
_chemical_formula_structural   Al11BN12
_chemical_formula_sum   'Al33 B3 N36'
_cell_volume   752.21948023
_cell_formula_units_Z   3
loop_
 _symmetry_equiv_pos_site_id
 _symmetry_equiv_pos_as_xyz
  1  'x, y, z'
loop_
 _atom_site_type_symbol
 _atom_site_label
 _atom_site_symmetry_multiplicity
 _atom_site_fract_x
 _atom_site_fract_y
 _atom_site_fract_z
 _atom_site_occupancy
  Al  Al0  1  0.11422568  0.08886737  0.31035850  1
  Al  Al1  1  0.22315427  0.20119191  0.06298596  1
  Al  Al2  1  0.89328534  0.20544578  0.56665906  1
  Al  Al3  1  0.44391874  0.09454204  0.31269445  1
  Al  Al4  1  0.54945581  0.20918303  0.06321865  1
  Al  Al5  1  0.11035748  0.08847670  0.82029230  1
  Al  Al6  1  0.22200758  0.20432010  0.56433984  1
  Al  Al7  1  0.78304940  0.08511818  0.38234918  1
  Al  Al8  1  0.89678377  0.20118281  0.06065140  1
  Al  Al9  1  0.45583562  0.09091717  0.81330152  1
  Al  Al10  1  0.54884919  0.20997407  0.56458847  1
  Al  Al11  1  0.11078130  0.42754575  0.31457685  1
  Al  Al12  1  0.22563798  0.54063707  0.06395633  1
  Al  Al13  1  0.77873234  0.42252401  0.81363995  1
  Al  Al14  1  0.89137906  0.53403107  0.56928582  1
  Al  Al15  1  0.44439845  0.42816431  0.31506880  1
  Al  Al16  1  0.55238793  0.54144611  0.06352503  1
  Al  Al17  1  0.11104896  0.42711868  0.81364108  1
  Al  Al18  1  0.21637381  0.54623917  0.56841173  1
  Al  Al19  1  0.77917599  0.42718962  0.31181065  1
  Al  Al20  1  0.89306623  0.53442405  0.05409460  1
  Al  Al21  1  0.45140744  0.42372050  0.81361520  1
  Al  Al22  1  0.55461104  0.54070329  0.56419473  1
  Al  Al23  1  0.12079855  0.75986821  0.30835132  1
  Al  Al24  1  0.87083434  0.88144182  0.65257812  1
  Al  Al25  1  0.43959304  0.76324452  0.31114526  1
  Al  Al26  1  0.54465913  0.87671869  0.06463080  1
  Al  Al27  1  0.11144603  0.76187516  0.83357054  1
  Al  Al28  1  0.21738189  0.87158552  0.57010549  1
  Al  Al29  1  0.78310032  0.76315375  0.38374198  1
  Al  Al30  1  0.89139313  0.87547864  0.12292766  1
  Al  Al31  1  0.45193912  0.75961481  0.82043715  1
  Al  Al32  1  0.54800888  0.87486977  0.56531837  1
  B  B33  1  0.77369152  0.09105846  0.90102158  1
  B  B34  1  0.22537267  0.87014345  0.06092323  1
  B  B35  1  0.76410414  0.79614462  0.90445249  1
  N  N36  1  0.22169498  0.20394179  0.37346409  1
  N  N37  1  0.12457235  0.06879750  0.11769270  1
  N  N38  1  0.88015087  0.19025409  0.86975874  1
  N  N39  1  0.78030234  0.08750723  0.57390636  1
  N  N40  1  0.54972713  0.20831285  0.37232350  1
  N  N41  1  0.44330703  0.09562825  0.12463391  1
  N  N42  1  0.22731737  0.20079331  0.87443309  1
  N  N43  1  0.11257849  0.09283033  0.63032328  1
  N  N44  1  0.89396592  0.20626017  0.37047029  1
  N  N45  1  0.77914020  0.08906034  0.06212166  1
  N  N46  1  0.57396980  0.19794714  0.87217500  1
  N  N47  1  0.44366313  0.09496481  0.62573800  1
  N  N48  1  0.21944644  0.54310900  0.37614785  1
  N  N49  1  0.11156570  0.42837206  0.12472389  1
  N  N50  1  0.88926388  0.53767134  0.86828297  1
  N  N51  1  0.77594871  0.42643233  0.62493224  1
  N  N52  1  0.55507325  0.54105424  0.37321735  1
  N  N53  1  0.44558855  0.42738823  0.12649466  1
  N  N54  1  0.22660334  0.53357506  0.87716811  1
  N  N55  1  0.11341169  0.42590704  0.62472221  1
  N  N56  1  0.89194702  0.53245875  0.37473477  1
  N  N57  1  0.77918791  0.42741833  0.12214823  1
  N  N58  1  0.55753234  0.53770153  0.87608628  1
  N  N59  1  0.44194777  0.43059563  0.62482016  1
  N  N60  1  0.22074742  0.87185191  0.38111594  1
  N  N61  1  0.13155362  0.77071395  0.11374925  1
  N  N62  1  0.85793911  0.88941765  0.84701095  1
  N  N63  1  0.77932507  0.76529340  0.57542136  1
  N  N64  1  0.54952565  0.87376184  0.37051102  1
  N  N65  1  0.42154291  0.77246288  0.11828898  1
  N  N66  1  0.22803252  0.87053207  0.89804970  1
  N  N67  1  0.10833846  0.76383885  0.64177252  1
  N  N68  1  0.88612149  0.87222485  0.31069272  1
  N  N69  1  0.78088192  0.76795268  0.05902165  1
  N  N70  1  0.57466637  0.86746054  0.87385590  1
  N  N71  1  0.44132882  0.76230343  0.63067049  1
