# generated using pymatgen
data_Al11BN12
_symmetry_space_group_name_H-M   'P 1'
_cell_length_a   9.25890852
_cell_length_b   9.25918439
_cell_length_c   9.89685288
_cell_angle_alpha   89.99027180
_cell_angle_beta   89.93566201
_cell_angle_gamma   59.99522276
_symmetry_Int_Tables_number   1
_chemical_formula_structural   Al11BN12
_chemical_formula_sum   'Al33 B3 N36'
_cell_volume   734.74907166
_cell_formula_units_Z   3
loop_
 _symmetry_equiv_pos_site_id
 _symmetry_equiv_pos_as_xyz
  1  'x, y, z'
loop_
 _atom_site_type_symbol
 _atom_site_label
 _atom_site_symmetry_multiplicity
 _atom_site_fract_x
 _atom_site_fract_y
 _atom_site_fract_z
 _atom_site_occupancy
  Al  Al0  1  0.11198157  0.08960673  0.29830290  1
  Al  Al1  1  0.22360453  0.20062647  0.05196510  1
  Al  Al2  1  0.88863155  0.20334143  0.55962827  1
  Al  Al3  1  0.44601116  0.09351718  0.30238017  1
  Al  Al4  1  0.56200440  0.20210284  0.04800341  1
  Al  Al5  1  0.10898126  0.08982300  0.80794923  1
  Al  Al6  1  0.22100648  0.20480096  0.55258342  1
  Al  Al7  1  0.77879162  0.09237984  0.30486247  1
  Al  Al8  1  0.89046345  0.19667449  0.04792762  1
  Al  Al9  1  0.45462289  0.08919684  0.80151322  1
  Al  Al10  1  0.55706315  0.20462608  0.55751881  1
  Al  Al11  1  0.10909024  0.42913069  0.30249256  1
  Al  Al12  1  0.22416334  0.54229756  0.05230615  1
  Al  Al13  1  0.77587119  0.42832423  0.80305362  1
  Al  Al14  1  0.88697977  0.54197322  0.55930131  1
  Al  Al15  1  0.44540931  0.42632291  0.30240334  1
  Al  Al16  1  0.55140296  0.54200709  0.05276572  1
  Al  Al17  1  0.10832834  0.43315252  0.80180853  1
  Al  Al18  1  0.22138568  0.54123878  0.55213369  1
  Al  Al19  1  0.77983286  0.42690290  0.30270547  1
  Al  Al20  1  0.88709084  0.54454286  0.04743229  1
  Al  Al21  1  0.45013604  0.42409782  0.80125229  1
  Al  Al22  1  0.55477942  0.54070222  0.55151639  1
  Al  Al23  1  0.11005640  0.76575462  0.29887331  1
  Al  Al24  1  0.88757006  0.87299566  0.56718726  1
  Al  Al25  1  0.43981174  0.76471422  0.29787936  1
  Al  Al26  1  0.55716287  0.87085787  0.04836332  1
  Al  Al27  1  0.10620663  0.76504656  0.80900261  1
  Al  Al28  1  0.22206219  0.87190149  0.55380155  1
  Al  Al29  1  0.77853838  0.76221762  0.30476202  1
  Al  Al30  1  0.88694611  0.87619253  0.04376898  1
  Al  Al31  1  0.44757293  0.76042816  0.80814919  1
  Al  Al32  1  0.55597631  0.87089534  0.55780968  1
  B  B33  1  0.77181810  0.09327578  0.79636977  1
  B  B34  1  0.22172177  0.87312817  0.04729359  1
  B  B35  1  0.77162789  0.76831030  0.79672339  1
  N  N36  1  0.22102501  0.20441180  0.35868965  1
  N  N37  1  0.12206728  0.07011154  0.10259571  1
  N  N38  1  0.87651831  0.19100299  0.85482061  1
  N  N39  1  0.77577641  0.09542554  0.63317370  1
  N  N40  1  0.55705059  0.20446160  0.36545953  1
  N  N41  1  0.44718023  0.09354896  0.10857602  1
  N  N42  1  0.22284688  0.20544563  0.86070972  1
  N  N43  1  0.11210466  0.09228935  0.61630010  1
  N  N44  1  0.88986368  0.20376715  0.36486854  1
  N  N45  1  0.77886350  0.09178727  0.11523562  1
  N  N46  1  0.58073532  0.19286486  0.85361189  1
  N  N47  1  0.44336100  0.09467776  0.61158943  1
  N  N48  1  0.22082480  0.54170747  0.35876666  1
  N  N49  1  0.10990882  0.42853834  0.10962941  1
  N  N50  1  0.87710875  0.56497329  0.85401159  1
  N  N51  1  0.77676131  0.42795699  0.61250714  1
  N  N52  1  0.55506657  0.54109669  0.35827099  1
  N  N53  1  0.44666312  0.42423176  0.11060332  1
  N  N54  1  0.22531134  0.53738424  0.86185694  1
  N  N55  1  0.11170221  0.42801242  0.61082631  1
  N  N56  1  0.88743662  0.54105497  0.36623767  1
  N  N57  1  0.78128071  0.42551277  0.10786180  1
  N  N58  1  0.55603145  0.53808667  0.86313211  1
  N  N59  1  0.44423893  0.42878669  0.61035243  1
  N  N60  1  0.22205499  0.87192311  0.36420504  1
  N  N61  1  0.12007902  0.77543262  0.10155677  1
  N  N62  1  0.86624792  0.88354941  0.84893527  1
  N  N63  1  0.77528369  0.76252402  0.63327318  1
  N  N64  1  0.55578966  0.87063499  0.36389866  1
  N  N65  1  0.42095700  0.77481512  0.10264880  1
  N  N66  1  0.22413277  0.87104137  0.88260959  1
  N  N67  1  0.11280527  0.76157165  0.61773865  1
  N  N68  1  0.88916920  0.87201909  0.37107480  1
  N  N69  1  0.77916036  0.76287801  0.11415650  1
  N  N70  1  0.58081465  0.85975762  0.85495811  1
  N  N71  1  0.44254527  0.76155144  0.61624051  1
