# generated using pymatgen
data_Al11BN12
_symmetry_space_group_name_H-M   'P 1'
_cell_length_a   9.30393912
_cell_length_b   9.29724709
_cell_length_c   10.05479680
_cell_angle_alpha   90.09326596
_cell_angle_beta   90.04677011
_cell_angle_gamma   59.90703864
_symmetry_Int_Tables_number   1
_chemical_formula_structural   Al11BN12
_chemical_formula_sum   'Al33 B3 N36'
_cell_volume   752.51819281
_cell_formula_units_Z   3
loop_
 _symmetry_equiv_pos_site_id
 _symmetry_equiv_pos_as_xyz
  1  'x, y, z'
loop_
 _atom_site_type_symbol
 _atom_site_label
 _atom_site_symmetry_multiplicity
 _atom_site_fract_x
 _atom_site_fract_y
 _atom_site_fract_z
 _atom_site_occupancy
  Al  Al0  1  0.11266622  0.08859814  0.31741085  1
  Al  Al1  1  0.21518068  0.20462723  0.06903641  1
  Al  Al2  1  0.89455023  0.20578361  0.57252834  1
  Al  Al3  1  0.44253387  0.09318480  0.32727634  1
  Al  Al4  1  0.55959412  0.20558084  0.12983250  1
  Al  Al5  1  0.10724933  0.09103745  0.82480687  1
  Al  Al6  1  0.22796661  0.20126325  0.57460143  1
  Al  Al7  1  0.77826365  0.08697165  0.38967864  1
  Al  Al8  1  0.89395084  0.20088690  0.06442586  1
  Al  Al9  1  0.45186053  0.09276743  0.85921379  1
  Al  Al10  1  0.56784882  0.19796536  0.64682671  1
  Al  Al11  1  0.11024974  0.42862850  0.32188848  1
  Al  Al12  1  0.22299976  0.54229692  0.07078225  1
  Al  Al13  1  0.77745376  0.42775659  0.82066177  1
  Al  Al14  1  0.89258063  0.53338970  0.57222860  1
  Al  Al15  1  0.44222982  0.43326634  0.32322551  1
  Al  Al16  1  0.55074272  0.54273756  0.07097808  1
  Al  Al17  1  0.10632458  0.43387824  0.81913359  1
  Al  Al18  1  0.22127290  0.54212843  0.57564085  1
  Al  Al19  1  0.77941477  0.42664787  0.31931781  1
  Al  Al20  1  0.89004140  0.53735799  0.06406274  1
  Al  Al21  1  0.44772453  0.43040948  0.82685199  1
  Al  Al22  1  0.55484551  0.54092309  0.57383283  1
  Al  Al23  1  0.11778229  0.76125417  0.31504678  1
  Al  Al24  1  0.87942552  0.87654744  0.65404857  1
  Al  Al25  1  0.43661017  0.75949566  0.31640067  1
  Al  Al26  1  0.55369129  0.87011138  0.12260966  1
  Al  Al27  1  0.10865228  0.76445577  0.83942569  1
  Al  Al28  1  0.22237286  0.87054006  0.57699267  1
  Al  Al29  1  0.77565194  0.76684739  0.38825904  1
  Al  Al30  1  0.88800164  0.87623427  0.12487684  1
  Al  Al31  1  0.44498899  0.75872319  0.83600842  1
  Al  Al32  1  0.56690134  0.86674787  0.65134083  1
  B  B33  1  0.76805078  0.09189128  0.90203039  1
  B  B34  1  0.22280706  0.87035076  0.06705716  1
  B  B35  1  0.76950468  0.77545751  0.90307200  1
  N  N36  1  0.22269784  0.20301342  0.38003615  1
  N  N37  1  0.12064044  0.07023752  0.12524720  1
  N  N38  1  0.88016920  0.19535265  0.87449433  1
  N  N39  1  0.78022610  0.08756846  0.57843223  1
  N  N40  1  0.56245721  0.20097528  0.32602911  1
  N  N41  1  0.44027336  0.09831848  0.10148636  1
  N  N42  1  0.21380610  0.20996526  0.88108069  1
  N  N43  1  0.11366768  0.09233013  0.63528155  1
  N  N44  1  0.89334907  0.20572553  0.37800377  1
  N  N45  1  0.77178936  0.09208889  0.06067983  1
  N  N46  1  0.58565452  0.19362934  0.84453438  1
  N  N47  1  0.44439951  0.09405084  0.63401298  1
  N  N48  1  0.22037107  0.54211713  0.38327109  1
  N  N49  1  0.10889502  0.43079184  0.13196463  1
  N  N50  1  0.88077354  0.55704690  0.87411222  1
  N  N51  1  0.77780286  0.42743850  0.63189877  1
  N  N52  1  0.55599266  0.54047910  0.38244662  1
  N  N53  1  0.44053530  0.43607256  0.13153829  1
  N  N54  1  0.22414599  0.53601616  0.88396388  1
  N  N55  1  0.11312598  0.42674670  0.63050320  1
  N  N56  1  0.89149405  0.53328436  0.38020048  1
  N  N57  1  0.77819921  0.42755905  0.12868743  1
  N  N58  1  0.55884197  0.53722290  0.88540546  1
  N  N59  1  0.44411832  0.43055578  0.63431936  1
  N  N60  1  0.22190983  0.87098040  0.38753268  1
  N  N61  1  0.12691897  0.77277483  0.11965328  1
  N  N62  1  0.86268374  0.88506021  0.84959810  1
  N  N63  1  0.77732770  0.76675077  0.57848493  1
  N  N64  1  0.56204691  0.86475598  0.31884367  1
  N  N65  1  0.41516678  0.77202770  0.12123211  1
  N  N66  1  0.22274900  0.87392450  0.90484253  1
  N  N67  1  0.11316184  0.76157282  0.64543708  1
  N  N68  1  0.88496584  0.87242692  0.31681189  1
  N  N69  1  0.77384016  0.77017240  0.06155276  1
  N  N70  1  0.58487544  0.85655736  0.84894822  1
  N  N71  1  0.44177330  0.75973044  0.64224637  1
