# generated using pymatgen
data_Al11BN12
_symmetry_space_group_name_H-M   'P 1'
_cell_length_a   9.26834277
_cell_length_b   9.28815599
_cell_length_c   10.08912038
_cell_angle_alpha   89.99006355
_cell_angle_beta   89.69067509
_cell_angle_gamma   60.15130011
_symmetry_Int_Tables_number   1
_chemical_formula_structural   Al11BN12
_chemical_formula_sum   'Al33 B3 N36'
_cell_volume   753.29915269
_cell_formula_units_Z   3
loop_
 _symmetry_equiv_pos_site_id
 _symmetry_equiv_pos_as_xyz
  1  'x, y, z'
loop_
 _atom_site_type_symbol
 _atom_site_label
 _atom_site_symmetry_multiplicity
 _atom_site_fract_x
 _atom_site_fract_y
 _atom_site_fract_z
 _atom_site_occupancy
  Al  Al0  1  0.11426568  0.08880569  0.31805228  1
  Al  Al1  1  0.22319563  0.20140410  0.07071390  1
  Al  Al2  1  0.89335620  0.20530840  0.57406044  1
  Al  Al3  1  0.44393498  0.09462962  0.32069990  1
  Al  Al4  1  0.54929885  0.20949426  0.07126429  1
  Al  Al5  1  0.11048462  0.08838128  0.82835901  1
  Al  Al6  1  0.22205480  0.20424254  0.57189377  1
  Al  Al7  1  0.78295835  0.08515015  0.38986695  1
  Al  Al8  1  0.89656204  0.20185945  0.06869153  1
  Al  Al9  1  0.45559440  0.09203036  0.82057751  1
  Al  Al10  1  0.54884634  0.21032698  0.57224472  1
  Al  Al11  1  0.11055999  0.42762086  0.32244013  1
  Al  Al12  1  0.22541970  0.54052833  0.07182795  1
  Al  Al13  1  0.77941660  0.41944344  0.82106029  1
  Al  Al14  1  0.89142314  0.53372936  0.57815329  1
  Al  Al15  1  0.44430397  0.42831446  0.32290439  1
  Al  Al16  1  0.55259871  0.54124665  0.07137830  1
  Al  Al17  1  0.11272932  0.42402524  0.82122924  1
  Al  Al18  1  0.21625936  0.54622469  0.57633176  1
  Al  Al19  1  0.77919614  0.42735790  0.31980164  1
  Al  Al20  1  0.89332225  0.53368044  0.05942244  1
  Al  Al21  1  0.45097722  0.42429881  0.82155956  1
  Al  Al22  1  0.55456443  0.54076164  0.57206051  1
  Al  Al23  1  0.12095757  0.75970289  0.31633836  1
  Al  Al24  1  0.87056705  0.88173466  0.66011917  1
  Al  Al25  1  0.43962412  0.76313092  0.31919588  1
  Al  Al26  1  0.54396675  0.87688771  0.07340028  1
  Al  Al27  1  0.11171006  0.76136622  0.84159215  1
  Al  Al28  1  0.21729574  0.87173483  0.57822557  1
  Al  Al29  1  0.78344946  0.76267209  0.39200299  1
  Al  Al30  1  0.89181300  0.87593649  0.13111903  1
  Al  Al31  1  0.45261317  0.75942123  0.82845530  1
  Al  Al32  1  0.54807900  0.87496991  0.57307430  1
  B  B33  1  0.77379917  0.09284198  0.90889255  1
  B  B34  1  0.22533262  0.87011131  0.06859230  1
  B  B35  1  0.75842049  0.80891556  0.91455852  1
  N  N36  1  0.22167179  0.20389893  0.38108489  1
  N  N37  1  0.12461839  0.06879535  0.12529375  1
  N  N38  1  0.87980756  0.18846459  0.87752535  1
  N  N39  1  0.78030504  0.08740144  0.58146298  1
  N  N40  1  0.54966259  0.20858106  0.38000091  1
  N  N41  1  0.44348160  0.09553472  0.13268290  1
  N  N42  1  0.22973867  0.19843221  0.88225826  1
  N  N43  1  0.11255981  0.09281836  0.63819361  1
  N  N44  1  0.89397353  0.20618178  0.37794526  1
  N  N45  1  0.77896687  0.08944757  0.07049879  1
  N  N46  1  0.57374432  0.19879211  0.88012889  1
  N  N47  1  0.44394032  0.09493188  0.63310624  1
  N  N48  1  0.21938063  0.54325579  0.38398903  1
  N  N49  1  0.11132393  0.42857403  0.13264827  1
  N  N50  1  0.89497267  0.52432280  0.87600452  1
  N  N51  1  0.77567413  0.42575713  0.63221084  1
  N  N52  1  0.55486125  0.54128201  0.38108518  1
  N  N53  1  0.44541076  0.42752769  0.13429373  1
  N  N54  1  0.22615548  0.53338099  0.88494146  1
  N  N55  1  0.11411103  0.42531467  0.63215530  1
  N  N56  1  0.89196183  0.53243683  0.38310961  1
  N  N57  1  0.77888344  0.42793628  0.13034501  1
  N  N58  1  0.55773611  0.53773320  0.88382919  1
  N  N59  1  0.44182575  0.43072186  0.63265303  1
  N  N60  1  0.22070318  0.87192959  0.38905055  1
  N  N61  1  0.13161648  0.77071730  0.12149454  1
  N  N62  1  0.85644249  0.89170172  0.85486343  1
  N  N63  1  0.77936959  0.76503587  0.58367061  1
  N  N64  1  0.54974268  0.87373156  0.37816931  1
  N  N65  1  0.42157341  0.77227998  0.12612171  1
  N  N66  1  0.22833233  0.87017522  0.90583046  1
  N  N67  1  0.10801928  0.76393564  0.64991457  1
  N  N68  1  0.88613193  0.87205679  0.31867291  1
  N  N69  1  0.78121734  0.76876163  0.06508510  1
  N  N70  1  0.57462800  0.86944767  0.88194097  1
  N  N71  1  0.44151072  0.76241675  0.63871804  1
