# generated using pymatgen
data_Al11BN12
_symmetry_space_group_name_H-M   'P 1'
_cell_length_a   9.30075792
_cell_length_b   9.27368404
_cell_length_c   10.06717686
_cell_angle_alpha   90.09831991
_cell_angle_beta   90.14778666
_cell_angle_gamma   60.00585128
_symmetry_Int_Tables_number   1
_chemical_formula_structural   Al11BN12
_chemical_formula_sum   'Al33 B3 N36'
_cell_volume   752.02637433
_cell_formula_units_Z   3
loop_
 _symmetry_equiv_pos_site_id
 _symmetry_equiv_pos_as_xyz
  1  'x, y, z'
loop_
 _atom_site_type_symbol
 _atom_site_label
 _atom_site_symmetry_multiplicity
 _atom_site_fract_x
 _atom_site_fract_y
 _atom_site_fract_z
 _atom_site_occupancy
  Al  Al0  1  0.11311122  0.08855108  0.31314018  1
  Al  Al1  1  0.21725171  0.20644449  0.06958484  1
  Al  Al2  1  0.88707703  0.19919460  0.63103824  1
  Al  Al3  1  0.45232806  0.08730698  0.38965051  1
  Al  Al4  1  0.55967827  0.20128069  0.13888559  1
  Al  Al5  1  0.11525039  0.08783494  0.83223399  1
  Al  Al6  1  0.21682941  0.20446492  0.57202528  1
  Al  Al7  1  0.78325267  0.08983965  0.38884273  1
  Al  Al8  1  0.89186947  0.20199784  0.07767557  1
  Al  Al9  1  0.46027301  0.08934538  0.89129669  1
  Al  Al10  1  0.56354128  0.19544004  0.64160224  1
  Al  Al11  1  0.11083218  0.42640015  0.32046965  1
  Al  Al12  1  0.22504330  0.54216556  0.07097616  1
  Al  Al13  1  0.77358939  0.43713545  0.82642876  1
  Al  Al14  1  0.89190280  0.53049572  0.56974544  1
  Al  Al15  1  0.44258863  0.43156702  0.32475840  1
  Al  Al16  1  0.54813000  0.54548197  0.07102597  1
  Al  Al17  1  0.10714077  0.43450986  0.81887105  1
  Al  Al18  1  0.22004378  0.54187753  0.57388334  1
  Al  Al19  1  0.77881018  0.42577640  0.31488973  1
  Al  Al20  1  0.88910170  0.54271751  0.06339339  1
  Al  Al21  1  0.44770736  0.42878746  0.82407699  1
  Al  Al22  1  0.55488016  0.53976438  0.57251691  1
  Al  Al23  1  0.11717209  0.76151095  0.31403496  1
  Al  Al24  1  0.87994876  0.87232545  0.65289938  1
  Al  Al25  1  0.43627497  0.76046205  0.31801603  1
  Al  Al26  1  0.55158670  0.87724574  0.13258643  1
  Al  Al27  1  0.10966781  0.76393792  0.83921345  1
  Al  Al28  1  0.22092208  0.87023615  0.57586276  1
  Al  Al29  1  0.77753780  0.76493136  0.38656565  1
  Al  Al30  1  0.88725253  0.87891315  0.12381940  1
  Al  Al31  1  0.44529976  0.75993563  0.83277563  1
  Al  Al32  1  0.56558806  0.86825963  0.64647538  1
  B  B33  1  0.76738912  0.09080096  0.89764026  1
  B  B34  1  0.22541921  0.87090755  0.06660135  1
  B  B35  1  0.76872637  0.77856665  0.90065930  1
  N  N36  1  0.21879170  0.20357081  0.37837190  1
  N  N37  1  0.12585798  0.06899266  0.11867886  1
  N  N38  1  0.87868829  0.19327209  0.86044515  1
  N  N39  1  0.78097570  0.08638681  0.57885359  1
  N  N40  1  0.56110359  0.19767816  0.33020286  1
  N  N41  1  0.44687807  0.09689672  0.07940097  1
  N  N42  1  0.21833175  0.21051018  0.87852073  1
  N  N43  1  0.11628321  0.08886466  0.64125306  1
  N  N44  1  0.88968224  0.20160872  0.34283531  1
  N  N45  1  0.76902643  0.09587869  0.05591050  1
  N  N46  1  0.58398043  0.18999920  0.83548176  1
  N  N47  1  0.45088277  0.08773281  0.58322578  1
  N  N48  1  0.21966145  0.54182433  0.38269462  1
  N  N49  1  0.10873001  0.43214551  0.13073307  1
  N  N50  1  0.88119567  0.56156049  0.87391950  1
  N  N51  1  0.77537686  0.42976447  0.63646579  1
  N  N52  1  0.55665695  0.54013745  0.38219824  1
  N  N53  1  0.44228238  0.43394409  0.13344722  1
  N  N54  1  0.22556152  0.53570064  0.88389856  1
  N  N55  1  0.11194658  0.42646052  0.63063107  1
  N  N56  1  0.89136886  0.53147502  0.37853081  1
  N  N57  1  0.77561328  0.43473724  0.12210980  1
  N  N58  1  0.55530623  0.53908518  0.88532417  1
  N  N59  1  0.44307630  0.42910098  0.63205483  1
  N  N60  1  0.22102187  0.87170958  0.38723151  1
  N  N61  1  0.12709108  0.77377954  0.11890407  1
  N  N62  1  0.86292711  0.88529529  0.84820722  1
  N  N63  1  0.77812287  0.76391430  0.57679624  1
  N  N64  1  0.55975406  0.86951685  0.32287409  1
  N  N65  1  0.41601161  0.77406816  0.12313856  1
  N  N66  1  0.22609241  0.87089050  0.90494774  1
  N  N67  1  0.11287604  0.76049739  0.64530110  1
  N  N68  1  0.88469468  0.87218954  0.31592409  1
  N  N69  1  0.76912681  0.77576775  0.06031793  1
  N  N70  1  0.58388862  0.86106183  0.84020033  1
  N  N71  1  0.44092503  0.75964224  0.64005915  1
