# generated using pymatgen
data_Al11BN12
_symmetry_space_group_name_H-M   'P 1'
_cell_length_a   9.25376910
_cell_length_b   9.26844862
_cell_length_c   9.89453235
_cell_angle_alpha   90.11528243
_cell_angle_beta   89.98467266
_cell_angle_gamma   60.02426559
_symmetry_Int_Tables_number   1
_chemical_formula_structural   Al11BN12
_chemical_formula_sum   'Al33 B3 N36'
_cell_volume   735.11689141
_cell_formula_units_Z   3
loop_
 _symmetry_equiv_pos_site_id
 _symmetry_equiv_pos_as_xyz
  1  'x, y, z'
loop_
 _atom_site_type_symbol
 _atom_site_label
 _atom_site_symmetry_multiplicity
 _atom_site_fract_x
 _atom_site_fract_y
 _atom_site_fract_z
 _atom_site_occupancy
  Al  Al0  1  0.11209417  0.08951908  0.30742510  1
  Al  Al1  1  0.22395356  0.19997080  0.06117282  1
  Al  Al2  1  0.88883266  0.20446783  0.56792568  1
  Al  Al3  1  0.44625472  0.09338479  0.31166097  1
  Al  Al4  1  0.56237078  0.20200851  0.05742821  1
  Al  Al5  1  0.10892566  0.08915334  0.81706139  1
  Al  Al6  1  0.22148512  0.20466359  0.56202971  1
  Al  Al7  1  0.77895910  0.09200876  0.31391058  1
  Al  Al8  1  0.89008675  0.19624776  0.05741061  1
  Al  Al9  1  0.45593795  0.08859034  0.81095132  1
  Al  Al10  1  0.55652858  0.20558923  0.56635484  1
  Al  Al11  1  0.10923935  0.42882488  0.31200728  1
  Al  Al12  1  0.22433189  0.54167011  0.06204255  1
  Al  Al13  1  0.77542213  0.42953088  0.81213296  1
  Al  Al14  1  0.88723350  0.54234856  0.56895471  1
  Al  Al15  1  0.44529608  0.42661716  0.31178769  1
  Al  Al16  1  0.55120821  0.54214075  0.06216229  1
  Al  Al17  1  0.10891044  0.43167273  0.81147805  1
  Al  Al18  1  0.22093906  0.54168910  0.56157076  1
  Al  Al19  1  0.77964929  0.42714764  0.31198776  1
  Al  Al20  1  0.88736279  0.54347824  0.05709255  1
  Al  Al21  1  0.44955216  0.42516719  0.81037139  1
  Al  Al22  1  0.55448112  0.54147244  0.56080919  1
  Al  Al23  1  0.10976788  0.76586345  0.30871293  1
  Al  Al24  1  0.88720952  0.87404699  0.57812333  1
  Al  Al25  1  0.43964328  0.76498280  0.30733295  1
  Al  Al26  1  0.55749678  0.87045918  0.05801568  1
  Al  Al27  1  0.10628746  0.76306591  0.81884957  1
  Al  Al28  1  0.22194191  0.87213170  0.56332583  1
  Al  Al29  1  0.77868540  0.76205424  0.31494163  1
  Al  Al30  1  0.88730874  0.87411236  0.05302072  1
  Al  Al31  1  0.44731327  0.76103820  0.81784279  1
  Al  Al32  1  0.55643250  0.87088407  0.56757792  1
  B  B33  1  0.76914759  0.10213206  0.80431412  1
  B  B34  1  0.22139435  0.87272746  0.05670743  1
  B  B35  1  0.77383631  0.76835961  0.80722598  1
  N  N36  1  0.22120565  0.20432691  0.36803102  1
  N  N37  1  0.12183849  0.06990414  0.11159717  1
  N  N38  1  0.87514448  0.19174108  0.86362123  1
  N  N39  1  0.77530270  0.09774270  0.64266533  1
  N  N40  1  0.55702177  0.20488372  0.37444735  1
  N  N41  1  0.44762880  0.09331936  0.11772476  1
  N  N42  1  0.22364145  0.20412527  0.86989541  1
  N  N43  1  0.11196752  0.09263012  0.62545759  1
  N  N44  1  0.88970966  0.20410716  0.37354257  1
  N  N45  1  0.77945169  0.09027822  0.12406197  1
  N  N46  1  0.58108070  0.19432947  0.86261956  1
  N  N47  1  0.44405445  0.09477330  0.62098685  1
  N  N48  1  0.22058456  0.54195272  0.36820777  1
  N  N49  1  0.11032729  0.42765190  0.11916393  1
  N  N50  1  0.87804012  0.56238639  0.86382131  1
  N  N51  1  0.77660952  0.42855080  0.62156054  1
  N  N52  1  0.55479192  0.54166192  0.36758724  1
  N  N53  1  0.44702376  0.42394588  0.12003211  1
  N  N54  1  0.22598726  0.53587751  0.87155967  1
  N  N55  1  0.11212112  0.42771122  0.62033152  1
  N  N56  1  0.88756035  0.54100663  0.37584593  1
  N  N57  1  0.78115417  0.42481382  0.11723830  1
  N  N58  1  0.55560868  0.53886359  0.87242384  1
  N  N59  1  0.44399931  0.42947498  0.61945682  1
  N  N60  1  0.22178041  0.87233574  0.37366836  1
  N  N61  1  0.12034867  0.77474384  0.11141905  1
  N  N62  1  0.86838565  0.87591797  0.85918134  1
  N  N63  1  0.77577919  0.76252520  0.64294072  1
  N  N64  1  0.55562629  0.87096705  0.37353385  1
  N  N65  1  0.42076734  0.77486527  0.11204150  1
  N  N66  1  0.22316713  0.87073751  0.89199911  1
  N  N67  1  0.11290979  0.76179215  0.62745591  1
  N  N68  1  0.88880421  0.87267693  0.38141159  1
  N  N69  1  0.77926468  0.76159418  0.12441106  1
  N  N70  1  0.58118712  0.85979739  0.86478878  1
  N  N71  1  0.44243925  0.76210447  0.62581522  1
