# generated using pymatgen
data_Al11BN12
_symmetry_space_group_name_H-M   'P 1'
_cell_length_a   9.25980838
_cell_length_b   9.25939274
_cell_length_c   9.89631957
_cell_angle_alpha   90.00327563
_cell_angle_beta   90.11579029
_cell_angle_gamma   59.98661993
_symmetry_Int_Tables_number   1
_chemical_formula_structural   Al11BN12
_chemical_formula_sum   'Al33 B3 N36'
_cell_volume   734.73229018
_cell_formula_units_Z   3
loop_
 _symmetry_equiv_pos_site_id
 _symmetry_equiv_pos_as_xyz
  1  'x, y, z'
loop_
 _atom_site_type_symbol
 _atom_site_label
 _atom_site_symmetry_multiplicity
 _atom_site_fract_x
 _atom_site_fract_y
 _atom_site_fract_z
 _atom_site_occupancy
  Al  Al0  1  0.11103218  0.09214409  0.39717445  1
  Al  Al1  1  0.22366785  0.20061141  0.15426936  1
  Al  Al2  1  0.88909084  0.20057102  0.65835509  1
  Al  Al3  1  0.44638786  0.09334306  0.40511596  1
  Al  Al4  1  0.55747976  0.20439704  0.14981242  1
  Al  Al5  1  0.11088756  0.08672052  0.90930102  1
  Al  Al6  1  0.22121682  0.20460529  0.65437061  1
  Al  Al7  1  0.77898833  0.09214006  0.40260876  1
  Al  Al8  1  0.89094303  0.19915894  0.14770258  1
  Al  Al9  1  0.45500956  0.08896735  0.90466574  1
  Al  Al10  1  0.56252031  0.20168601  0.65869908  1
  Al  Al11  1  0.10998937  0.42861018  0.40408248  1
  Al  Al12  1  0.22410165  0.54292499  0.15464012  1
  Al  Al13  1  0.77625083  0.42874586  0.90396945  1
  Al  Al14  1  0.88698402  0.54471204  0.65875656  1
  Al  Al15  1  0.44583767  0.42577755  0.40502456  1
  Al  Al16  1  0.55101395  0.54223017  0.15541020  1
  Al  Al17  1  0.10771195  0.43367243  0.90509495  1
  Al  Al18  1  0.22181749  0.54053469  0.65391088  1
  Al  Al19  1  0.77983377  0.42638666  0.40415731  1
  Al  Al20  1  0.88732278  0.54162254  0.14870718  1
  Al  Al21  1  0.45040346  0.42404938  0.90465589  1
  Al  Al22  1  0.55574496  0.54002324  0.65380438  1
  Al  Al23  1  0.10924093  0.76404766  0.39663246  1
  Al  Al24  1  0.88607387  0.87379658  0.66271874  1
  Al  Al25  1  0.44302411  0.76290766  0.39772531  1
  Al  Al26  1  0.55176678  0.87310725  0.14955244  1
  Al  Al27  1  0.10871518  0.76665820  0.90816487  1
  Al  Al28  1  0.22256427  0.87203545  0.65215350  1
  Al  Al29  1  0.77859060  0.76243208  0.40233169  1
  Al  Al30  1  0.89015367  0.87463174  0.14061359  1
  Al  Al31  1  0.44448350  0.76168521  0.90908410  1
  Al  Al32  1  0.56105805  0.86837418  0.65835725  1
  B  B33  1  0.77261091  0.09257417  0.91108635  1
  B  B34  1  0.22220085  0.87192610  0.15758241  1
  B  B35  1  0.77212254  0.76640776  0.91124628  1
  N  N36  1  0.22313844  0.20534533  0.34590990  1
  N  N37  1  0.12410070  0.06860381  0.10258708  1
  N  N38  1  0.87961480  0.19036435  0.85379399  1
  N  N39  1  0.78001922  0.09133438  0.59279122  1
  N  N40  1  0.55727078  0.20417200  0.34227519  1
  N  N41  1  0.44408673  0.09519513  0.09386511  1
  N  N42  1  0.22091082  0.20456860  0.84782917  1
  N  N43  1  0.11024833  0.09351305  0.59116423  1
  N  N44  1  0.88715868  0.20473398  0.34000585  1
  N  N45  1  0.77556044  0.09552767  0.07315254  1
  N  N46  1  0.58167362  0.19239264  0.85251124  1
  N  N47  1  0.44667258  0.09307722  0.59983459  1
  N  N48  1  0.22294219  0.53858944  0.34590209  1
  N  N49  1  0.11210231  0.42797451  0.09592495  1
  N  N50  1  0.87687729  0.56535909  0.85266802  1
  N  N51  1  0.78125220  0.42580424  0.59916339  1
  N  N52  1  0.55646341  0.53784800  0.34647378  1
  N  N53  1  0.44507587  0.42755291  0.09484702  1
  N  N54  1  0.22341355  0.54057450  0.84654882  1
  N  N55  1  0.10960098  0.42862822  0.59717818  1
  N  N56  1  0.88771917  0.54075060  0.34145852  1
  N  N57  1  0.77697160  0.42764829  0.09442509  1
  N  N58  1  0.55491973  0.54107059  0.84547429  1
  N  N59  1  0.44629101  0.42500391  0.59769781  1
  N  N60  1  0.22247491  0.87169851  0.32415035  1
  N  N61  1  0.12454786  0.77352373  0.10111705  1
  N  N62  1  0.86931282  0.88215795  0.86010077  1
  N  N63  1  0.77918251  0.76283410  0.59284178  1
  N  N64  1  0.55730469  0.87211969  0.34107973  1
  N  N65  1  0.41974009  0.77308957  0.10239388  1
  N  N66  1  0.22485466  0.87064577  0.84125338  1
  N  N67  1  0.10821083  0.76382565  0.59222354  1
  N  N68  1  0.88658255  0.87331432  0.33401700  1
  N  N69  1  0.77546122  0.76229994  0.07428251  1
  N  N70  1  0.57993337  0.85808972  0.85427788  1
  N  N71  1  0.44463434  0.76288588  0.59163709  1
