# generated using pymatgen
data_Al11BN12
_symmetry_space_group_name_H-M   'P 1'
_cell_length_a   9.25891536
_cell_length_b   9.25919254
_cell_length_c   9.89683067
_cell_angle_alpha   89.99025830
_cell_angle_beta   89.93564076
_cell_angle_gamma   59.99525005
_symmetry_Int_Tables_number   1
_chemical_formula_structural   Al11BN12
_chemical_formula_sum   'Al33 B3 N36'
_cell_volume   734.74881331
_cell_formula_units_Z   3
loop_
 _symmetry_equiv_pos_site_id
 _symmetry_equiv_pos_as_xyz
  1  'x, y, z'
loop_
 _atom_site_type_symbol
 _atom_site_label
 _atom_site_symmetry_multiplicity
 _atom_site_fract_x
 _atom_site_fract_y
 _atom_site_fract_z
 _atom_site_occupancy
  Al  Al0  1  0.11199826  0.08959654  0.30078543  1
  Al  Al1  1  0.22362041  0.20061660  0.05444847  1
  Al  Al2  1  0.88864685  0.20333283  0.56210841  1
  Al  Al3  1  0.44602704  0.09350766  0.30486149  1
  Al  Al4  1  0.56202070  0.20209358  0.05048569  1
  Al  Al5  1  0.10899734  0.08981358  0.81042769  1
  Al  Al6  1  0.22102318  0.20479160  0.55506702  1
  Al  Al7  1  0.77880806  0.09237032  0.30734365  1
  Al  Al8  1  0.89048049  0.19666383  0.05040885  1
  Al  Al9  1  0.45463936  0.08918730  0.80399571  1
  Al  Al10  1  0.55707949  0.20461610  0.55999792  1
  Al  Al11  1  0.10910677  0.42912067  0.30497705  1
  Al  Al12  1  0.22417984  0.54228782  0.05479139  1
  Al  Al13  1  0.77588719  0.42831479  0.80554010  1
  Al  Al14  1  0.88699585  0.54196312  0.56178278  1
  Al  Al15  1  0.44542524  0.42631331  0.30488808  1
  Al  Al16  1  0.55141824  0.54199820  0.05525208  1
  Al  Al17  1  0.10834435  0.43314315  0.80429289  1
  Al  Al18  1  0.22140180  0.54122902  0.55461687  1
  Al  Al19  1  0.77984952  0.42689297  0.30518742  1
  Al  Al20  1  0.88710729  0.54453358  0.04991596  1
  Al  Al21  1  0.45015260  0.42408830  0.80373461  1
  Al  Al22  1  0.55479697  0.54069173  0.55399744  1
  Al  Al23  1  0.11007331  0.76574521  0.30135470  1
  Al  Al24  1  0.88758627  0.87298606  0.56966503  1
  Al  Al25  1  0.43982689  0.76470551  0.30036224  1
  Al  Al26  1  0.55717908  0.87084773  0.05084390  1
  Al  Al27  1  0.10622245  0.76503661  0.81148331  1
  Al  Al28  1  0.22207838  0.87189155  0.55628551  1
  Al  Al29  1  0.77855461  0.76220792  0.30724420  1
  Al  Al30  1  0.88696227  0.87618274  0.04625091  1
  Al  Al31  1  0.44759006  0.76041758  0.81062763  1
  Al  Al32  1  0.55599287  0.87088612  0.56028820  1
  B  B33  1  0.77183437  0.09326588  0.79885033  1
  B  B34  1  0.22173842  0.87311862  0.04977457  1
  B  B35  1  0.77164412  0.76830146  0.79920411  1
  N  N36  1  0.22104163  0.20440186  0.36117211  1
  N  N37  1  0.12208370  0.07010134  0.10507800  1
  N  N38  1  0.87653510  0.19099242  0.85730171  1
  N  N39  1  0.77579273  0.09541553  0.63565320  1
  N  N40  1  0.55706723  0.20445128  0.36793965  1
  N  N41  1  0.44719665  0.09353900  0.11105680  1
  N  N42  1  0.22286277  0.20543572  0.86319179  1
  N  N43  1  0.11212031  0.09228014  0.61877949  1
  N  N44  1  0.88987965  0.20375779  0.36734909  1
  N  N45  1  0.77887992  0.09177755  0.11771712  1
  N  N46  1  0.58075189  0.19285534  0.85609349  1
  N  N47  1  0.44337785  0.09466782  0.61407078  1
  N  N48  1  0.22084060  0.54169836  0.36124912  1
  N  N49  1  0.10992511  0.42852841  0.11211299  1
  N  N50  1  0.87712495  0.56496416  0.85649464  1
  N  N51  1  0.77677758  0.42794728  0.61499116  1
  N  N52  1  0.55508338  0.54108717  0.36075174  1
  N  N53  1  0.44667932  0.42422170  0.11308771  1
  N  N54  1  0.22532786  0.53737470  0.86434048  1
  N  N55  1  0.11171812  0.42800298  0.61330926  1
  N  N56  1  0.88745253  0.54104540  0.36871905  1
  N  N57  1  0.78129745  0.42550247  0.11034327  1
  N  N58  1  0.55604672  0.53807783  0.86561659  1
  N  N59  1  0.44425566  0.42877673  0.61283336  1
  N  N60  1  0.22207087  0.87191353  0.36668853  1
  N  N61  1  0.12009545  0.77542334  0.10403855  1
  N  N62  1  0.86626366  0.88353979  0.85141641  1
  N  N63  1  0.77530014  0.76251452  0.63575274  1
  N  N64  1  0.55580596  0.87062569  0.36637851  1
  N  N65  1  0.42097232  0.77480645  0.10513162  1
  N  N66  1  0.22414935  0.87103189  0.88508909  1
  N  N67  1  0.11282072  0.76156204  0.62021936  1
  N  N68  1  0.88918564  0.87200953  0.37355402  1
  N  N69  1  0.77917604  0.76286875  0.11663869  1
  N  N70  1  0.58083096  0.85974764  0.85743838  1
  N  N71  1  0.44256249  0.76154136  0.61871934  1
