# generated using pymatgen
data_Al11BN12
_symmetry_space_group_name_H-M   'P 1'
_cell_length_a   9.30917733
_cell_length_b   9.28809966
_cell_length_c   10.06372117
_cell_angle_alpha   89.87953573
_cell_angle_beta   89.90823078
_cell_angle_gamma   60.00326205
_symmetry_Int_Tables_number   1
_chemical_formula_structural   Al11BN12
_chemical_formula_sum   'Al33 B3 N36'
_cell_volume   753.59953895
_cell_formula_units_Z   3
loop_
 _symmetry_equiv_pos_site_id
 _symmetry_equiv_pos_as_xyz
  1  'x, y, z'
loop_
 _atom_site_type_symbol
 _atom_site_label
 _atom_site_symmetry_multiplicity
 _atom_site_fract_x
 _atom_site_fract_y
 _atom_site_fract_z
 _atom_site_occupancy
  Al  Al0  1  0.11883087  0.08521125  0.31204979  1
  Al  Al1  1  0.21911588  0.20604999  0.08084434  1
  Al  Al2  1  0.88510468  0.19545319  0.64718194  1
  Al  Al3  1  0.44656733  0.08999339  0.38947363  1
  Al  Al4  1  0.55930175  0.20145462  0.13753224  1
  Al  Al5  1  0.11046428  0.08666219  0.84123205  1
  Al  Al6  1  0.22562986  0.20067419  0.61586254  1
  Al  Al7  1  0.78279405  0.08897451  0.38593761  1
  Al  Al8  1  0.88726415  0.20079097  0.12034457  1
  Al  Al9  1  0.46136455  0.08918209  0.89035977  1
  Al  Al10  1  0.56632270  0.19558245  0.63996325  1
  Al  Al11  1  0.11127562  0.42643187  0.31774728  1
  Al  Al12  1  0.22486738  0.54387976  0.07002763  1
  Al  Al13  1  0.77273688  0.43622253  0.82634474  1
  Al  Al14  1  0.89415982  0.52802342  0.56961077  1
  Al  Al15  1  0.44217660  0.43075477  0.32434542  1
  Al  Al16  1  0.54727769  0.54630315  0.07039481  1
  Al  Al17  1  0.10480131  0.43929057  0.82273064  1
  Al  Al18  1  0.22077680  0.54193006  0.57256327  1
  Al  Al19  1  0.77599479  0.43119669  0.31552507  1
  Al  Al20  1  0.88647998  0.54469868  0.06158654  1
  Al  Al21  1  0.44763130  0.42892845  0.82290981  1
  Al  Al22  1  0.55624379  0.53916381  0.57263382  1
  Al  Al23  1  0.11631499  0.76139278  0.31293998  1
  Al  Al24  1  0.88118943  0.87167279  0.65101981  1
  Al  Al25  1  0.43613755  0.76036932  0.31794401  1
  Al  Al26  1  0.55133633  0.87759253  0.13277997  1
  Al  Al27  1  0.10951134  0.76361276  0.83711549  1
  Al  Al28  1  0.22143208  0.87074802  0.57593488  1
  Al  Al29  1  0.77756455  0.76459341  0.38579253  1
  Al  Al30  1  0.88690758  0.87969644  0.12007774  1
  Al  Al31  1  0.44548505  0.76017121  0.83183595  1
  Al  Al32  1  0.56850812  0.86591063  0.64563070  1
  B  B33  1  0.76853321  0.09935910  0.89612719  1
  B  B34  1  0.22490486  0.87003037  0.06535789  1
  B  B35  1  0.76771501  0.78146804  0.89919067  1
  N  N36  1  0.22326017  0.20190426  0.35424399  1
  N  N37  1  0.12585921  0.06733293  0.11366371  1
  N  N38  1  0.87222178  0.18924252  0.84378035  1
  N  N39  1  0.78362047  0.08652026  0.57441934  1
  N  N40  1  0.56082415  0.19703887  0.32987629  1
  N  N41  1  0.44786226  0.09670383  0.07694216  1
  N  N42  1  0.22182631  0.20826560  0.86761234  1
  N  N43  1  0.11555885  0.08591307  0.64458899  1
  N  N44  1  0.88684051  0.19875231  0.31737575  1
  N  N45  1  0.77088917  0.10016919  0.05476148  1
  N  N46  1  0.58382248  0.19096620  0.83428317  1
  N  N47  1  0.45206919  0.08759799  0.58406485  1
  N  N48  1  0.21900400  0.54200905  0.38165724  1
  N  N49  1  0.10577490  0.43686416  0.12637661  1
  N  N50  1  0.87946719  0.56044588  0.87319555  1
  N  N51  1  0.77703830  0.42773746  0.63463074  1
  N  N52  1  0.55594769  0.53962828  0.38243696  1
  N  N53  1  0.44174611  0.43410516  0.13304252  1
  N  N54  1  0.22625447  0.53675353  0.88349623  1
  N  N55  1  0.11204024  0.42932918  0.63339235  1
  N  N56  1  0.89269217  0.53012558  0.37891934  1
  N  N57  1  0.77226130  0.44005710  0.12317870  1
  N  N58  1  0.55459881  0.53934331  0.88453646  1
  N  N59  1  0.44354102  0.42884577  0.63071692  1
  N  N60  1  0.22001242  0.87135238  0.38707388  1
  N  N61  1  0.12689482  0.77424063  0.11847635  1
  N  N62  1  0.86385952  0.88265195  0.84659985  1
  N  N63  1  0.78029165  0.76250970  0.57567260  1
  N  N64  1  0.55951736  0.86938392  0.32362477  1
  N  N65  1  0.41558247  0.77446204  0.12301977  1
  N  N66  1  0.22694490  0.86782056  0.90462960  1
  N  N67  1  0.11394621  0.75988219  0.64361397  1
  N  N68  1  0.88407369  0.87198363  0.31359945  1
  N  N69  1  0.76785840  0.77775823  0.05869463  1
  N  N70  1  0.58398776  0.86145775  0.83876334  1
  N  N71  1  0.44213791  0.75948295  0.63887860  1
