# generated using pymatgen
data_Al11BN12
_symmetry_space_group_name_H-M   'P 1'
_cell_length_a   9.30688355
_cell_length_b   9.28298031
_cell_length_c   10.09186301
_cell_angle_alpha   89.79197808
_cell_angle_beta   90.03994845
_cell_angle_gamma   59.96656904
_symmetry_Int_Tables_number   1
_chemical_formula_structural   Al11BN12
_chemical_formula_sum   'Al33 B3 N36'
_cell_volume   754.81859931
_cell_formula_units_Z   3
loop_
 _symmetry_equiv_pos_site_id
 _symmetry_equiv_pos_as_xyz
  1  'x, y, z'
loop_
 _atom_site_type_symbol
 _atom_site_label
 _atom_site_symmetry_multiplicity
 _atom_site_fract_x
 _atom_site_fract_y
 _atom_site_fract_z
 _atom_site_occupancy
  Al  Al0  1  0.10387142  0.10423509  0.38939863  1
  Al  Al1  1  0.22743914  0.19218076  0.13699409  1
  Al  Al2  1  0.88971879  0.19532560  0.64540330  1
  Al  Al3  1  0.44603763  0.09152526  0.38814388  1
  Al  Al4  1  0.56001261  0.20056420  0.13419491  1
  Al  Al5  1  0.10879554  0.09037196  0.89530393  1
  Al  Al6  1  0.22478335  0.19972695  0.64073120  1
  Al  Al7  1  0.78032397  0.08962149  0.38542308  1
  Al  Al8  1  0.89441603  0.19191362  0.12924219  1
  Al  Al9  1  0.45709403  0.08901580  0.88977355  1
  Al  Al10  1  0.56372441  0.19782791  0.63820391  1
  Al  Al11  1  0.10937233  0.43467287  0.31601655  1
  Al  Al12  1  0.22724808  0.54147296  0.06781541  1
  Al  Al13  1  0.77361371  0.42833108  0.83340834  1
  Al  Al14  1  0.88436146  0.54715327  0.63220289  1
  Al  Al15  1  0.44210792  0.43209126  0.32233369  1
  Al  Al16  1  0.54733847  0.54450863  0.06845256  1
  Al  Al17  1  0.11231798  0.43314464  0.82836756  1
  Al  Al18  1  0.21899403  0.54317282  0.57108581  1
  Al  Al19  1  0.77275924  0.43311962  0.31277215  1
  Al  Al20  1  0.88792161  0.54279473  0.09100391  1
  Al  Al21  1  0.44907658  0.42757251  0.82107369  1
  Al  Al22  1  0.55675188  0.54011215  0.57122946  1
  Al  Al23  1  0.11593016  0.76517286  0.31036208  1
  Al  Al24  1  0.87895672  0.87754442  0.64966260  1
  Al  Al25  1  0.43388078  0.76402994  0.31539158  1
  Al  Al26  1  0.55406681  0.87515337  0.13035299  1
  Al  Al27  1  0.11024915  0.76201269  0.83389390  1
  Al  Al28  1  0.22302964  0.86707777  0.57361560  1
  Al  Al29  1  0.77867610  0.76164319  0.38456623  1
  Al  Al30  1  0.88734082  0.87694756  0.11869923  1
  Al  Al31  1  0.44784708  0.75806050  0.82895206  1
  Al  Al32  1  0.56293246  0.87293385  0.64337480  1
  B  B33  1  0.77245841  0.09135271  0.89376723  1
  B  B34  1  0.22817749  0.86337032  0.06128770  1
  B  B35  1  0.77011918  0.77516366  0.89530304  1
  N  N36  1  0.22572253  0.20033181  0.32793332  1
  N  N37  1  0.12161161  0.07322110  0.08317337  1
  N  N38  1  0.88242020  0.18040864  0.83813955  1
  N  N39  1  0.78061336  0.09068535  0.57338910  1
  N  N40  1  0.55978909  0.19814314  0.32703584  1
  N  N41  1  0.44469747  0.09637320  0.07501982  1
  N  N42  1  0.22796511  0.19401092  0.83256085  1
  N  N43  1  0.10489842  0.10240158  0.58113639  1
  N  N44  1  0.88884022  0.19876054  0.32083970  1
  N  N45  1  0.77359118  0.09735482  0.05367786  1
  N  N46  1  0.58436984  0.18867551  0.83317951  1
  N  N47  1  0.44568013  0.09334030  0.57910213  1
  N  N48  1  0.21936213  0.54404753  0.38052883  1
  N  N49  1  0.11496674  0.42973226  0.11992861  1
  N  N50  1  0.87776081  0.56573466  0.85309598  1
  N  N51  1  0.77355800  0.42896092  0.63904995  1
  N  N52  1  0.55513384  0.54141409  0.38110249  1
  N  N53  1  0.44269174  0.43329442  0.13206049  1
  N  N54  1  0.22914395  0.53484125  0.88266155  1
  N  N55  1  0.11255023  0.43227628  0.63376480  1
  N  N56  1  0.88617409  0.54253579  0.33895009  1
  N  N57  1  0.77297066  0.42987250  0.11638869  1
  N  N58  1  0.55470917  0.53776474  0.88408721  1
  N  N59  1  0.44234867  0.43131355  0.62966503  1
  N  N60  1  0.22187393  0.86883852  0.38547851  1
  N  N61  1  0.12767427  0.77303715  0.11665877  1
  N  N62  1  0.86415884  0.88330389  0.84515694  1
  N  N63  1  0.77737912  0.76619484  0.57493476  1
  N  N64  1  0.55830478  0.87222996  0.32179975  1
  N  N65  1  0.41620422  0.77384042  0.12124083  1
  N  N66  1  0.23232910  0.85787336  0.89992014  1
  N  N67  1  0.11170087  0.76265889  0.64236976  1
  N  N68  1  0.88321487  0.87394533  0.31245776  1
  N  N69  1  0.77141382  0.77055011  0.05450009  1
  N  N70  1  0.58416836  0.86130784  0.83679621  1
  N  N71  1  0.44113225  0.76190833  0.63776207  1
