# generated using pymatgen
data_Al11BN12
_symmetry_space_group_name_H-M   'P 1'
_cell_length_a   9.29936867
_cell_length_b   9.27422921
_cell_length_c   10.04690099
_cell_angle_alpha   89.98106906
_cell_angle_beta   90.04097249
_cell_angle_gamma   60.03093432
_symmetry_Int_Tables_number   1
_chemical_formula_structural   Al11BN12
_chemical_formula_sum   'Al33 B3 N36'
_cell_volume   750.63548079
_cell_formula_units_Z   3
loop_
 _symmetry_equiv_pos_site_id
 _symmetry_equiv_pos_as_xyz
  1  'x, y, z'
loop_
 _atom_site_type_symbol
 _atom_site_label
 _atom_site_symmetry_multiplicity
 _atom_site_fract_x
 _atom_site_fract_y
 _atom_site_fract_z
 _atom_site_occupancy
  Al  Al0  1  0.10600013  0.10154694  0.38855201  1
  Al  Al1  1  0.22394928  0.19784279  0.13655830  1
  Al  Al2  1  0.88694373  0.20262656  0.64313172  1
  Al  Al3  1  0.44667340  0.09163933  0.38727589  1
  Al  Al4  1  0.56086148  0.19960763  0.13296189  1
  Al  Al5  1  0.10804051  0.09098794  0.89317850  1
  Al  Al6  1  0.22154815  0.20581729  0.63969662  1
  Al  Al7  1  0.78052160  0.08990180  0.38469637  1
  Al  Al8  1  0.89273728  0.19794391  0.13236697  1
  Al  Al9  1  0.45663973  0.08943906  0.88824776  1
  Al  Al10  1  0.56473632  0.19637347  0.63728930  1
  Al  Al11  1  0.10790447  0.42849329  0.37670098  1
  Al  Al12  1  0.22789414  0.54267911  0.06799349  1
  Al  Al13  1  0.78345955  0.42336270  0.88735846  1
  Al  Al14  1  0.88634040  0.54446227  0.64168133  1
  Al  Al15  1  0.44262050  0.43283479  0.31988995  1
  Al  Al16  1  0.54690566  0.54512578  0.06823225  1
  Al  Al17  1  0.10576171  0.42871036  0.88429450  1
  Al  Al18  1  0.22038806  0.54483693  0.57178291  1
  Al  Al19  1  0.78242094  0.42618260  0.38687402  1
  Al  Al20  1  0.88684856  0.54133387  0.13081172  1
  Al  Al21  1  0.44907050  0.42696915  0.82043455  1
  Al  Al22  1  0.54889549  0.54452216  0.57178074  1
  Al  Al23  1  0.11582518  0.76559654  0.30803701  1
  Al  Al24  1  0.87895362  0.87699107  0.64810611  1
  Al  Al25  1  0.43418222  0.76415551  0.31327777  1
  Al  Al26  1  0.55457700  0.87476986  0.12695821  1
  Al  Al27  1  0.11022428  0.76129325  0.83266704  1
  Al  Al28  1  0.22191980  0.86845185  0.57339337  1
  Al  Al29  1  0.77792920  0.76391456  0.38279433  1
  Al  Al30  1  0.88766753  0.87593314  0.11400290  1
  Al  Al31  1  0.44815478  0.75771745  0.82815847  1
  Al  Al32  1  0.56401075  0.87200135  0.64171320  1
  B  B33  1  0.77064419  0.09210233  0.89303638  1
  B  B34  1  0.22696324  0.86548347  0.05979988  1
  B  B35  1  0.77079143  0.77057306  0.89374461  1
  N  N36  1  0.22416600  0.20365134  0.32659155  1
  N  N37  1  0.12136166  0.07281871  0.08340840  1
  N  N38  1  0.88048924  0.18792297  0.83436826  1
  N  N39  1  0.78164265  0.09030828  0.57318479  1
  N  N40  1  0.56007449  0.19879150  0.32648520  1
  N  N41  1  0.44387543  0.09663646  0.07438976  1
  N  N42  1  0.22493899  0.19995537  0.83011685  1
  N  N43  1  0.10577774  0.10148136  0.58185955  1
  N  N44  1  0.88691325  0.20517482  0.32305303  1
  N  N45  1  0.77477539  0.09786600  0.05335922  1
  N  N46  1  0.58466677  0.18820198  0.83297316  1
  N  N47  1  0.44556997  0.09278406  0.57909482  1
  N  N48  1  0.22111434  0.54736688  0.37722048  1
  N  N49  1  0.11038580  0.42463118  0.08243609  1
  N  N50  1  0.87688657  0.56421465  0.83335128  1
  N  N51  1  0.78228702  0.42558084  0.58290040  1
  N  N52  1  0.54950837  0.54576670  0.37935772  1
  N  N53  1  0.44376974  0.43202346  0.12969653  1
  N  N54  1  0.22901179  0.53584184  0.87887305  1
  N  N55  1  0.10710609  0.42754060  0.58382414  1
  N  N56  1  0.88542449  0.54259669  0.32144681  1
  N  N57  1  0.78353076  0.42305417  0.07851590  1
  N  N58  1  0.55418001  0.53826396  0.87916953  1
  N  N59  1  0.44247367  0.42947711  0.62944940  1
  N  N60  1  0.22190452  0.86932336  0.38378108  1
  N  N61  1  0.12755215  0.77326673  0.11463309  1
  N  N62  1  0.86437550  0.88353677  0.84502240  1
  N  N63  1  0.77904056  0.76305325  0.57239428  1
  N  N64  1  0.55851408  0.87272798  0.31997292  1
  N  N65  1  0.41656619  0.77392606  0.11914533  1
  N  N66  1  0.23145661  0.85943371  0.89792984  1
  N  N67  1  0.11145694  0.76255502  0.64120057  1
  N  N68  1  0.88308666  0.87475877  0.31008165  1
  N  N69  1  0.77573645  0.76108996  0.05402597  1
  N  N70  1  0.58428818  0.86093771  0.83675945  1
  N  N71  1  0.44000481  0.76330325  0.63730676  1
