# generated using pymatgen
data_Al11BN12
_symmetry_space_group_name_H-M   'P 1'
_cell_length_a   9.31517250
_cell_length_b   9.31093154
_cell_length_c   10.00159531
_cell_angle_alpha   89.92515296
_cell_angle_beta   89.88616676
_cell_angle_gamma   59.92207474
_symmetry_Int_Tables_number   1
_chemical_formula_structural   Al11BN12
_chemical_formula_sum   'Al33 B3 N36'
_cell_volume   750.65694017
_cell_formula_units_Z   3
loop_
 _symmetry_equiv_pos_site_id
 _symmetry_equiv_pos_as_xyz
  1  'x, y, z'
loop_
 _atom_site_type_symbol
 _atom_site_label
 _atom_site_symmetry_multiplicity
 _atom_site_fract_x
 _atom_site_fract_y
 _atom_site_fract_z
 _atom_site_occupancy
  Al  Al0  1  0.10420128  0.10277665  0.38809200  1
  Al  Al1  1  0.22305689  0.19906682  0.13792819  1
  Al  Al2  1  0.88630655  0.20251702  0.64206935  1
  Al  Al3  1  0.44584991  0.09276298  0.38720861  1
  Al  Al4  1  0.56151870  0.19693388  0.12973070  1
  Al  Al5  1  0.10713772  0.09198307  0.89194175  1
  Al  Al6  1  0.22111353  0.20667704  0.63861329  1
  Al  Al7  1  0.77962534  0.09072726  0.38441833  1
  Al  Al8  1  0.89349393  0.19702623  0.13212514  1
  Al  Al9  1  0.45509858  0.08907544  0.88798024  1
  Al  Al10  1  0.56258334  0.19929153  0.63931663  1
  Al  Al11  1  0.10515748  0.42798765  0.38566014  1
  Al  Al12  1  0.22443232  0.54508000  0.06778990  1
  Al  Al13  1  0.78182765  0.42485980  0.88920243  1
  Al  Al14  1  0.88640971  0.54501381  0.64062394  1
  Al  Al15  1  0.44082794  0.42906483  0.32498550  1
  Al  Al16  1  0.55723874  0.54023665  0.12420416  1
  Al  Al17  1  0.10402508  0.42839145  0.88742503  1
  Al  Al18  1  0.22270085  0.54517304  0.57216524  1
  Al  Al19  1  0.77399582  0.43047149  0.38732824  1
  Al  Al20  1  0.88848298  0.54031155  0.13305751  1
  Al  Al21  1  0.45108469  0.41940813  0.84765720  1
  Al  Al22  1  0.55803216  0.53735611  0.64201091  1
  Al  Al23  1  0.11550814  0.76562037  0.30874694  1
  Al  Al24  1  0.87842251  0.87774411  0.64687707  1
  Al  Al25  1  0.43096631  0.77141490  0.31276267  1
  Al  Al26  1  0.55510122  0.87518250  0.12461070  1
  Al  Al27  1  0.11014900  0.76124960  0.83051906  1
  Al  Al28  1  0.22328333  0.86860819  0.57336685  1
  Al  Al29  1  0.77761658  0.76380120  0.38267179  1
  Al  Al30  1  0.88894266  0.87503195  0.11483058  1
  Al  Al31  1  0.44750096  0.76278270  0.83652901  1
  Al  Al32  1  0.56340045  0.87330421  0.64188625  1
  B  B33  1  0.77286478  0.08939969  0.89368707  1
  B  B34  1  0.22728322  0.86608280  0.05827498  1
  B  B35  1  0.77256729  0.77043404  0.89418365  1
  N  N36  1  0.22273057  0.20525896  0.32828051  1
  N  N37  1  0.12149238  0.07391537  0.08323315  1
  N  N38  1  0.88043818  0.18774478  0.83434189  1
  N  N39  1  0.78007584  0.09119050  0.57359035  1
  N  N40  1  0.55942922  0.19864803  0.32341038  1
  N  N41  1  0.44258708  0.09624586  0.07437818  1
  N  N42  1  0.22394154  0.20134209  0.82925953  1
  N  N43  1  0.10511091  0.10248994  0.58171691  1
  N  N44  1  0.88533549  0.20651589  0.32360151  1
  N  N45  1  0.77736592  0.09541119  0.05380738  1
  N  N46  1  0.58562089  0.18536592  0.83559376  1
  N  N47  1  0.44579150  0.09379309  0.57973669  1
  N  N48  1  0.21935212  0.54708408  0.37457388  1
  N  N49  1  0.10966310  0.42368379  0.08063663  1
  N  N50  1  0.87816572  0.56311270  0.83265559  1
  N  N51  1  0.77776645  0.42842646  0.58072511  1
  N  N52  1  0.55753301  0.54146962  0.32379311  1
  N  N53  1  0.44584745  0.42456427  0.10816947  1
  N  N54  1  0.22422484  0.53788690  0.87729537  1
  N  N55  1  0.10632417  0.42789568  0.57959953  1
  N  N56  1  0.88534290  0.54178367  0.32383499  1
  N  N57  1  0.78353760  0.42349841  0.07680174  1
  N  N58  1  0.56367771  0.53367701  0.83994828  1
  N  N59  1  0.44253080  0.42630817  0.62213138  1
  N  N60  1  0.22092706  0.87019340  0.38322491  1
  N  N61  1  0.12861612  0.77345258  0.11530794  1
  N  N62  1  0.86505941  0.88308786  0.84478762  1
  N  N63  1  0.77891689  0.76357874  0.57277932  1
  N  N64  1  0.55807865  0.87460319  0.31948023  1
  N  N65  1  0.41624772  0.77726682  0.11295340  1
  N  N66  1  0.22891608  0.86046041  0.89722179  1
  N  N67  1  0.11104088  0.76352651  0.63894037  1
  N  N68  1  0.88271976  0.87508496  0.31104476  1
  N  N69  1  0.77816811  0.75974126  0.05495136  1
  N  N70  1  0.58566427  0.86135366  0.83864675  1
  N  N71  1  0.43798794  0.76923338  0.63812825  1
