# generated using pymatgen
data_Al11BN12
_symmetry_space_group_name_H-M   'P 1'
_cell_length_a   9.30517974
_cell_length_b   9.28191742
_cell_length_c   10.06615931
_cell_angle_alpha   89.93089010
_cell_angle_beta   89.97520531
_cell_angle_gamma   60.03001212
_symmetry_Int_Tables_number   1
_chemical_formula_structural   Al11BN12
_chemical_formula_sum   'Al33 B3 N36'
_cell_volume   753.16101911
_cell_formula_units_Z   3
loop_
 _symmetry_equiv_pos_site_id
 _symmetry_equiv_pos_as_xyz
  1  'x, y, z'
loop_
 _atom_site_type_symbol
 _atom_site_label
 _atom_site_symmetry_multiplicity
 _atom_site_fract_x
 _atom_site_fract_y
 _atom_site_fract_z
 _atom_site_occupancy
  Al  Al0  1  0.10427589  0.10296954  0.38998833  1
  Al  Al1  1  0.22755436  0.19209498  0.13607883  1
  Al  Al2  1  0.88649951  0.20187969  0.64591165  1
  Al  Al3  1  0.44569233  0.09190450  0.38830774  1
  Al  Al4  1  0.56072827  0.20024298  0.13381397  1
  Al  Al5  1  0.10998529  0.08969220  0.89440985  1
  Al  Al6  1  0.22393660  0.20005734  0.64029778  1
  Al  Al7  1  0.77983386  0.08971067  0.38533915  1
  Al  Al8  1  0.89384490  0.19544809  0.12899195  1
  Al  Al9  1  0.45757586  0.08883942  0.88906303  1
  Al  Al10  1  0.56443668  0.19707481  0.63762035  1
  Al  Al11  1  0.11244117  0.43292852  0.31662110  1
  Al  Al12  1  0.22753831  0.54064123  0.06707808  1
  Al  Al13  1  0.78291661  0.42423938  0.88234024  1
  Al  Al14  1  0.87916776  0.54868054  0.64360133  1
  Al  Al15  1  0.44098966  0.43271507  0.32157131  1
  Al  Al16  1  0.54652194  0.54520288  0.06803187  1
  Al  Al17  1  0.11155369  0.43375448  0.82799176  1
  Al  Al18  1  0.21741306  0.54244384  0.57178132  1
  Al  Al19  1  0.77811389  0.42797857  0.36602123  1
  Al  Al20  1  0.88491213  0.54486406  0.12313040  1
  Al  Al21  1  0.44975055  0.42707533  0.82014095  1
  Al  Al22  1  0.55152225  0.54264111  0.57268503  1
  Al  Al23  1  0.11535529  0.76547100  0.30937150  1
  Al  Al24  1  0.87929763  0.87711621  0.64883174  1
  Al  Al25  1  0.43267262  0.76553929  0.31402757  1
  Al  Al26  1  0.55498694  0.87472565  0.12838221  1
  Al  Al27  1  0.11046562  0.76178907  0.83358140  1
  Al  Al28  1  0.22174568  0.86757804  0.57379542  1
  Al  Al29  1  0.77729255  0.76381488  0.38347292  1
  Al  Al30  1  0.88803489  0.87601041  0.11554404  1
  Al  Al31  1  0.44841550  0.75777327  0.82773139  1
  Al  Al32  1  0.56354638  0.87246987  0.64216528  1
  B  B33  1  0.77205054  0.09079737  0.89348685  1
  B  B34  1  0.22807250  0.86370357  0.06051000  1
  B  B35  1  0.77154747  0.76993481  0.89422556  1
  N  N36  1  0.22481668  0.20046248  0.32889551  1
  N  N37  1  0.12241239  0.07162073  0.08360638  1
  N  N38  1  0.88234114  0.18454373  0.83721394  1
  N  N39  1  0.78161802  0.09030471  0.57350042  1
  N  N40  1  0.55930099  0.19893027  0.32725683  1
  N  N41  1  0.44547305  0.09592333  0.07492008  1
  N  N42  1  0.22819751  0.19468214  0.83297926  1
  N  N43  1  0.10445046  0.10161326  0.58200076  1
  N  N44  1  0.88691068  0.20303401  0.32021970  1
  N  N45  1  0.77437295  0.09703222  0.05380822  1
  N  N46  1  0.58503124  0.18837828  0.83306209  1
  N  N47  1  0.44579229  0.09289015  0.57919702  1
  N  N48  1  0.21774862  0.54510315  0.38061837  1
  N  N49  1  0.11678529  0.42882982  0.12063399  1
  N  N50  1  0.87406552  0.56986273  0.83912393  1
  N  N51  1  0.77905011  0.42640135  0.59839854  1
  N  N52  1  0.54855198  0.54566673  0.37975397  1
  N  N53  1  0.44364594  0.43281580  0.13134232  1
  N  N54  1  0.22912982  0.53470485  0.88180534  1
  N  N55  1  0.11035969  0.43174275  0.63180866  1
  N  N56  1  0.88068572  0.54652164  0.31919048  1
  N  N57  1  0.78345637  0.42283160  0.07972653  1
  N  N58  1  0.55336094  0.53875000  0.88028616  1
  N  N59  1  0.44132123  0.43017602  0.62897551  1
  N  N60  1  0.22065107  0.86943130  0.38467978  1
  N  N61  1  0.12835028  0.77227337  0.11574661  1
  N  N62  1  0.86475716  0.88402475  0.84528749  1
  N  N63  1  0.77868769  0.76393319  0.57254535  1
  N  N64  1  0.55767935  0.87314167  0.32102502  1
  N  N65  1  0.41699945  0.77372630  0.12033611  1
  N  N66  1  0.23259393  0.85788875  0.89901716  1
  N  N67  1  0.11179865  0.76183226  0.64191232  1
  N  N68  1  0.88282062  0.87454384  0.31103805  1
  N  N69  1  0.77467812  0.76420242  0.05424133  1
  N  N70  1  0.58435665  0.86110725  0.83663848  1
  N  N71  1  0.43993915  0.76336904  0.63693622  1
