# generated using pymatgen
data_Al11BN12
_symmetry_space_group_name_H-M   'P 1'
_cell_length_a   9.25980923
_cell_length_b   9.25939361
_cell_length_c   9.89631779
_cell_angle_alpha   90.00328681
_cell_angle_beta   90.11579011
_cell_angle_gamma   59.98661851
_symmetry_Int_Tables_number   1
_chemical_formula_structural   Al11BN12
_chemical_formula_sum   'Al33 B3 N36'
_cell_volume   734.73228490
_cell_formula_units_Z   3
loop_
 _symmetry_equiv_pos_site_id
 _symmetry_equiv_pos_as_xyz
  1  'x, y, z'
loop_
 _atom_site_type_symbol
 _atom_site_label
 _atom_site_symmetry_multiplicity
 _atom_site_fract_x
 _atom_site_fract_y
 _atom_site_fract_z
 _atom_site_occupancy
  Al  Al0  1  0.11108912  0.09211096  0.40579329  1
  Al  Al1  1  0.22372477  0.20057847  0.16288897  1
  Al  Al2  1  0.88914781  0.20053813  0.66697391  1
  Al  Al3  1  0.44644493  0.09330994  0.41373488  1
  Al  Al4  1  0.55753706  0.20436385  0.15843140  1
  Al  Al5  1  0.11094453  0.08668756  0.91791986  1
  Al  Al6  1  0.22127386  0.20457218  0.66298992  1
  Al  Al7  1  0.77904532  0.09210698  0.41122801  1
  Al  Al8  1  0.89099999  0.19912577  0.15632134  1
  Al  Al9  1  0.45506647  0.08893441  0.91328509  1
  Al  Al10  1  0.56257711  0.20165307  0.66731794  1
  Al  Al11  1  0.11004622  0.42857726  0.41270225  1
  Al  Al12  1  0.22415845  0.54289208  0.16325969  1
  Al  Al13  1  0.77630788  0.42871277  0.91258889  1
  Al  Al14  1  0.88704085  0.54467906  0.66737548  1
  Al  Al15  1  0.44589463  0.42574454  0.41364391  1
  Al  Al16  1  0.55107098  0.54219715  0.16402946  1
  Al  Al17  1  0.10776896  0.43363937  0.91371431  1
  Al  Al18  1  0.22187454  0.54050166  0.66253054  1
  Al  Al19  1  0.77989069  0.42635373  0.41277660  1
  Al  Al20  1  0.88737975  0.54158970  0.15732596  1
  Al  Al21  1  0.45046035  0.42401631  0.91327566  1
  Al  Al22  1  0.55580182  0.53999029  0.66242411  1
  Al  Al23  1  0.10929786  0.76401477  0.40525137  1
  Al  Al24  1  0.88613085  0.87376352  0.67133747  1
  Al  Al25  1  0.44308101  0.76287468  0.40634397  1
  Al  Al26  1  0.55182397  0.87307406  0.15817087  1
  Al  Al27  1  0.10877212  0.76662522  0.91678338  1
  Al  Al28  1  0.22262129  0.87200250  0.66077242  1
  Al  Al29  1  0.77864755  0.76239908  0.41095082  1
  Al  Al30  1  0.89021048  0.87459881  0.14923178  1
  Al  Al31  1  0.44454037  0.76165228  0.91770295  1
  Al  Al32  1  0.56111483  0.86834126  0.66697597  1
  B  B33  1  0.77266772  0.09254134  0.91970506  1
  B  B34  1  0.22225770  0.87189313  0.16620118  1
  B  B35  1  0.77217939  0.76637457  0.91986493  1
  N  N36  1  0.22319532  0.20531242  0.35452984  1
  N  N37  1  0.12415781  0.06857071  0.11120638  1
  N  N38  1  0.87967166  0.19033132  0.86241319  1
  N  N39  1  0.78007610  0.09130148  0.60141085  1
  N  N40  1  0.55732785  0.20413903  0.35089477  1
  N  N41  1  0.44414355  0.09516219  0.10248491  1
  N  N42  1  0.22096787  0.20453560  0.85644884  1
  N  N43  1  0.11030523  0.09348010  0.59978350  1
  N  N44  1  0.88721558  0.20470093  0.34862523  1
  N  N45  1  0.77561729  0.09549473  0.08177185  1
  N  N46  1  0.58173061  0.19235965  0.86113059  1
  N  N47  1  0.44672950  0.09304427  0.60845385  1
  N  N48  1  0.22299914  0.53855638  0.35452207  1
  N  N49  1  0.11215931  0.42794142  0.10454484  1
  N  N50  1  0.87693410  0.56532618  0.86128750  1
  N  N51  1  0.78130901  0.42577125  0.60778299  1
  N  N52  1  0.55652036  0.53781497  0.35509348  1
  N  N53  1  0.44513285  0.42751977  0.10346711  1
  N  N54  1  0.22347054  0.54054141  0.85516876  1
  N  N55  1  0.10965806  0.42859518  0.60579816  1
  N  N56  1  0.88777613  0.54071762  0.35007809  1
  N  N57  1  0.77702860  0.42761525  0.10304490  1
  N  N58  1  0.55497664  0.54103746  0.85409433  1
  N  N59  1  0.44634785  0.42497106  0.60631753  1
  N  N60  1  0.22253179  0.87166553  0.33276965  1
  N  N61  1  0.12460496  0.77349067  0.10973610  1
  N  N62  1  0.86936968  0.88212499  0.86871969  1
  N  N63  1  0.77923952  0.76280105  0.60146142  1
  N  N64  1  0.55736182  0.87208652  0.34969878  1
  N  N65  1  0.41979685  0.77305658  0.11101313  1
  N  N66  1  0.22491160  0.87061288  0.84987290  1
  N  N67  1  0.10826784  0.76379258  0.60084292  1
  N  N68  1  0.88663946  0.87328134  0.34263614  1
  N  N69  1  0.77551822  0.76226678  0.08290178  1
  N  N70  1  0.57999033  0.85805671  0.86289701  1
  N  N71  1  0.44469128  0.76285278  0.60025633  1
