# generated using pymatgen
data_Al11BN12
_symmetry_space_group_name_H-M   'P 1'
_cell_length_a   9.25980963
_cell_length_b   9.25939503
_cell_length_c   9.89631578
_cell_angle_alpha   90.00328037
_cell_angle_beta   90.11579954
_cell_angle_gamma   59.98662444
_symmetry_Int_Tables_number   1
_chemical_formula_structural   Al11BN12
_chemical_formula_sum   'Al33 B3 N36'
_cell_volume   734.73232304
_cell_formula_units_Z   3
loop_
 _symmetry_equiv_pos_site_id
 _symmetry_equiv_pos_as_xyz
  1  'x, y, z'
loop_
 _atom_site_type_symbol
 _atom_site_label
 _atom_site_symmetry_multiplicity
 _atom_site_fract_x
 _atom_site_fract_y
 _atom_site_fract_z
 _atom_site_occupancy
  Al  Al0  1  0.11107784  0.09211773  0.40407714  1
  Al  Al1  1  0.22371390  0.20058502  0.16116953  1
  Al  Al2  1  0.88913690  0.20054444  0.66525989  1
  Al  Al3  1  0.44643329  0.09331693  0.41201940  1
  Al  Al4  1  0.55752533  0.20437059  0.15671695  1
  Al  Al5  1  0.11093342  0.08669410  0.91620562  1
  Al  Al6  1  0.22126213  0.20457911  0.66127091  1
  Al  Al7  1  0.77903399  0.09211423  0.40951284  1
  Al  Al8  1  0.89098814  0.19913281  0.15460521  1
  Al  Al9  1  0.45505493  0.08894113  0.91156738  1
  Al  Al10  1  0.56256618  0.20165960  0.66560283  1
  Al  Al11  1  0.11003531  0.42858355  0.41098181  1
  Al  Al12  1  0.22414764  0.54289810  0.16153973  1
  Al  Al13  1  0.77629630  0.42871978  0.91087062  1
  Al  Al14  1  0.88703002  0.54468539  0.66566013  1
  Al  Al15  1  0.44588327  0.42575110  0.41192499  1
  Al  Al16  1  0.55105976  0.54220352  0.16231138  1
  Al  Al17  1  0.10775761  0.43364610  0.91199509  1
  Al  Al18  1  0.22186300  0.54050837  0.66081027  1
  Al  Al19  1  0.77987959  0.42635990  0.41105879  1
  Al  Al20  1  0.88736821  0.54159637  0.15561068  1
  Al  Al21  1  0.45044891  0.42402317  0.91155575  1
  Al  Al22  1  0.55579062  0.53999679  0.66070450  1
  Al  Al23  1  0.10928739  0.76402091  0.40353461  1
  Al  Al24  1  0.88612001  0.87376989  0.66962123  1
  Al  Al25  1  0.44306967  0.76288117  0.40462972  1
  Al  Al26  1  0.55181261  0.87308118  0.15645862  1
  Al  Al27  1  0.10875996  0.76663195  0.91507009  1
  Al  Al28  1  0.22260983  0.87200902  0.65905863  1
  Al  Al29  1  0.77863617  0.76240550  0.40923656  1
  Al  Al30  1  0.89019874  0.87460559  0.14752048  1
  Al  Al31  1  0.44452933  0.76165853  0.91598890  1
  Al  Al32  1  0.56110384  0.86834746  0.66526257  1
  B  B33  1  0.77265674  0.09254665  0.91799126  1
  B  B34  1  0.22224689  0.87189962  0.16448687  1
  B  B35  1  0.77216813  0.76638237  0.91815135  1
  N  N36  1  0.22318432  0.20531853  0.35281139  1
  N  N37  1  0.12414635  0.06857730  0.10949090  1
  N  N38  1  0.87966055  0.19033747  0.86069861  1
  N  N39  1  0.78006495  0.09130839  0.59969568  1
  N  N40  1  0.55731679  0.20414522  0.34917939  1
  N  N41  1  0.44413282  0.09516827  0.10076748  1
  N  N42  1  0.22095619  0.20454207  0.85473100  1
  N  N43  1  0.11029380  0.09348614  0.59806794  1
  N  N44  1  0.88720438  0.20470738  0.34690897  1
  N  N45  1  0.77560597  0.09550062  0.08005685  1
  N  N46  1  0.58171980  0.19236584  0.85941481  1
  N  N47  1  0.44671876  0.09305046  0.60673882  1
  N  N48  1  0.22298796  0.53856312  0.35280281  1
  N  N49  1  0.11214751  0.42794810  0.10282621  1
  N  N50  1  0.87692266  0.56533305  0.85957146  1
  N  N51  1  0.78129840  0.42577724  0.60606630  1
  N  N52  1  0.55650907  0.53782198  0.35337613  1
  N  N53  1  0.44512198  0.42752591  0.10174800  1
  N  N54  1  0.22345860  0.54054883  0.85344977  1
  N  N55  1  0.10964640  0.42860197  0.60407886  1
  N  N56  1  0.88776432  0.54072477  0.34836211  1
  N  N57  1  0.77701729  0.42762207  0.10132693  1
  N  N58  1  0.55496513  0.54104470  0.85237575  1
  N  N59  1  0.44633686  0.42497708  0.60459937  1
  N  N60  1  0.22252086  0.87167225  0.33105436  1
  N  N61  1  0.12459292  0.77349780  0.10802154  1
  N  N62  1  0.86935784  0.88213184  0.86700434  1
  N  N63  1  0.77922805  0.76280749  0.59974673  1
  N  N64  1  0.55735049  0.87209316  0.34798554  1
  N  N65  1  0.41978568  0.77306351  0.10929824  1
  N  N66  1  0.22490009  0.87061924  0.84815894  1
  N  N67  1  0.10825678  0.76379963  0.59912627  1
  N  N68  1  0.88662797  0.87328801  0.34092325  1
  N  N69  1  0.77550678  0.76227389  0.08118742  1
  N  N70  1  0.57997921  0.85806308  0.86118263  1
  N  N71  1  0.44467960  0.76286000  0.59854169  1
