# generated using pymatgen
data_Al11BN12
_symmetry_space_group_name_H-M   'P 1'
_cell_length_a   9.29905924
_cell_length_b   9.27188528
_cell_length_c   10.07092832
_cell_angle_alpha   90.11844214
_cell_angle_beta   90.17121737
_cell_angle_gamma   59.98885907
_symmetry_Int_Tables_number   1
_chemical_formula_structural   Al11BN12
_chemical_formula_sum   'Al33 B3 N36'
_cell_volume   751.89362002
_cell_formula_units_Z   3
loop_
 _symmetry_equiv_pos_site_id
 _symmetry_equiv_pos_as_xyz
  1  'x, y, z'
loop_
 _atom_site_type_symbol
 _atom_site_label
 _atom_site_symmetry_multiplicity
 _atom_site_fract_x
 _atom_site_fract_y
 _atom_site_fract_z
 _atom_site_occupancy
  Al  Al0  1  0.11236430  0.08918460  0.31415963  1
  Al  Al1  1  0.21658116  0.20625703  0.06975863  1
  Al  Al2  1  0.88975577  0.20161551  0.60614236  1
  Al  Al3  1  0.45242675  0.08736773  0.38969628  1
  Al  Al4  1  0.55918516  0.20136199  0.13878946  1
  Al  Al5  1  0.11283084  0.08910635  0.83023196  1
  Al  Al6  1  0.21750020  0.20452272  0.57205395  1
  Al  Al7  1  0.78209170  0.08863336  0.38930814  1
  Al  Al8  1  0.89219002  0.20228050  0.06668299  1
  Al  Al9  1  0.45990844  0.08941884  0.89144973  1
  Al  Al10  1  0.56398405  0.19538043  0.64238133  1
  Al  Al11  1  0.11094432  0.42650373  0.32038972  1
  Al  Al12  1  0.22496737  0.54207534  0.07087052  1
  Al  Al13  1  0.77482568  0.43434009  0.82487373  1
  Al  Al14  1  0.89190579  0.53119191  0.56982199  1
  Al  Al15  1  0.44245635  0.43183488  0.32466286  1
  Al  Al16  1  0.54869507  0.54489707  0.07125367  1
  Al  Al17  1  0.10699173  0.43441501  0.81907628  1
  Al  Al18  1  0.22008281  0.54187907  0.57404099  1
  Al  Al19  1  0.77936082  0.42512929  0.31602571  1
  Al  Al20  1  0.88890797  0.54189335  0.06368473  1
  Al  Al21  1  0.44786180  0.42888419  0.82430208  1
  Al  Al22  1  0.55450762  0.54011121  0.57257079  1
  Al  Al23  1  0.11747750  0.76137345  0.31395896  1
  Al  Al24  1  0.87991921  0.87273076  0.65354642  1
  Al  Al25  1  0.43630235  0.76054395  0.31792879  1
  Al  Al26  1  0.55148739  0.87726415  0.13259588  1
  Al  Al27  1  0.10976446  0.76407531  0.83938286  1
  Al  Al28  1  0.22128221  0.86980115  0.57588703  1
  Al  Al29  1  0.77757752  0.76505039  0.38664170  1
  Al  Al30  1  0.88726355  0.87852782  0.12373582  1
  Al  Al31  1  0.44534987  0.75995928  0.83315103  1
  Al  Al32  1  0.56566129  0.86831605  0.64667813  1
  B  B33  1  0.76713222  0.09046861  0.89840227  1
  B  B34  1  0.22478435  0.87101765  0.06685257  1
  B  B35  1  0.76868070  0.77800648  0.90083249  1
  N  N36  1  0.21913796  0.20372407  0.37833334  1
  N  N37  1  0.12319381  0.07020414  0.12049140  1
  N  N38  1  0.87970263  0.19478958  0.86785054  1
  N  N39  1  0.78008711  0.08540545  0.57917900  1
  N  N40  1  0.56117903  0.19787420  0.32987913  1
  N  N41  1  0.44630310  0.09692270  0.07950155  1
  N  N42  1  0.21790180  0.21018824  0.87847104  1
  N  N43  1  0.11583812  0.08915876  0.64038323  1
  N  N44  1  0.89170763  0.20354240  0.36162232  1
  N  N45  1  0.76839970  0.09526577  0.05732902  1
  N  N46  1  0.58405705  0.19001153  0.83600984  1
  N  N47  1  0.45111812  0.08779900  0.58330194  1
  N  N48  1  0.21970354  0.54187161  0.38281507  1
  N  N49  1  0.10871964  0.43216392  0.13075242  1
  N  N50  1  0.88086335  0.56107590  0.87405114  1
  N  N51  1  0.77551987  0.42961028  0.63579378  1
  N  N52  1  0.55658933  0.54023516  0.38221862  1
  N  N53  1  0.44211660  0.43403571  0.13348519  1
  N  N54  1  0.22556738  0.53569624  0.88390853  1
  N  N55  1  0.11196326  0.42650636  0.63075594  1
  N  N56  1  0.89150449  0.53186450  0.37849257  1
  N  N57  1  0.77684736  0.43176494  0.12407405  1
  N  N58  1  0.55609348  0.53874958  0.88542935  1
  N  N59  1  0.44315594  0.42911661  0.63225435  1
  N  N60  1  0.22114667  0.87161729  0.38724754  1
  N  N61  1  0.12709479  0.77363517  0.11890791  1
  N  N62  1  0.86304220  0.88533543  0.84870232  1
  N  N63  1  0.77815792  0.76417784  0.57689593  1
  N  N64  1  0.55983205  0.86960889  0.32285876  1
  N  N65  1  0.41589028  0.77410813  0.12314386  1
  N  N66  1  0.22557418  0.87180894  0.90501588  1
  N  N67  1  0.11295131  0.76050718  0.64545323  1
  N  N68  1  0.88490787  0.87233947  0.31570564  1
  N  N69  1  0.76907754  0.77511762  0.06049824  1
  N  N70  1  0.58390203  0.86110023  0.84030384  1
  N  N71  1  0.44095303  0.75972116  0.64031381  1
