# generated using pymatgen
data_Al11BN12
_symmetry_space_group_name_H-M   'P 1'
_cell_length_a   9.29685969
_cell_length_b   9.26981136
_cell_length_c   10.07427759
_cell_angle_alpha   90.12329757
_cell_angle_beta   90.17718134
_cell_angle_gamma   59.98154256
_symmetry_Int_Tables_number   1
_chemical_formula_structural   Al11BN12
_chemical_formula_sum   'Al33 B3 N36'
_cell_volume   751.74185484
_cell_formula_units_Z   3
loop_
 _symmetry_equiv_pos_site_id
 _symmetry_equiv_pos_as_xyz
  1  'x, y, z'
loop_
 _atom_site_type_symbol
 _atom_site_label
 _atom_site_symmetry_multiplicity
 _atom_site_fract_x
 _atom_site_fract_y
 _atom_site_fract_z
 _atom_site_occupancy
  Al  Al0  1  0.11239019  0.08935250  0.31494681  1
  Al  Al1  1  0.21610683  0.20614861  0.06974446  1
  Al  Al2  1  0.89131624  0.20302358  0.59129415  1
  Al  Al3  1  0.45248956  0.08741017  0.38982262  1
  Al  Al4  1  0.55880319  0.20142768  0.13859290  1
  Al  Al5  1  0.11111468  0.08992998  0.82882292  1
  Al  Al6  1  0.21791389  0.20451345  0.57235821  1
  Al  Al7  1  0.78120863  0.08768630  0.38953590  1
  Al  Al8  1  0.89222683  0.20224623  0.06403478  1
  Al  Al9  1  0.45967817  0.08947473  0.89148147  1
  Al  Al10  1  0.56461532  0.19534305  0.64276381  1
  Al  Al11  1  0.11104992  0.42660243  0.32034657  1
  Al  Al12  1  0.22490808  0.54200560  0.07075889  1
  Al  Al13  1  0.77560269  0.43241911  0.82365746  1
  Al  Al14  1  0.89186183  0.53162480  0.57014244  1
  Al  Al15  1  0.44231856  0.43202558  0.32457444  1
  Al  Al16  1  0.54902852  0.54453180  0.07133406  1
  Al  Al17  1  0.10688950  0.43433829  0.81917725  1
  Al  Al18  1  0.22013556  0.54190873  0.57419650  1
  Al  Al19  1  0.77945454  0.42520603  0.31689795  1
  Al  Al20  1  0.88878835  0.54133754  0.06375333  1
  Al  Al21  1  0.44795325  0.42893467  0.82439376  1
  Al  Al22  1  0.55449950  0.54019854  0.57278032  1
  Al  Al23  1  0.11768953  0.76122773  0.31386836  1
  Al  Al24  1  0.87990838  0.87332238  0.65381435  1
  Al  Al25  1  0.43632467  0.76057200  0.31789143  1
  Al  Al26  1  0.55141598  0.87726378  0.13257398  1
  Al  Al27  1  0.10979603  0.76416209  0.83943587  1
  Al  Al28  1  0.22136756  0.86977861  0.57607611  1
  Al  Al29  1  0.77761225  0.76510985  0.38677122  1
  Al  Al30  1  0.88727152  0.87821345  0.12350218  1
  Al  Al31  1  0.44537506  0.75998480  0.83337178  1
  Al  Al32  1  0.56573919  0.86837784  0.64682678  1
  B  B33  1  0.76723028  0.09064812  0.89876039  1
  B  B34  1  0.22443840  0.87099048  0.06699647  1
  B  B35  1  0.76864776  0.77770979  0.90087636  1
  N  N36  1  0.21925575  0.20388494  0.37841407  1
  N  N37  1  0.12183636  0.07082382  0.12181855  1
  N  N38  1  0.87990876  0.19526688  0.87066639  1
  N  N39  1  0.77997738  0.08523045  0.57898829  1
  N  N40  1  0.56121665  0.19801823  0.32954903  1
  N  N41  1  0.44590132  0.09693421  0.07952397  1
  N  N42  1  0.21754120  0.20994200  0.87841176  1
  N  N43  1  0.11499082  0.08971812  0.63944573  1
  N  N44  1  0.89272694  0.20450973  0.37133366  1
  N  N45  1  0.76815388  0.09503729  0.05810880  1
  N  N46  1  0.58409587  0.19004892  0.83633814  1
  N  N47  1  0.45137544  0.08789249  0.58333998  1
  N  N48  1  0.21972818  0.54190880  0.38289383  1
  N  N49  1  0.10867995  0.43214818  0.13078708  1
  N  N50  1  0.88064639  0.56063478  0.87411102  1
  N  N51  1  0.77596938  0.42893774  0.63496898  1
  N  N52  1  0.55654965  0.54022957  0.38229179  1
  N  N53  1  0.44198890  0.43411048  0.13351639  1
  N  N54  1  0.22556589  0.53568072  0.88394010  1
  N  N55  1  0.11203169  0.42659085  0.63086022  1
  N  N56  1  0.89166673  0.53200901  0.37859301  1
  N  N57  1  0.77741490  0.43028216  0.12553826  1
  N  N58  1  0.55664420  0.53849851  0.88549206  1
  N  N59  1  0.44319257  0.42915804  0.63238137  1
  N  N60  1  0.22114838  0.87156991  0.38730680  1
  N  N61  1  0.12710675  0.77352858  0.11892933  1
  N  N62  1  0.86315400  0.88529337  0.84900167  1
  N  N63  1  0.77823137  0.76444044  0.57695215  1
  N  N64  1  0.55988287  0.86967085  0.32283988  1
  N  N65  1  0.41581691  0.77408730  0.12318257  1
  N  N66  1  0.22520236  0.87242958  0.90510605  1
  N  N67  1  0.11304718  0.76049386  0.64556480  1
  N  N68  1  0.88505582  0.87241265  0.31544712  1
  N  N69  1  0.76903677  0.77467760  0.06057723  1
  N  N70  1  0.58391250  0.86112911  0.84037439  1
  N  N71  1  0.44098435  0.75979373  0.64048101  1
