# generated using pymatgen
data_Al11BN12
_symmetry_space_group_name_H-M   'P 1'
_cell_length_a   9.26677055
_cell_length_b   9.32348809
_cell_length_c   10.00378152
_cell_angle_alpha   90.23838994
_cell_angle_beta   89.77935100
_cell_angle_gamma   60.10638170
_symmetry_Int_Tables_number   1
_chemical_formula_structural   Al11BN12
_chemical_formula_sum   'Al33 B3 N36'
_cell_volume   749.29410093
_cell_formula_units_Z   3
loop_
 _symmetry_equiv_pos_site_id
 _symmetry_equiv_pos_as_xyz
  1  'x, y, z'
loop_
 _atom_site_type_symbol
 _atom_site_label
 _atom_site_symmetry_multiplicity
 _atom_site_fract_x
 _atom_site_fract_y
 _atom_site_fract_z
 _atom_site_occupancy
  Al  Al0  1  0.11268565  0.08863600  0.30729029  1
  Al  Al1  1  0.22447464  0.19911122  0.05869695  1
  Al  Al2  1  0.88911578  0.20525289  0.56560859  1
  Al  Al3  1  0.44579776  0.09449536  0.30764015  1
  Al  Al4  1  0.56188535  0.20489543  0.05491898  1
  Al  Al5  1  0.10959500  0.08923550  0.81440848  1
  Al  Al6  1  0.22118086  0.20605874  0.56144673  1
  Al  Al7  1  0.77746075  0.09645241  0.30726460  1
  Al  Al8  1  0.88978531  0.19771816  0.05442355  1
  Al  Al9  1  0.46031444  0.08565603  0.80981038  1
  Al  Al10  1  0.55408980  0.20766398  0.56437157  1
  Al  Al11  1  0.11223853  0.42639949  0.31038198  1
  Al  Al12  1  0.22817760  0.53711882  0.06145871  1
  Al  Al13  1  0.77278596  0.43692247  0.80945591  1
  Al  Al14  1  0.89003412  0.53738241  0.56143720  1
  Al  Al15  1  0.44646800  0.42576313  0.31248874  1
  Al  Al16  1  0.55090528  0.54225825  0.06086105  1
  Al  Al17  1  0.10812166  0.43054930  0.81162957  1
  Al  Al18  1  0.21556190  0.54763482  0.56335321  1
  Al  Al19  1  0.77887912  0.42516599  0.30991454  1
  Al  Al20  1  0.89265374  0.53074174  0.06173361  1
  Al  Al21  1  0.44624929  0.43047311  0.80720933  1
  Al  Al22  1  0.55279852  0.54398921  0.55930351  1
  Al  Al23  1  0.12126014  0.75898584  0.30438599  1
  Al  Al24  1  0.87454627  0.86967047  0.66036231  1
  Al  Al25  1  0.43930659  0.76425861  0.30495865  1
  Al  Al26  1  0.54816808  0.87481754  0.05931487  1
  Al  Al27  1  0.11312309  0.75451867  0.83180396  1
  Al  Al28  1  0.21694845  0.87268876  0.56437556  1
  Al  Al29  1  0.78319607  0.76458361  0.37411270  1
  Al  Al30  1  0.89304201  0.86967249  0.10970720  1
  Al  Al31  1  0.44781714  0.76331402  0.81624710  1
  Al  Al32  1  0.54734953  0.87628391  0.55922588  1
  B  B33  1  0.74967709  0.15151218  0.79856638  1
  B  B34  1  0.22456117  0.86935396  0.05536910  1
  B  B35  1  0.78398955  0.75692631  0.89683625  1
  N  N36  1  0.22204438  0.20380112  0.36849375  1
  N  N37  1  0.12122867  0.07033257  0.11113133  1
  N  N38  1  0.87045512  0.20165001  0.86097769  1
  N  N39  1  0.76919981  0.10960545  0.64904812  1
  N  N40  1  0.55852352  0.20332544  0.37454238  1
  N  N41  1  0.44710660  0.09654902  0.11578703  1
  N  N42  1  0.22544576  0.20225122  0.86864419  1
  N  N43  1  0.11090929  0.09415976  0.62450104  1
  N  N44  1  0.88930132  0.20274140  0.37407241  1
  N  N45  1  0.77527521  0.09984154  0.11812496  1
  N  N46  1  0.58006930  0.20202183  0.86132413  1
  N  N47  1  0.44406774  0.09563101  0.62114092  1
  N  N48  1  0.22158620  0.54077728  0.37060435  1
  N  N49  1  0.11444900  0.42454756  0.12025082  1
  N  N50  1  0.88187446  0.54805515  0.87096727  1
  N  N51  1  0.77535845  0.43054842  0.62013782  1
  N  N52  1  0.55435374  0.54229562  0.36773671  1
  N  N53  1  0.44821458  0.42376574  0.12185115  1
  N  N54  1  0.23058511  0.52792379  0.87383744  1
  N  N55  1  0.11068648  0.42876356  0.62120783  1
  N  N56  1  0.89172706  0.53202123  0.36791214  1
  N  N57  1  0.77903765  0.42235183  0.11871931  1
  N  N58  1  0.55326434  0.54184114  0.87140152  1
  N  N59  1  0.44166014  0.43198722  0.61813476  1
  N  N60  1  0.22154810  0.87220990  0.37493759  1
  N  N61  1  0.13334086  0.76814110  0.10762191  1
  N  N62  1  0.88274800  0.83561585  0.84695958  1
  N  N63  1  0.77819879  0.76877531  0.56795007  1
  N  N64  1  0.54875103  0.87490248  0.36377619  1
  N  N65  1  0.42004161  0.77388160  0.11200958  1
  N  N66  1  0.22310850  0.87276193  0.89207843  1
  N  N67  1  0.10964629  0.76505968  0.63512821  1
  N  N68  1  0.89235546  0.86697003  0.31059231  1
  N  N69  1  0.77923694  0.75852561  0.06884039  1
  N  N70  1  0.57788981  0.86104941  0.86841287  1
  N  N71  1  0.44043868  0.76441261  0.62488227  1
