# generated using pymatgen
data_Al11BN12
_symmetry_space_group_name_H-M   'P 1'
_cell_length_a   9.25982657
_cell_length_b   9.25940885
_cell_length_c   9.89633742
_cell_angle_alpha   90.00323054
_cell_angle_beta   90.11574174
_cell_angle_gamma   59.98672269
_symmetry_Int_Tables_number   1
_chemical_formula_structural   Al11BN12
_chemical_formula_sum   'Al33 B3 N36'
_cell_volume   734.73709942
_cell_formula_units_Z   3
loop_
 _symmetry_equiv_pos_site_id
 _symmetry_equiv_pos_as_xyz
  1  'x, y, z'
loop_
 _atom_site_type_symbol
 _atom_site_label
 _atom_site_symmetry_multiplicity
 _atom_site_fract_x
 _atom_site_fract_y
 _atom_site_fract_z
 _atom_site_occupancy
  Al  Al0  1  0.11109832  0.09210356  0.40750554  1
  Al  Al1  1  0.22374772  0.20057047  0.16460287  1
  Al  Al2  1  0.88914215  0.20053025  0.66868753  1
  Al  Al3  1  0.44644846  0.09331195  0.41545620  1
  Al  Al4  1  0.55755995  0.20436012  0.16015199  1
  Al  Al5  1  0.11095362  0.08667242  0.91963448  1
  Al  Al6  1  0.22126648  0.20456188  0.66471252  1
  Al  Al7  1  0.77905467  0.09210178  0.41294077  1
  Al  Al8  1  0.89102206  0.19912194  0.15803731  1
  Al  Al9  1  0.45508458  0.08892387  0.91500009  1
  Al  Al10  1  0.56257498  0.20164808  0.66903373  1
  Al  Al11  1  0.11005971  0.42857147  0.41442016  1
  Al  Al12  1  0.22418172  0.54288673  0.16496997  1
  Al  Al13  1  0.77632276  0.42870711  0.91430760  1
  Al  Al14  1  0.88704067  0.54467396  0.66909201  1
  Al  Al15  1  0.44590685  0.42574695  0.41535687  1
  Al  Al16  1  0.55109778  0.54219594  0.16574297  1
  Al  Al17  1  0.10778369  0.43362329  0.91543158  1
  Al  Al18  1  0.22188009  0.54048590  0.66424561  1
  Al  Al19  1  0.77990305  0.42635194  0.41449731  1
  Al  Al20  1  0.88740524  0.54158571  0.15904628  1
  Al  Al21  1  0.45047863  0.42400405  0.91499682  1
  Al  Al22  1  0.55580038  0.53998651  0.66414609  1
  Al  Al23  1  0.10930549  0.76400908  0.40695560  1
  Al  Al24  1  0.88613198  0.87375182  0.67304868  1
  Al  Al25  1  0.44308927  0.76287409  0.40805571  1
  Al  Al26  1  0.55184564  0.87307253  0.15988490  1
  Al  Al27  1  0.10878919  0.76660388  0.91848628  1
  Al  Al28  1  0.22261785  0.87199091  0.66248381  1
  Al  Al29  1  0.77865543  0.76240130  0.41266410  1
  Al  Al30  1  0.89023111  0.87459508  0.15092799  1
  Al  Al31  1  0.44455149  0.76164776  0.91941816  1
  Al  Al32  1  0.56111044  0.86833638  0.66869125  1
  B  B33  1  0.77268204  0.09254915  0.92141685  1
  B  B34  1  0.22227687  0.87188769  0.16790825  1
  B  B35  1  0.77219902  0.76636227  0.92157620  1
  N  N36  1  0.22320344  0.20530753  0.35624459  1
  N  N37  1  0.12417826  0.06856321  0.11291887  1
  N  N38  1  0.87967740  0.19032168  0.86412778  1
  N  N39  1  0.78007355  0.09129070  0.60312350  1
  N  N40  1  0.55733525  0.20413879  0.35261472  1
  N  N41  1  0.44416742  0.09516009  0.10419965  1
  N  N42  1  0.22097756  0.20451958  0.85817062  1
  N  N43  1  0.11029976  0.09347037  0.60149750  1
  N  N44  1  0.88722498  0.20469926  0.35034051  1
  N  N45  1  0.77563665  0.09549609  0.08348302  1
  N  N46  1  0.58174541  0.19235300  0.86284534  1
  N  N47  1  0.44672129  0.09304234  0.61017621  1
  N  N48  1  0.22301275  0.53855034  0.35623235  1
  N  N49  1  0.11218302  0.42793402  0.10626155  1
  N  N50  1  0.87694934  0.56531508  0.86300299  1
  N  N51  1  0.78130741  0.42576567  0.60950361  1
  N  N52  1  0.55653668  0.53781495  0.35680670  1
  N  N53  1  0.44516006  0.42751530  0.10518714  1
  N  N54  1  0.22349204  0.54051711  0.85688381  1
  N  N55  1  0.10965866  0.42858358  0.60751633  1
  N  N56  1  0.88778987  0.54071624  0.35179822  1
  N  N57  1  0.77705686  0.42760967  0.10476246  1
  N  N58  1  0.55498936  0.54103023  0.85581651  1
  N  N59  1  0.44635149  0.42496540  0.60803113  1
  N  N60  1  0.22254273  0.87165952  0.33447769  1
  N  N61  1  0.12462783  0.77348228  0.11143826  1
  N  N62  1  0.86938748  0.88210464  0.87043054  1
  N  N63  1  0.77923490  0.76279587  0.60317433  1
  N  N64  1  0.55736850  0.87209048  0.35141452  1
  N  N65  1  0.41981697  0.77305608  0.11272625  1
  N  N66  1  0.22492259  0.87059907  0.85158342  1
  N  N67  1  0.10826796  0.76377711  0.60255124  1
  N  N68  1  0.88664899  0.87328006  0.34433603  1
  N  N69  1  0.77553864  0.76225886  0.08461402  1
  N  N70  1  0.58000396  0.85804674  0.86461106  1
  N  N71  1  0.44468816  0.76284679  0.60196963  1
