# generated using pymatgen
data_Al11BN12
_symmetry_space_group_name_H-M   'P 1'
_cell_length_a   9.30404117
_cell_length_b   9.29588968
_cell_length_c   10.05420273
_cell_angle_alpha   90.09239005
_cell_angle_beta   90.04384838
_cell_angle_gamma   59.91046933
_symmetry_Int_Tables_number   1
_chemical_formula_structural   Al11BN12
_chemical_formula_sum   'Al33 B3 N36'
_cell_volume   752.39824485
_cell_formula_units_Z   3
loop_
 _symmetry_equiv_pos_site_id
 _symmetry_equiv_pos_as_xyz
  1  'x, y, z'
loop_
 _atom_site_type_symbol
 _atom_site_label
 _atom_site_symmetry_multiplicity
 _atom_site_fract_x
 _atom_site_fract_y
 _atom_site_fract_z
 _atom_site_occupancy
  Al  Al0  1  0.11254726  0.08858447  0.31729934  1
  Al  Al1  1  0.21478499  0.20482399  0.06905450  1
  Al  Al2  1  0.89443756  0.20578233  0.57257711  1
  Al  Al3  1  0.44343893  0.09265852  0.33341367  1
  Al  Al4  1  0.55940821  0.20524989  0.13000022  1
  Al  Al5  1  0.10727596  0.09104573  0.82472829  1
  Al  Al6  1  0.22751004  0.20149005  0.57480367  1
  Al  Al7  1  0.77838479  0.08690997  0.38972072  1
  Al  Al8  1  0.89389223  0.20089499  0.06438577  1
  Al  Al9  1  0.45278071  0.09236777  0.86592250  1
  Al  Al10  1  0.56753932  0.19761574  0.64700884  1
  Al  Al11  1  0.11013277  0.42877418  0.32178240  1
  Al  Al12  1  0.22306411  0.54228568  0.07073787  1
  Al  Al13  1  0.77743571  0.42777000  0.82064388  1
  Al  Al14  1  0.89247784  0.53349059  0.57227840  1
  Al  Al15  1  0.44214388  0.43337215  0.32314191  1
  Al  Al16  1  0.55076445  0.54271520  0.07095138  1
  Al  Al17  1  0.10636050  0.43383295  0.81905961  1
  Al  Al18  1  0.22132860  0.54209133  0.57567653  1
  Al  Al19  1  0.77941193  0.42664271  0.31928265  1
  Al  Al20  1  0.89000672  0.53739423  0.06402275  1
  Al  Al21  1  0.44773845  0.43034895  0.82672192  1
  Al  Al22  1  0.55481352  0.54095018  0.57391080  1
  Al  Al23  1  0.11777669  0.76125966  0.31503676  1
  Al  Al24  1  0.87938160  0.87656481  0.65400963  1
  Al  Al25  1  0.43650445  0.75950171  0.31631432  1
  Al  Al26  1  0.55353551  0.87058388  0.12286848  1
  Al  Al27  1  0.10868588  0.76444420  0.83938108  1
  Al  Al28  1  0.22243005  0.87052062  0.57702354  1
  Al  Al29  1  0.77579833  0.76677994  0.38832117  1
  Al  Al30  1  0.88800246  0.87622944  0.12476492  1
  Al  Al31  1  0.44502172  0.75876097  0.83586979  1
  Al  Al32  1  0.56657732  0.86743220  0.65148798  1
  B  B33  1  0.76813035  0.09191965  0.90191972  1
  B  B34  1  0.22283961  0.87033775  0.06702095  1
  B  B35  1  0.76956915  0.77530557  0.90295288  1
  N  N36  1  0.22201197  0.20335503  0.37968501  1
  N  N37  1  0.12066674  0.07022031  0.12523727  1
  N  N38  1  0.88013198  0.19529306  0.87446184  1
  N  N39  1  0.78013559  0.08764250  0.57841038  1
  N  N40  1  0.56236061  0.20075770  0.32563367  1
  N  N41  1  0.44129471  0.09788531  0.09589356  1
  N  N42  1  0.21347377  0.21011957  0.88073226  1
  N  N43  1  0.11352670  0.09232144  0.63523147  1
  N  N44  1  0.89326287  0.20573966  0.37794228  1
  N  N45  1  0.77171026  0.09217034  0.06070573  1
  N  N46  1  0.58562923  0.19346507  0.84420397  1
  N  N47  1  0.44509108  0.09364027  0.62941623  1
  N  N48  1  0.22038435  0.54208102  0.38324992  1
  N  N49  1  0.10892547  0.43080433  0.13193953  1
  N  N50  1  0.88074036  0.55714459  0.87408580  1
  N  N51  1  0.77779354  0.42744297  0.63188347  1
  N  N52  1  0.55599488  0.54050164  0.38241485  1
  N  N53  1  0.44059267  0.43593864  0.13157391  1
  N  N54  1  0.22418359  0.53598535  0.88395468  1
  N  N55  1  0.11299467  0.42688740  0.63045326  1
  N  N56  1  0.89140827  0.53334559  0.38013650  1
  N  N57  1  0.77822176  0.42754851  0.12866892  1
  N  N58  1  0.55882926  0.53721839  0.88540035  1
  N  N59  1  0.44414105  0.43050569  0.63429208  1
  N  N60  1  0.22191939  0.87101404  0.38751250  1
  N  N61  1  0.12694743  0.77276789  0.11966961  1
  N  N62  1  0.86277817  0.88502042  0.84961283  1
  N  N63  1  0.77728082  0.76673607  0.57847426  1
  N  N64  1  0.56189026  0.86517727  0.31855059  1
  N  N65  1  0.41523185  0.77208343  0.12129245  1
  N  N66  1  0.22280260  0.87390942  0.90485798  1
  N  N67  1  0.11314545  0.76158321  0.64540389  1
  N  N68  1  0.88495812  0.87242944  0.31676570  1
  N  N69  1  0.77374929  0.77016817  0.06158290  1
  N  N70  1  0.58491324  0.85666217  0.84856255  1
  N  N71  1  0.44177810  0.75976737  0.64223640  1
