# generated using pymatgen
data_Al11BN12
_symmetry_space_group_name_H-M   'P 1'
_cell_length_a   9.29770222
_cell_length_b   9.28014148
_cell_length_c   10.06673219
_cell_angle_alpha   90.09059471
_cell_angle_beta   90.05672271
_cell_angle_gamma   59.93198440
_symmetry_Int_Tables_number   1
_chemical_formula_structural   Al11BN12
_chemical_formula_sum   'Al33 B3 N36'
_cell_volume   751.71075149
_cell_formula_units_Z   3
loop_
 _symmetry_equiv_pos_site_id
 _symmetry_equiv_pos_as_xyz
  1  'x, y, z'
loop_
 _atom_site_type_symbol
 _atom_site_label
 _atom_site_symmetry_multiplicity
 _atom_site_fract_x
 _atom_site_fract_y
 _atom_site_fract_z
 _atom_site_occupancy
  Al  Al0  1  0.11304467  0.08901651  0.31675034  1
  Al  Al1  1  0.21458479  0.20496394  0.06948708  1
  Al  Al2  1  0.89408479  0.20578271  0.57228796  1
  Al  Al3  1  0.45066487  0.08869488  0.37933667  1
  Al  Al4  1  0.55769355  0.20252393  0.13414895  1
  Al  Al5  1  0.10733851  0.09094754  0.82490518  1
  Al  Al6  1  0.22176959  0.20432450  0.57428317  1
  Al  Al7  1  0.77880965  0.08696655  0.38919482  1
  Al  Al8  1  0.89306855  0.20096860  0.06419439  1
  Al  Al9  1  0.45700420  0.09050469  0.88841194  1
  Al  Al10  1  0.56693598  0.19652119  0.64553004  1
  Al  Al11  1  0.11064638  0.42793254  0.32110564  1
  Al  Al12  1  0.22356143  0.54205077  0.07064592  1
  Al  Al13  1  0.77721449  0.42788856  0.82052704  1
  Al  Al14  1  0.89222639  0.53372245  0.57201332  1
  Al  Al15  1  0.44216483  0.43281685  0.32304196  1
  Al  Al16  1  0.55064070  0.54274833  0.07107233  1
  Al  Al17  1  0.10641280  0.43389707  0.81926797  1
  Al  Al18  1  0.22126924  0.54231846  0.57531530  1
  Al  Al19  1  0.77936225  0.42662477  0.31903806  1
  Al  Al20  1  0.88928845  0.53805929  0.06383332  1
  Al  Al21  1  0.44764595  0.42986931  0.82606555  1
  Al  Al22  1  0.55472365  0.54101044  0.57370133  1
  Al  Al23  1  0.11793164  0.76119778  0.31472106  1
  Al  Al24  1  0.87967509  0.87640551  0.65386712  1
  Al  Al25  1  0.43646482  0.76016425  0.31643211  1
  Al  Al26  1  0.55183752  0.87497706  0.12780115  1
  Al  Al27  1  0.10900097  0.76435519  0.83937096  1
  Al  Al28  1  0.22237046  0.87033766  0.57671197  1
  Al  Al29  1  0.77644975  0.76618973  0.38783795  1
  Al  Al30  1  0.88758960  0.87643003  0.12424984  1
  Al  Al31  1  0.44506466  0.75937602  0.83524101  1
  Al  Al32  1  0.56599685  0.86911159  0.64990504  1
  B  B33  1  0.76805001  0.09121117  0.90096766  1
  B  B34  1  0.22303790  0.87050405  0.06709174  1
  B  B35  1  0.76924390  0.77586673  0.90196387  1
  N  N36  1  0.21928951  0.20470593  0.37897471  1
  N  N37  1  0.12055906  0.07032641  0.12475148  1
  N  N38  1  0.87966525  0.19504058  0.87430013  1
  N  N39  1  0.78042340  0.08743918  0.57806338  1
  N  N40  1  0.56128854  0.19903240  0.32598157  1
  N  N41  1  0.44433216  0.09664621  0.07941876  1
  N  N42  1  0.21463145  0.20950946  0.87825387  1
  N  N43  1  0.11320842  0.09203849  0.63573593  1
  N  N44  1  0.89330261  0.20567299  0.37776046  1
  N  N45  1  0.76968229  0.09307750  0.06017075  1
  N  N46  1  0.58425608  0.19149808  0.84010777  1
  N  N47  1  0.45141476  0.08985003  0.59226418  1
  N  N48  1  0.22034246  0.54197694  0.38328073  1
  N  N49  1  0.10877904  0.43095281  0.13135419  1
  N  N50  1  0.88028240  0.55784081  0.87396812  1
  N  N51  1  0.77775951  0.42746135  0.63193687  1
  N  N52  1  0.55595642  0.54057091  0.38242241  1
  N  N53  1  0.44105167  0.43478255  0.13189443  1
  N  N54  1  0.22441148  0.53589526  0.88403639  1
  N  N55  1  0.11276221  0.42744415  0.63103169  1
  N  N56  1  0.89152978  0.53324202  0.37993025  1
  N  N57  1  0.77821627  0.42754251  0.12860240  1
  N  N58  1  0.55859938  0.53729118  0.88538185  1
  N  N59  1  0.44393405  0.43019073  0.63410385  1
  N  N60  1  0.22182380  0.87120856  0.38753212  1
  N  N61  1  0.12695406  0.77282391  0.11956361  1
  N  N62  1  0.86302471  0.88501061  0.84955177  1
  N  N63  1  0.77781415  0.76647627  0.57816775  1
  N  N64  1  0.56042306  0.86867783  0.31969246  1
  N  N65  1  0.41562593  0.77273790  0.12173113  1
  N  N66  1  0.22312562  0.87378688  0.90494441  1
  N  N67  1  0.11327362  0.76151833  0.64558259  1
  N  N68  1  0.88516867  0.87230771  0.31618687  1
  N  N69  1  0.77160976  0.77126145  0.06107697  1
  N  N70  1  0.58388864  0.85964519  0.84412684  1
  N  N71  1  0.44155266  0.76030141  0.64202211  1
