# generated using pymatgen
data_Al11BN12
_symmetry_space_group_name_H-M   'P 1'
_cell_length_a   9.30511039
_cell_length_b   9.28300685
_cell_length_c   10.06791192
_cell_angle_alpha   89.88549711
_cell_angle_beta   89.91433691
_cell_angle_gamma   60.00817088
_symmetry_Int_Tables_number   1
_chemical_formula_structural   Al11BN12
_chemical_formula_sum   'Al33 B3 N36'
_cell_volume   753.20822271
_cell_formula_units_Z   3
loop_
 _symmetry_equiv_pos_site_id
 _symmetry_equiv_pos_as_xyz
  1  'x, y, z'
loop_
 _atom_site_type_symbol
 _atom_site_label
 _atom_site_symmetry_multiplicity
 _atom_site_fract_x
 _atom_site_fract_y
 _atom_site_fract_z
 _atom_site_occupancy
  Al  Al0  1  0.11922772  0.08562160  0.31257871  1
  Al  Al1  1  0.21763609  0.20677358  0.07160398  1
  Al  Al2  1  0.88533975  0.19544118  0.64723774  1
  Al  Al3  1  0.44926037  0.08865297  0.38986371  1
  Al  Al4  1  0.55926975  0.20151244  0.13728892  1
  Al  Al5  1  0.11141793  0.08725404  0.83914260  1
  Al  Al6  1  0.22182470  0.20220393  0.59320653  1
  Al  Al7  1  0.78300145  0.08907053  0.38611030  1
  Al  Al8  1  0.88774077  0.20068453  0.12070642  1
  Al  Al9  1  0.46125703  0.08918277  0.89017887  1
  Al  Al10  1  0.56609759  0.19552812  0.64026862  1
  Al  Al11  1  0.11144069  0.42590394  0.31857474  1
  Al  Al12  1  0.22484573  0.54339474  0.07024894  1
  Al  Al13  1  0.77289541  0.43615450  0.82642463  1
  Al  Al14  1  0.89385347  0.52854624  0.56998913  1
  Al  Al15  1  0.44212924  0.43097871  0.32427706  1
  Al  Al16  1  0.54735644  0.54621994  0.07031118  1
  Al  Al17  1  0.10577286  0.43703973  0.82158997  1
  Al  Al18  1  0.22071745  0.54192324  0.57287522  1
  Al  Al19  1  0.77583861  0.43137417  0.31552903  1
  Al  Al20  1  0.88700864  0.54426911  0.06184457  1
  Al  Al21  1  0.44745892  0.42899777  0.82295388  1
  Al  Al22  1  0.55624666  0.53915433  0.57273852  1
  Al  Al23  1  0.11628444  0.76145447  0.31296903  1
  Al  Al24  1  0.88110055  0.87181612  0.65117048  1
  Al  Al25  1  0.43605203  0.76021577  0.31789858  1
  Al  Al26  1  0.55123499  0.87764605  0.13257925  1
  Al  Al27  1  0.10941002  0.76358240  0.83746143  1
  Al  Al28  1  0.22142571  0.87075221  0.57625463  1
  Al  Al29  1  0.77765636  0.76456253  0.38589288  1
  Al  Al30  1  0.88688963  0.87976886  0.12010789  1
  Al  Al31  1  0.44532640  0.76024991  0.83190263  1
  Al  Al32  1  0.56814790  0.86635402  0.64591864  1
  B  B33  1  0.76882410  0.09920909  0.89610606  1
  B  B34  1  0.22524498  0.87015876  0.06576126  1
  B  B35  1  0.76803656  0.78102439  0.89924968  1
  N  N36  1  0.22035752  0.20307597  0.37052632  1
  N  N37  1  0.12707772  0.06780558  0.11589763  1
  N  N38  1  0.87261503  0.18897833  0.84360323  1
  N  N39  1  0.78365609  0.08665728  0.57444053  1
  N  N40  1  0.56081446  0.19721551  0.32956026  1
  N  N41  1  0.44742854  0.09690695  0.07782580  1
  N  N42  1  0.21951073  0.20942985  0.87480299  1
  N  N43  1  0.11641919  0.08681703  0.64434713  1
  N  N44  1  0.88704852  0.19891259  0.31758716  1
  N  N45  1  0.77116911  0.10024642  0.05480774  1
  N  N46  1  0.58376841  0.19103349  0.83449008  1
  N  N47  1  0.45308067  0.08713840  0.58418583  1
  N  N48  1  0.21902318  0.54192129  0.38176301  1
  N  N49  1  0.10686965  0.43459130  0.12807347  1
  N  N50  1  0.87995453  0.56033874  0.87334384  1
  N  N51  1  0.77701968  0.42784137  0.63469418  1
  N  N52  1  0.55594328  0.53965720  0.38252607  1
  N  N53  1  0.44175635  0.43418965  0.13313193  1
  N  N54  1  0.22594105  0.53635788  0.88363167  1
  N  N55  1  0.11249594  0.42818511  0.63307704  1
  N  N56  1  0.89257867  0.53022175  0.37903221  1
  N  N57  1  0.77228431  0.44003598  0.12327575  1
  N  N58  1  0.55458946  0.53934031  0.88459191  1
  N  N59  1  0.44353799  0.42891950  0.63081918  1
  N  N60  1  0.22003449  0.87143389  0.38724788  1
  N  N61  1  0.12691124  0.77418373  0.11856987  1
  N  N62  1  0.86380632  0.88272902  0.84670167  1
  N  N63  1  0.78014468  0.76269951  0.57571424  1
  N  N64  1  0.55937897  0.86938053  0.32337100  1
  N  N65  1  0.41568662  0.77427377  0.12309820  1
  N  N66  1  0.22655463  0.86861617  0.90489013  1
  N  N67  1  0.11391778  0.75994612  0.64387561  1
  N  N68  1  0.88396950  0.87212371  0.31362295  1
  N  N69  1  0.76812395  0.77747853  0.05883822  1
  N  N70  1  0.58396258  0.86134814  0.83900276  1
  N  N71  1  0.44214819  0.75940016  0.63900404  1
