# generated using pymatgen
data_Al11BN12
_symmetry_space_group_name_H-M   'P 1'
_cell_length_a   9.27833391
_cell_length_b   9.25920434
_cell_length_c   10.07698747
_cell_angle_alpha   90.16190645
_cell_angle_beta   89.71329635
_cell_angle_gamma   60.02734819
_symmetry_Int_Tables_number   1
_chemical_formula_structural   Al11BN12
_chemical_formula_sum   'Al33 B3 N36'
_cell_volume   749.91318198
_cell_formula_units_Z   3
loop_
 _symmetry_equiv_pos_site_id
 _symmetry_equiv_pos_as_xyz
  1  'x, y, z'
loop_
 _atom_site_type_symbol
 _atom_site_label
 _atom_site_symmetry_multiplicity
 _atom_site_fract_x
 _atom_site_fract_y
 _atom_site_fract_z
 _atom_site_occupancy
  Al  Al0  1  0.11496072  0.08851395  0.30668949  1
  Al  Al1  1  0.22236432  0.20210677  0.05961247  1
  Al  Al2  1  0.89313336  0.20451308  0.56175744  1
  Al  Al3  1  0.44367885  0.09388168  0.30855819  1
  Al  Al4  1  0.55155712  0.20834528  0.06199276  1
  Al  Al5  1  0.10877390  0.08926138  0.81717694  1
  Al  Al6  1  0.22194633  0.20387856  0.56199882  1
  Al  Al7  1  0.78286797  0.08545507  0.37329451  1
  Al  Al8  1  0.89584501  0.20023911  0.05951380  1
  Al  Al9  1  0.45607037  0.08917543  0.81128609  1
  Al  Al10  1  0.54999808  0.20780466  0.55969686  1
  Al  Al11  1  0.11161865  0.42714066  0.31181352  1
  Al  Al12  1  0.22562210  0.54198727  0.06067439  1
  Al  Al13  1  0.77669461  0.42674815  0.81153333  1
  Al  Al14  1  0.89147391  0.53322397  0.56533068  1
  Al  Al15  1  0.44487244  0.42772277  0.31105478  1
  Al  Al16  1  0.55173343  0.54255238  0.06037925  1
  Al  Al17  1  0.10812860  0.43287127  0.81071870  1
  Al  Al18  1  0.21782338  0.54473290  0.56520215  1
  Al  Al19  1  0.77946081  0.42707247  0.30772687  1
  Al  Al20  1  0.89259733  0.53693254  0.05549160  1
  Al  Al21  1  0.45244544  0.42205339  0.81064912  1
  Al  Al22  1  0.55519612  0.53933165  0.56104267  1
  Al  Al23  1  0.12193093  0.75874806  0.30573970  1
  Al  Al24  1  0.87210154  0.88097881  0.64744849  1
  Al  Al25  1  0.44022713  0.76306242  0.30775365  1
  Al  Al26  1  0.54524372  0.87709148  0.05983861  1
  Al  Al27  1  0.11105839  0.76370821  0.82974357  1
  Al  Al28  1  0.21758740  0.87106086  0.56625393  1
  Al  Al29  1  0.78305691  0.76255922  0.38153636  1
  Al  Al30  1  0.89077242  0.87523970  0.12165342  1
  Al  Al31  1  0.45010532  0.75992779  0.81667407  1
  Al  Al32  1  0.54782649  0.87422379  0.56292543  1
  B  B33  1  0.77374526  0.08872967  0.89232051  1
  B  B34  1  0.22497378  0.87133980  0.05804524  1
  B  B35  1  0.77117516  0.77738526  0.89811115  1
  N  N36  1  0.22206733  0.20350605  0.37066331  1
  N  N37  1  0.12473862  0.06960779  0.11411610  1
  N  N38  1  0.87843823  0.19091785  0.86808053  1
  N  N39  1  0.78083552  0.08647721  0.56746623  1
  N  N40  1  0.54934212  0.20772891  0.36773809  1
  N  N41  1  0.44212270  0.09666383  0.12016880  1
  N  N42  1  0.22245558  0.20547652  0.87087501  1
  N  N43  1  0.11168590  0.09287829  0.62717135  1
  N  N44  1  0.89458049  0.20632906  0.36617548  1
  N  N45  1  0.77759050  0.09267406  0.07357435  1
  N  N46  1  0.57654218  0.19509462  0.86997510  1
  N  N47  1  0.44337751  0.09498168  0.62341067  1
  N  N48  1  0.22104125  0.54156699  0.37319951  1
  N  N49  1  0.11160965  0.42945948  0.12156632  1
  N  N50  1  0.88073790  0.55758452  0.86560016  1
  N  N51  1  0.77681179  0.42587643  0.62300334  1
  N  N52  1  0.55600519  0.54006709  0.36978342  1
  N  N53  1  0.44500833  0.42861599  0.12256742  1
  N  N54  1  0.22707012  0.53462879  0.87373300  1
  N  N55  1  0.11240221  0.42662105  0.62218978  1
  N  N56  1  0.89257022  0.53132529  0.37140702  1
  N  N57  1  0.77929620  0.42870210  0.11766643  1
  N  N58  1  0.55668792  0.53788128  0.87291239  1
  N  N59  1  0.44328480  0.42853111  0.62177787  1
  N  N60  1  0.22154570  0.87154038  0.37754666  1
  N  N61  1  0.13116663  0.77190378  0.11089998  1
  N  N62  1  0.85981426  0.89049905  0.84340766  1
  N  N63  1  0.77882267  0.76442874  0.57339212  1
  N  N64  1  0.54990876  0.87344780  0.36777332  1
  N  N65  1  0.42137378  0.77350577  0.11507097  1
  N  N66  1  0.22752123  0.87167042  0.89468665  1
  N  N67  1  0.10939121  0.76285503  0.63758983  1
  N  N68  1  0.88899704  0.86779956  0.30993626  1
  N  N69  1  0.77992960  0.76870493  0.05778247  1
  N  N70  1  0.57435499  0.86422990  0.86969177  1
  N  N71  1  0.44087285  0.76146544  0.62685009  1
