# generated using pymatgen
data_Al11BN12
_symmetry_space_group_name_H-M   'P 1'
_cell_length_a   9.29589679
_cell_length_b   9.27235505
_cell_length_c   10.11102295
_cell_angle_alpha   89.75499821
_cell_angle_beta   90.04598656
_cell_angle_gamma   59.96089536
_symmetry_Int_Tables_number   1
_chemical_formula_structural   Al11BN12
_chemical_formula_sum   'Al33 B3 N36'
_cell_volume   754.44802636
_cell_formula_units_Z   3
loop_
 _symmetry_equiv_pos_site_id
 _symmetry_equiv_pos_as_xyz
  1  'x, y, z'
loop_
 _atom_site_type_symbol
 _atom_site_label
 _atom_site_symmetry_multiplicity
 _atom_site_fract_x
 _atom_site_fract_y
 _atom_site_fract_z
 _atom_site_occupancy
  Al  Al0  1  0.10385606  0.10430078  0.38935074  1
  Al  Al1  1  0.22615070  0.19373484  0.13765121  1
  Al  Al2  1  0.88966195  0.19495065  0.64561269  1
  Al  Al3  1  0.44602625  0.09139945  0.38841525  1
  Al  Al4  1  0.55998304  0.20059554  0.13426317  1
  Al  Al5  1  0.10857035  0.09073592  0.89539823  1
  Al  Al6  1  0.22546076  0.19915122  0.64108938  1
  Al  Al7  1  0.78047368  0.08955819  0.38573967  1
  Al  Al8  1  0.89406497  0.19358354  0.12991000  1
  Al  Al9  1  0.45642846  0.08954977  0.89004169  1
  Al  Al10  1  0.56385251  0.19756431  0.63847943  1
  Al  Al11  1  0.10712480  0.43551785  0.31689258  1
  Al  Al12  1  0.22613596  0.54148132  0.06837264  1
  Al  Al13  1  0.77465252  0.43040326  0.82911210  1
  Al  Al14  1  0.88966444  0.53624840  0.58797669  1
  Al  Al15  1  0.44217654  0.43195914  0.32217715  1
  Al  Al16  1  0.54838119  0.54448107  0.06905505  1
  Al  Al17  1  0.10880858  0.43505773  0.82414209  1
  Al  Al18  1  0.21943374  0.54345242  0.57117222  1
  Al  Al19  1  0.77424409  0.43404272  0.31374521  1
  Al  Al20  1  0.88949073  0.54010423  0.06295547  1
  Al  Al21  1  0.44900267  0.42749736  0.82169306  1
  Al  Al22  1  0.55608238  0.54036412  0.57129182  1
  Al  Al23  1  0.11647557  0.76480167  0.31029311  1
  Al  Al24  1  0.87888690  0.87665297  0.65050151  1
  Al  Al25  1  0.43371747  0.76369714  0.31522822  1
  Al  Al26  1  0.55354396  0.87568382  0.13054354  1
  Al  Al27  1  0.11046121  0.76161587  0.83418513  1
  Al  Al28  1  0.22295853  0.86734297  0.57373748  1
  Al  Al29  1  0.77739930  0.76431466  0.38558307  1
  Al  Al30  1  0.88733552  0.87751790  0.11908552  1
  Al  Al31  1  0.44800532  0.75773905  0.82930679  1
  Al  Al32  1  0.56413631  0.87192435  0.64439426  1
  B  B33  1  0.77229000  0.09246506  0.89391091  1
  B  B34  1  0.22817276  0.86335107  0.06143328  1
  B  B35  1  0.76836182  0.77927492  0.89734618  1
  N  N36  1  0.22592563  0.20017353  0.32783433  1
  N  N37  1  0.12111317  0.07420279  0.08297536  1
  N  N38  1  0.88212246  0.18070191  0.83773968  1
  N  N39  1  0.78077062  0.09044725  0.57346450  1
  N  N40  1  0.56000430  0.19771408  0.32689569  1
  N  N41  1  0.44341262  0.09759252  0.07505244  1
  N  N42  1  0.22778965  0.19428588  0.83208961  1
  N  N43  1  0.10459606  0.10307056  0.58073294  1
  N  N44  1  0.88879237  0.19864356  0.32075553  1
  N  N45  1  0.77363164  0.09861887  0.05371929  1
  N  N46  1  0.58443817  0.18850597  0.83326911  1
  N  N47  1  0.44590484  0.09296879  0.57910403  1
  N  N48  1  0.21933690  0.54384397  0.38075954  1
  N  N49  1  0.10902129  0.43420533  0.12454863  1
  N  N50  1  0.88128014  0.55812260  0.87063622  1
  N  N51  1  0.77398232  0.42991383  0.63870952  1
  N  N52  1  0.55527483  0.54126768  0.38128996  1
  N  N53  1  0.44252219  0.43352742  0.13207766  1
  N  N54  1  0.22825262  0.53391918  0.88306805  1
  N  N55  1  0.11174157  0.43304360  0.63385665  1
  N  N56  1  0.89044102  0.53360761  0.37403096  1
  N  N57  1  0.77424264  0.43435959  0.12124502  1
  N  N58  1  0.55621127  0.53685584  0.88456566  1
  N  N59  1  0.44238204  0.43130770  0.63028825  1
  N  N60  1  0.22191541  0.86879653  0.38578891  1
  N  N61  1  0.12767509  0.77333566  0.11691398  1
  N  N62  1  0.86419556  0.88261033  0.84573073  1
  N  N63  1  0.77659930  0.76814771  0.57571525  1
  N  N64  1  0.55891523  0.87128504  0.32142219  1
  N  N65  1  0.41586942  0.77413337  0.12142063  1
  N  N66  1  0.23234387  0.85778984  0.90030418  1
  N  N67  1  0.11189730  0.76278648  0.64288174  1
  N  N68  1  0.88359217  0.87297969  0.31231862  1
  N  N69  1  0.76957953  0.77422954  0.05633693  1
  N  N70  1  0.58461470  0.86099638  0.83739100  1
  N  N71  1  0.44100972  0.76199565  0.63833119  1
