# generated using pymatgen
data_Al11BN12
_symmetry_space_group_name_H-M   'P 1'
_cell_length_a   9.30514971
_cell_length_b   9.28065628
_cell_length_c   10.10413430
_cell_angle_alpha   89.83101078
_cell_angle_beta   90.04824335
_cell_angle_gamma   59.96370619
_symmetry_Int_Tables_number   1
_chemical_formula_structural   Al11BN12
_chemical_formula_sum   'Al33 B3 N36'
_cell_volume   755.38681865
_cell_formula_units_Z   3
loop_
 _symmetry_equiv_pos_site_id
 _symmetry_equiv_pos_as_xyz
  1  'x, y, z'
loop_
 _atom_site_type_symbol
 _atom_site_label
 _atom_site_symmetry_multiplicity
 _atom_site_fract_x
 _atom_site_fract_y
 _atom_site_fract_z
 _atom_site_occupancy
  Al  Al0  1  0.10444030  0.10341840  0.38984489  1
  Al  Al1  1  0.22741953  0.19216866  0.13661281  1
  Al  Al2  1  0.88991525  0.19532858  0.64518864  1
  Al  Al3  1  0.44634797  0.09130510  0.38823663  1
  Al  Al4  1  0.55993991  0.20068637  0.13397393  1
  Al  Al5  1  0.10848850  0.09070080  0.89536768  1
  Al  Al6  1  0.22461096  0.19996274  0.64078681  1
  Al  Al7  1  0.78032007  0.08937439  0.38552546  1
  Al  Al8  1  0.89425491  0.19192869  0.12907407  1
  Al  Al9  1  0.45716894  0.08889278  0.88961994  1
  Al  Al10  1  0.56378153  0.19772380  0.63840032  1
  Al  Al11  1  0.11265079  0.43312913  0.31674085  1
  Al  Al12  1  0.22701083  0.54140741  0.06745670  1
  Al  Al13  1  0.77378561  0.42902358  0.83319102  1
  Al  Al14  1  0.88307390  0.55028074  0.64073235  1
  Al  Al15  1  0.44210551  0.43224622  0.32211200  1
  Al  Al16  1  0.54765744  0.54429832  0.06808729  1
  Al  Al17  1  0.11156583  0.43371387  0.82916567  1
  Al  Al18  1  0.21906672  0.54287857  0.57160571  1
  Al  Al19  1  0.77114101  0.43150202  0.31354300  1
  Al  Al20  1  0.88576445  0.54646197  0.11703458  1
  Al  Al21  1  0.44911286  0.42756246  0.82104363  1
  Al  Al22  1  0.55710269  0.53984641  0.57170056  1
  Al  Al23  1  0.11586303  0.76541072  0.30989537  1
  Al  Al24  1  0.87898491  0.87731805  0.64938112  1
  Al  Al25  1  0.43387589  0.76414157  0.31493674  1
  Al  Al26  1  0.55425001  0.87489061  0.12925487  1
  Al  Al27  1  0.11001689  0.76231490  0.83369922  1
  Al  Al28  1  0.22331945  0.86664194  0.57362522  1
  Al  Al29  1  0.77827877  0.76253696  0.38399770  1
  Al  Al30  1  0.88723597  0.87660074  0.11741685  1
  Al  Al31  1  0.44772019  0.75822116  0.82886243  1
  Al  Al32  1  0.56309246  0.87270210  0.64319896  1
  B  B33  1  0.77254970  0.09085167  0.89332335  1
  B  B34  1  0.22805627  0.86340663  0.06116557  1
  B  B35  1  0.77176374  0.77083658  0.89435864  1
  N  N36  1  0.22573698  0.19994731  0.32817271  1
  N  N37  1  0.12150535  0.07316604  0.08317473  1
  N  N38  1  0.88234989  0.18081345  0.83784041  1
  N  N39  1  0.78062788  0.09043723  0.57321885  1
  N  N40  1  0.55978809  0.19824024  0.32681290  1
  N  N41  1  0.44487561  0.09619103  0.07480795  1
  N  N42  1  0.22764866  0.19438738  0.83256237  1
  N  N43  1  0.10534597  0.10184754  0.58105916  1
  N  N44  1  0.88944538  0.19825037  0.32141442  1
  N  N45  1  0.77349668  0.09718606  0.05343923  1
  N  N46  1  0.58425727  0.18867397  0.83306388  1
  N  N47  1  0.44586946  0.09309747  0.57892758  1
  N  N48  1  0.21945362  0.54441861  0.38102642  1
  N  N49  1  0.11626355  0.42887705  0.11991671  1
  N  N50  1  0.87532067  0.57077572  0.84254371  1
  N  N51  1  0.77436470  0.42857278  0.63761518  1
  N  N52  1  0.55492867  0.54171587  0.38169167  1
  N  N53  1  0.44248388  0.43357409  0.13212589  1
  N  N54  1  0.22905558  0.53505287  0.88256862  1
  N  N55  1  0.11229118  0.43195210  0.63250812  1
  N  N56  1  0.88455253  0.54621668  0.32461526  1
  N  N57  1  0.77221120  0.42916153  0.11714814  1
  N  N58  1  0.55488096  0.53779400  0.88395843  1
  N  N59  1  0.44250056  0.43122266  0.62984414  1
  N  N60  1  0.22221703  0.86835324  0.38549084  1
  N  N61  1  0.12761877  0.77301747  0.11659148  1
  N  N62  1  0.86424150  0.88383118  0.84493248  1
  N  N63  1  0.77777141  0.76522655  0.57292420  1
  N  N64  1  0.55831054  0.87231429  0.32108923  1
  N  N65  1  0.41615963  0.77375451  0.12115883  1
  N  N66  1  0.23222991  0.85800327  0.90000947  1
  N  N67  1  0.11177890  0.76252330  0.64233120  1
  N  N68  1  0.88314884  0.87406443  0.31178944  1
  N  N69  1  0.77326212  0.76666282  0.05404164  1
  N  N70  1  0.58388201  0.86138624  0.83669302  1
  N  N71  1  0.44125190  0.76168089  0.63781659  1
