# generated using pymatgen
data_Al11BN12
_symmetry_space_group_name_H-M   'P 1'
_cell_length_a   9.27699665
_cell_length_b   9.25772713
_cell_length_c   10.07732244
_cell_angle_alpha   90.17383373
_cell_angle_beta   89.71339303
_cell_angle_gamma   60.03519903
_symmetry_Int_Tables_number   1
_chemical_formula_structural   Al11BN12
_chemical_formula_sum   'Al33 B3 N36'
_cell_volume   749.76852086
_cell_formula_units_Z   3
loop_
 _symmetry_equiv_pos_site_id
 _symmetry_equiv_pos_as_xyz
  1  'x, y, z'
loop_
 _atom_site_type_symbol
 _atom_site_label
 _atom_site_symmetry_multiplicity
 _atom_site_fract_x
 _atom_site_fract_y
 _atom_site_fract_z
 _atom_site_occupancy
  Al  Al0  1  0.11490775  0.08854512  0.30647251  1
  Al  Al1  1  0.22224216  0.20228953  0.05974435  1
  Al  Al2  1  0.89302004  0.20414345  0.56067044  1
  Al  Al3  1  0.44364996  0.09398557  0.30830651  1
  Al  Al4  1  0.55442072  0.20715910  0.06331663  1
  Al  Al5  1  0.10890526  0.08879011  0.81722520  1
  Al  Al6  1  0.22194682  0.20378054  0.56191509  1
  Al  Al7  1  0.78228680  0.08641398  0.36801941  1
  Al  Al8  1  0.89439062  0.19914934  0.06089453  1
  Al  Al9  1  0.45578360  0.08894879  0.81129430  1
  Al  Al10  1  0.55046806  0.20741089  0.55886627  1
  Al  Al11  1  0.11161436  0.42716669  0.31187382  1
  Al  Al12  1  0.22550312  0.54219120  0.06079476  1
  Al  Al13  1  0.77623070  0.42718540  0.81150341  1
  Al  Al14  1  0.89152102  0.53278554  0.56531230  1
  Al  Al15  1  0.44493118  0.42753486  0.31066188  1
  Al  Al16  1  0.55173124  0.54256933  0.06055393  1
  Al  Al17  1  0.10804336  0.43296596  0.81054652  1
  Al  Al18  1  0.21817813  0.54429660  0.56501799  1
  Al  Al19  1  0.77965670  0.42690918  0.30740811  1
  Al  Al20  1  0.89263861  0.53729123  0.05561483  1
  Al  Al21  1  0.45228396  0.42243796  0.81066006  1
  Al  Al22  1  0.55531847  0.53906280  0.56096111  1
  Al  Al23  1  0.12215397  0.75834051  0.30602316  1
  Al  Al24  1  0.87275753  0.88065269  0.64540845  1
  Al  Al25  1  0.44031745  0.76301888  0.30778672  1
  Al  Al26  1  0.54514232  0.87733739  0.06005161  1
  Al  Al27  1  0.11143190  0.76377071  0.82950362  1
  Al  Al28  1  0.21756372  0.87110950  0.56611161  1
  Al  Al29  1  0.78321755  0.76216213  0.38205981  1
  Al  Al30  1  0.89028738  0.87622677  0.12309950  1
  Al  Al31  1  0.45005674  0.75986521  0.81655248  1
  Al  Al32  1  0.54772792  0.87427703  0.56292614  1
  B  B33  1  0.77348681  0.08943273  0.88025790  1
  B  B34  1  0.22478020  0.87155179  0.05818524  1
  B  B35  1  0.77013894  0.77755531  0.89821684  1
  N  N36  1  0.22213005  0.20338148  0.37060140  1
  N  N37  1  0.12476773  0.06973848  0.11360773  1
  N  N38  1  0.87686779  0.18877088  0.86811999  1
  N  N39  1  0.78088316  0.08630978  0.56647931  1
  N  N40  1  0.54839175  0.20816990  0.36806518  1
  N  N41  1  0.44207253  0.09697810  0.11963910  1
  N  N42  1  0.22207628  0.20565969  0.87087133  1
  N  N43  1  0.11139441  0.09293271  0.62744733  1
  N  N44  1  0.89508781  0.20674514  0.36656592  1
  N  N45  1  0.77585950  0.09677332  0.09174610  1
  N  N46  1  0.57880259  0.19380284  0.86978910  1
  N  N47  1  0.44341563  0.09503765  0.62367314  1
  N  N48  1  0.22150331  0.54115903  0.37324658  1
  N  N49  1  0.11150007  0.42967133  0.12157304  1
  N  N50  1  0.88062383  0.55781068  0.86552846  1
  N  N51  1  0.77694884  0.42538231  0.62331795  1
  N  N52  1  0.55612300  0.53991945  0.36969348  1
  N  N53  1  0.44465867  0.42885285  0.12201875  1
  N  N54  1  0.22695942  0.53466797  0.87368948  1
  N  N55  1  0.11243272  0.42652843  0.62218919  1
  N  N56  1  0.89257773  0.53104969  0.37159539  1
  N  N57  1  0.77943918  0.42916598  0.11710277  1
  N  N58  1  0.55663382  0.53791737  0.87296316  1
  N  N59  1  0.44353591  0.42813418  0.62205202  1
  N  N60  1  0.22167947  0.87154169  0.37751129  1
  N  N61  1  0.13100490  0.77220481  0.11077778  1
  N  N62  1  0.85939766  0.89296730  0.84280291  1
  N  N63  1  0.77859694  0.76392258  0.57395946  1
  N  N64  1  0.54998925  0.87348405  0.36779856  1
  N  N65  1  0.42144419  0.77357990  0.11507734  1
  N  N66  1  0.22769423  0.87158425  0.89456944  1
  N  N67  1  0.10967177  0.76249359  0.63757317  1
  N  N68  1  0.89054782  0.86518968  0.31163252  1
  N  N69  1  0.78010013  0.76944270  0.05710127  1
  N  N70  1  0.57427171  0.86420731  0.86966097  1
  N  N71  1  0.44084941  0.76135532  0.62683034  1
