# generated using pymatgen
data_Al11BN12
_symmetry_space_group_name_H-M   'P 1'
_cell_length_a   9.28790739
_cell_length_b   9.26226523
_cell_length_c   10.13367620
_cell_angle_alpha   89.73563448
_cell_angle_beta   90.04417889
_cell_angle_gamma   59.95412701
_symmetry_Int_Tables_number   1
_chemical_formula_structural   Al11BN12
_chemical_formula_sum   'Al33 B3 N36'
_cell_volume   754.61326156
_cell_formula_units_Z   3
loop_
 _symmetry_equiv_pos_site_id
 _symmetry_equiv_pos_as_xyz
  1  'x, y, z'
loop_
 _atom_site_type_symbol
 _atom_site_label
 _atom_site_symmetry_multiplicity
 _atom_site_fract_x
 _atom_site_fract_y
 _atom_site_fract_z
 _atom_site_occupancy
  Al  Al0  1  0.10404540  0.10396421  0.38957116  1
  Al  Al1  1  0.22535941  0.19476634  0.13807266  1
  Al  Al2  1  0.88967644  0.19466677  0.64551268  1
  Al  Al3  1  0.44623969  0.09108020  0.38872405  1
  Al  Al4  1  0.55989632  0.20077907  0.13427389  1
  Al  Al5  1  0.10822869  0.09127069  0.89546842  1
  Al  Al6  1  0.22587085  0.19876712  0.64106292  1
  Al  Al7  1  0.78058093  0.08929340  0.38605701  1
  Al  Al8  1  0.89374618  0.19472755  0.13034574  1
  Al  Al9  1  0.45583355  0.09005677  0.89012099  1
  Al  Al10  1  0.56401852  0.19723540  0.63885263  1
  Al  Al11  1  0.10726029  0.43535613  0.31782739  1
  Al  Al12  1  0.22545515  0.54152766  0.06847908  1
  Al  Al13  1  0.77512902  0.43166007  0.82651033  1
  Al  Al14  1  0.89175448  0.53211496  0.57595259  1
  Al  Al15  1  0.44218263  0.43193261  0.32207145  1
  Al  Al16  1  0.54895581  0.54450602  0.06918584  1
  Al  Al17  1  0.10704594  0.43607721  0.82168905  1
  Al  Al18  1  0.21958187  0.54339567  0.57143088  1
  Al  Al19  1  0.77426005  0.43390038  0.31473961  1
  Al  Al20  1  0.88938654  0.54021747  0.06075233  1
  Al  Al21  1  0.44895766  0.42750127  0.82205679  1
  Al  Al22  1  0.55598400  0.54034344  0.57155704  1
  Al  Al23  1  0.11678953  0.76458423  0.31010501  1
  Al  Al24  1  0.87894816  0.87550536  0.65069036  1
  Al  Al25  1  0.43364427  0.76349303  0.31496334  1
  Al  Al26  1  0.55309231  0.87617212  0.13040804  1
  Al  Al27  1  0.11049450  0.76149392  0.83432291  1
  Al  Al28  1  0.22305721  0.86728086  0.57388406  1
  Al  Al29  1  0.77683527  0.76549487  0.38597958  1
  Al  Al30  1  0.88731682  0.87805598  0.11904136  1
  Al  Al31  1  0.44802294  0.75769158  0.82953252  1
  Al  Al32  1  0.56536981  0.87075376  0.64478080  1
  B  B33  1  0.77217598  0.09327913  0.89377003  1
  B  B34  1  0.22809820  0.86343511  0.06147840  1
  B  B35  1  0.76779710  0.78078994  0.89801830  1
  N  N36  1  0.22611859  0.19984382  0.32790304  1
  N  N37  1  0.12061103  0.07517763  0.08273395  1
  N  N38  1  0.88189679  0.18103641  0.83720934  1
  N  N39  1  0.78093640  0.08984132  0.57347153  1
  N  N40  1  0.56016038  0.19741726  0.32666628  1
  N  N41  1  0.44256421  0.09847624  0.07490926  1
  N  N42  1  0.22755421  0.19457900  0.83147989  1
  N  N43  1  0.10456931  0.10317788  0.58034214  1
  N  N44  1  0.88896884  0.19832623  0.32088767  1
  N  N45  1  0.77359533  0.09955730  0.05360534  1
  N  N46  1  0.58445102  0.18845703  0.83334056  1
  N  N47  1  0.44643161  0.09227658  0.57903226  1
  N  N48  1  0.21938972  0.54383207  0.38123454  1
  N  N49  1  0.10697907  0.43621060  0.12703657  1
  N  N50  1  0.88207178  0.55622982  0.87296765  1
  N  N51  1  0.77479898  0.42998627  0.63723277  1
  N  N52  1  0.55519845  0.54127893  0.38177531  1
  N  N53  1  0.44225920  0.43395260  0.13223375  1
  N  N54  1  0.22762774  0.53336893  0.88329263  1
  N  N55  1  0.11103003  0.43304546  0.63255780  1
  N  N56  1  0.89173660  0.53092045  0.38073625  1
  N  N57  1  0.77412292  0.43642966  0.12394115  1
  N  N58  1  0.55723461  0.53634039  0.88482110  1
  N  N59  1  0.44242570  0.43123567  0.63089525  1
  N  N60  1  0.22211740  0.86844937  0.38609317  1
  N  N61  1  0.12765063  0.77360910  0.11710386  1
  N  N62  1  0.86416462  0.88238864  0.84590861  1
  N  N63  1  0.77720650  0.76705649  0.57508372  1
  N  N64  1  0.55927324  0.87077628  0.32088521  1
  N  N65  1  0.41558926  0.77440649  0.12153772  1
  N  N66  1  0.23228998  0.85782070  0.90075125  1
  N  N67  1  0.11213549  0.76269003  0.64340773  1
  N  N68  1  0.88378363  0.87248107  0.31197227  1
  N  N69  1  0.76909958  0.77528676  0.05646417  1
  N  N70  1  0.58474170  0.86106218  0.83762013  1
  N  N71  1  0.44099260  0.76190660  0.63892734  1
