# generated using pymatgen
data_Al11BN12
_symmetry_space_group_name_H-M   'P 1'
_cell_length_a   9.29892972
_cell_length_b   9.34266277
_cell_length_c   10.04249473
_cell_angle_alpha   90.11157945
_cell_angle_beta   90.00043546
_cell_angle_gamma   60.05181374
_symmetry_Int_Tables_number   1
_chemical_formula_structural   Al11BN12
_chemical_formula_sum   'Al33 B3 N36'
_cell_volume   755.96432747
_cell_formula_units_Z   3
loop_
 _symmetry_equiv_pos_site_id
 _symmetry_equiv_pos_as_xyz
  1  'x, y, z'
loop_
 _atom_site_type_symbol
 _atom_site_label
 _atom_site_symmetry_multiplicity
 _atom_site_fract_x
 _atom_site_fract_y
 _atom_site_fract_z
 _atom_site_occupancy
  Al  Al0  1  0.11420006  0.08810596  0.31693501  1
  Al  Al1  1  0.21865197  0.20325102  0.06863811  1
  Al  Al2  1  0.89593400  0.20538921  0.57057106  1
  Al  Al3  1  0.44200331  0.09501945  0.31870151  1
  Al  Al4  1  0.55528744  0.20887677  0.11780781  1
  Al  Al5  1  0.10780061  0.08929606  0.82689810  1
  Al  Al6  1  0.22719410  0.20102671  0.57155388  1
  Al  Al7  1  0.77943014  0.08683661  0.38740553  1
  Al  Al8  1  0.89411075  0.20348232  0.06715529  1
  Al  Al9  1  0.45004017  0.09847566  0.83323083  1
  Al  Al10  1  0.56301205  0.20493810  0.62425240  1
  Al  Al11  1  0.10975238  0.42803358  0.32199448  1
  Al  Al12  1  0.22191144  0.54167248  0.07121663  1
  Al  Al13  1  0.77914801  0.41645352  0.81963276  1
  Al  Al14  1  0.89363953  0.53151504  0.57653426  1
  Al  Al15  1  0.44242446  0.43216901  0.32444054  1
  Al  Al16  1  0.55088921  0.54241553  0.07131245  1
  Al  Al17  1  0.11249149  0.42188034  0.81933352  1
  Al  Al18  1  0.21812580  0.54435075  0.57562847  1
  Al  Al19  1  0.77935871  0.42759773  0.32011664  1
  Al  Al20  1  0.88984217  0.53569943  0.05491229  1
  Al  Al21  1  0.44735674  0.42961372  0.82601593  1
  Al  Al22  1  0.55481147  0.54230913  0.57334102  1
  Al  Al23  1  0.11866766  0.76041666  0.31576261  1
  Al  Al24  1  0.87775667  0.87930722  0.65495169  1
  Al  Al25  1  0.43721272  0.75912237  0.31789488  1
  Al  Al26  1  0.55317623  0.87014015  0.12640227  1
  Al  Al27  1  0.10880366  0.76187228  0.84152344  1
  Al  Al28  1  0.22170968  0.87111364  0.57857846  1
  Al  Al29  1  0.77731263  0.76454158  0.39005001  1
  Al  Al30  1  0.88927037  0.87738173  0.12744155  1
  Al  Al31  1  0.44736575  0.75828409  0.83827394  1
  Al  Al32  1  0.56870276  0.86493206  0.64749388  1
  B  B33  1  0.76784471  0.09943740  0.90436506  1
  B  B34  1  0.22319189  0.87003117  0.06671639  1
  B  B35  1  0.74863461  0.82222169  0.90890319  1
  N  N36  1  0.22339600  0.20224466  0.38011337  1
  N  N37  1  0.12170428  0.06999348  0.12424893  1
  N  N38  1  0.87832367  0.18819099  0.87550507  1
  N  N39  1  0.78257749  0.08683136  0.57800053  1
  N  N40  1  0.55904310  0.20448005  0.34012988  1
  N  N41  1  0.43732148  0.09912187  0.12222398  1
  N  N42  1  0.22599898  0.19856775  0.88103464  1
  N  N43  1  0.11415870  0.09227285  0.63628659  1
  N  N44  1  0.89430452  0.20553342  0.37620737  1
  N  N45  1  0.77369596  0.09263686  0.06556441  1
  N  N46  1  0.58094463  0.19858847  0.85450940  1
  N  N47  1  0.44493935  0.09471533  0.63566282  1
  N  N48  1  0.21903578  0.54335715  0.38336583  1
  N  N49  1  0.10742196  0.43121124  0.13164480  1
  N  N50  1  0.89917972  0.51206520  0.87376895  1
  N  N51  1  0.77667427  0.42473991  0.63004586  1
  N  N52  1  0.55498072  0.54151456  0.38252057  1
  N  N53  1  0.43983538  0.43610736  0.13272911  1
  N  N54  1  0.22289488  0.53427608  0.88372274  1
  N  N55  1  0.11657737  0.42347123  0.62988840  1
  N  N56  1  0.89203299  0.53254298  0.38322055  1
  N  N57  1  0.77666607  0.43012474  0.13008762  1
  N  N58  1  0.55860575  0.53682215  0.88481051  1
  N  N59  1  0.44188729  0.43361053  0.63300309  1
  N  N60  1  0.22164866  0.87121594  0.38846221  1
  N  N61  1  0.12741817  0.77222239  0.11953182  1
  N  N62  1  0.85624895  0.89253051  0.85099794  1
  N  N63  1  0.78012867  0.76518101  0.58049419  1
  N  N64  1  0.56328198  0.86341492  0.32243857  1
  N  N65  1  0.41574514  0.77180291  0.12108059  1
  N  N66  1  0.22323616  0.87183113  0.90492918  1
  N  N67  1  0.11135309  0.76276686  0.64783012  1
  N  N68  1  0.88538353  0.87135881  0.31787941  1
  N  N69  1  0.77234180  0.77497538  0.05584309  1
  N  N70  1  0.58424425  0.86402858  0.84746621  1
  N  N71  1  0.44255036  0.76050127  0.64360376  1
