# generated using pymatgen
data_Al11BN12
_symmetry_space_group_name_H-M   'P 1'
_cell_length_a   9.30870353
_cell_length_b   9.28915300
_cell_length_c   10.07207195
_cell_angle_alpha   89.93295412
_cell_angle_beta   90.01418333
_cell_angle_gamma   59.99147381
_symmetry_Int_Tables_number   1
_chemical_formula_structural   Al11BN12
_chemical_formula_sum   'Al33 B3 N36'
_cell_volume   754.18336513
_cell_formula_units_Z   3
loop_
 _symmetry_equiv_pos_site_id
 _symmetry_equiv_pos_as_xyz
  1  'x, y, z'
loop_
 _atom_site_type_symbol
 _atom_site_label
 _atom_site_symmetry_multiplicity
 _atom_site_fract_x
 _atom_site_fract_y
 _atom_site_fract_z
 _atom_site_occupancy
  Al  Al0  1  0.10366252  0.10370072  0.39003201  1
  Al  Al1  1  0.22771459  0.19206274  0.13637635  1
  Al  Al2  1  0.88853762  0.19736918  0.64660864  1
  Al  Al3  1  0.44580094  0.09175140  0.38826980  1
  Al  Al4  1  0.56020786  0.20056449  0.13405679  1
  Al  Al5  1  0.10988689  0.08978416  0.89496958  1
  Al  Al6  1  0.22396684  0.20021677  0.64049772  1
  Al  Al7  1  0.78004836  0.08975587  0.38541268  1
  Al  Al8  1  0.89504988  0.19160493  0.12761170  1
  Al  Al9  1  0.45770529  0.08874511  0.88916572  1
  Al  Al10  1  0.56399934  0.19742883  0.63782527  1
  Al  Al11  1  0.11253796  0.43307309  0.31705138  1
  Al  Al12  1  0.22771065  0.54086357  0.06732994  1
  Al  Al13  1  0.77610283  0.42792025  0.84283263  1
  Al  Al14  1  0.88129254  0.55048331  0.64332313  1
  Al  Al15  1  0.44137867  0.43258455  0.32247692  1
  Al  Al16  1  0.54736292  0.54454241  0.06794296  1
  Al  Al17  1  0.11189872  0.43374217  0.82929350  1
  Al  Al18  1  0.21820454  0.54265296  0.57184879  1
  Al  Al19  1  0.77083288  0.43127284  0.31551293  1
  Al  Al20  1  0.88634317  0.54681584  0.11985170  1
  Al  Al21  1  0.44957033  0.42721325  0.82048030  1
  Al  Al22  1  0.55690354  0.53979681  0.57262013  1
  Al  Al23  1  0.11532239  0.76568314  0.30965908  1
  Al  Al24  1  0.87909902  0.87718672  0.64914828  1
  Al  Al25  1  0.43315071  0.76506347  0.31488076  1
  Al  Al26  1  0.55451382  0.87481677  0.12869752  1
  Al  Al27  1  0.11030640  0.76203035  0.83374692  1
  Al  Al28  1  0.22244725  0.86701290  0.57372525  1
  Al  Al29  1  0.77768297  0.76320595  0.38367020  1
  Al  Al30  1  0.88763964  0.87620641  0.11648001  1
  Al  Al31  1  0.44816490  0.75793320  0.82821694  1
  Al  Al32  1  0.56306339  0.87253930  0.64248665  1
  B  B33  1  0.77294233  0.09032324  0.89377928  1
  B  B34  1  0.22854011  0.86322511  0.06078005  1
  B  B35  1  0.77232037  0.76999151  0.89466964  1
  N  N36  1  0.22495835  0.20045951  0.32884303  1
  N  N37  1  0.12275481  0.07192987  0.08346246  1
  N  N38  1  0.88315706  0.18076833  0.83951117  1
  N  N39  1  0.78119742  0.09031979  0.57354115  1
  N  N40  1  0.55929571  0.19883007  0.32743280  1
  N  N41  1  0.44534766  0.09593520  0.07494372  1
  N  N42  1  0.22789325  0.19474129  0.83290215  1
  N  N43  1  0.10443933  0.10189682  0.58184970  1
  N  N44  1  0.88865897  0.19934722  0.32062338  1
  N  N45  1  0.77369251  0.09664749  0.05388154  1
  N  N46  1  0.58482254  0.18857437  0.83304493  1
  N  N47  1  0.44568699  0.09292914  0.57922763  1
  N  N48  1  0.21843375  0.54512117  0.38081774  1
  N  N49  1  0.11715867  0.42841795  0.11987360  1
  N  N50  1  0.87560284  0.57173690  0.84237812  1
  N  N51  1  0.77373751  0.42881111  0.63759915  1
  N  N52  1  0.55396653  0.54265066  0.38111557  1
  N  N53  1  0.44313473  0.43319057  0.13202763  1
  N  N54  1  0.22949851  0.53492663  0.88198905  1
  N  N55  1  0.11098074  0.43190017  0.63199137  1
  N  N56  1  0.88312571  0.54734521  0.32135176  1
  N  N57  1  0.77515863  0.42741012  0.10968436  1
  N  N58  1  0.55381978  0.53844687  0.88333628  1
  N  N59  1  0.44202535  0.43063573  0.62888073  1
  N  N60  1  0.22121527  0.86912251  0.38502634  1
  N  N61  1  0.12802291  0.77258606  0.11594676  1
  N  N62  1  0.86466474  0.88393550  0.84532852  1
  N  N63  1  0.77815891  0.76440980  0.57279343  1
  N  N64  1  0.55779859  0.87288105  0.32119043  1
  N  N65  1  0.41661640  0.77361654  0.12083225  1
  N  N66  1  0.23275120  0.85773227  0.89928090  1
  N  N67  1  0.11163584  0.76216534  0.64201487  1
  N  N68  1  0.88280527  0.87444394  0.31154470  1
  N  N69  1  0.77383998  0.76580781  0.05443639  1
  N  N70  1  0.58429219  0.86099189  0.83668474  1
  N  N71  1  0.44061814  0.76227038  0.63695154  1
