# generated using pymatgen
data_Al11BN12
_symmetry_space_group_name_H-M   'P 1'
_cell_length_a   9.29471008
_cell_length_b   9.26952688
_cell_length_c   10.08369493
_cell_angle_alpha   90.00972744
_cell_angle_beta   90.04652947
_cell_angle_gamma   60.04620198
_symmetry_Int_Tables_number   1
_chemical_formula_structural   Al11BN12
_chemical_formula_sum   'Al33 B3 N36'
_cell_volume   752.74103078
_cell_formula_units_Z   3
loop_
 _symmetry_equiv_pos_site_id
 _symmetry_equiv_pos_as_xyz
  1  'x, y, z'
loop_
 _atom_site_type_symbol
 _atom_site_label
 _atom_site_symmetry_multiplicity
 _atom_site_fract_x
 _atom_site_fract_y
 _atom_site_fract_z
 _atom_site_occupancy
  Al  Al0  1  0.11836528  0.08578198  0.31317867  1
  Al  Al1  1  0.21715960  0.20655793  0.06855579  1
  Al  Al2  1  0.88469882  0.19669116  0.64744359  1
  Al  Al3  1  0.45248751  0.08715478  0.38995456  1
  Al  Al4  1  0.55998045  0.20126374  0.13743141  1
  Al  Al5  1  0.11405295  0.08763285  0.83426289  1
  Al  Al6  1  0.21662057  0.20442377  0.57324717  1
  Al  Al7  1  0.78339320  0.08980007  0.38717873  1
  Al  Al8  1  0.88967582  0.20004619  0.11637838  1
  Al  Al9  1  0.46079037  0.08927917  0.89087225  1
  Al  Al10  1  0.56410229  0.19560898  0.64081546  1
  Al  Al11  1  0.11087314  0.42641605  0.32035031  1
  Al  Al12  1  0.22502790  0.54220084  0.07074508  1
  Al  Al13  1  0.77337372  0.43639132  0.82736823  1
  Al  Al14  1  0.89194584  0.53020298  0.57087321  1
  Al  Al15  1  0.44229310  0.43131076  0.32435924  1
  Al  Al16  1  0.54783830  0.54580759  0.07032004  1
  Al  Al17  1  0.10722035  0.43431796  0.81870048  1
  Al  Al18  1  0.22010757  0.54205977  0.57379494  1
  Al  Al19  1  0.77603431  0.43078887  0.31475676  1
  Al  Al20  1  0.88912100  0.54305970  0.06226991  1
  Al  Al21  1  0.44749889  0.42865114  0.82357182  1
  Al  Al22  1  0.55551916  0.53946203  0.57327298  1
  Al  Al23  1  0.11684548  0.76118120  0.31353906  1
  Al  Al24  1  0.88010475  0.87282109  0.65213091  1
  Al  Al25  1  0.43629110  0.76002449  0.31784544  1
  Al  Al26  1  0.55174937  0.87714532  0.13229833  1
  Al  Al27  1  0.10933457  0.76383000  0.83880922  1
  Al  Al28  1  0.22066188  0.87103272  0.57664913  1
  Al  Al29  1  0.77750898  0.76488303  0.38678127  1
  Al  Al30  1  0.88720203  0.87936451  0.12189545  1
  Al  Al31  1  0.44522066  0.76003683  0.83240188  1
  Al  Al32  1  0.56572482  0.86836832  0.64649671  1
  B  B33  1  0.77004478  0.09564529  0.89620609  1
  B  B34  1  0.22599146  0.87076875  0.06658741  1
  B  B35  1  0.76883308  0.77982211  0.89989710  1
  N  N36  1  0.21809342  0.20386358  0.37941874  1
  N  N37  1  0.12935967  0.06729273  0.11891816  1
  N  N38  1  0.87495102  0.18886920  0.84525241  1
  N  N39  1  0.78235477  0.08774174  0.57548086  1
  N  N40  1  0.56115199  0.19748151  0.32933302  1
  N  N41  1  0.44725103  0.09684679  0.07883519  1
  N  N42  1  0.21818173  0.21031908  0.87839664  1
  N  N43  1  0.11601309  0.08926105  0.64117491  1
  N  N44  1  0.88718465  0.19911166  0.31781029  1
  N  N45  1  0.77168796  0.09881150  0.05489271  1
  N  N46  1  0.58379329  0.19037629  0.83486486  1
  N  N47  1  0.45127743  0.08782450  0.58280563  1
  N  N48  1  0.21952041  0.54174866  0.38262888  1
  N  N49  1  0.10851942  0.43197984  0.13092573  1
  N  N50  1  0.88148647  0.56065812  0.87364105  1
  N  N51  1  0.77586873  0.42907607  0.63594518  1
  N  N52  1  0.55637863  0.53972731  0.38289972  1
  N  N53  1  0.44220409  0.43405994  0.13350997  1
  N  N54  1  0.22549764  0.53559815  0.88398932  1
  N  N55  1  0.11221656  0.42662607  0.63076925  1
  N  N56  1  0.89181090  0.53061702  0.37970142  1
  N  N57  1  0.77336399  0.43925800  0.12254764  1
  N  N58  1  0.55481003  0.53917580  0.88515670  1
  N  N59  1  0.44291073  0.42925578  0.63175749  1
  N  N60  1  0.22063255  0.87140780  0.38776472  1
  N  N61  1  0.12721990  0.77374967  0.11910263  1
  N  N62  1  0.86335490  0.88415975  0.84747728  1
  N  N63  1  0.77828290  0.76416095  0.57641722  1
  N  N64  1  0.55965509  0.86934453  0.32271864  1
  N  N65  1  0.41626682  0.77367144  0.12335168  1
  N  N66  1  0.22626865  0.87031951  0.90527435  1
  N  N67  1  0.11306771  0.76045518  0.64507521  1
  N  N68  1  0.88437244  0.87213735  0.31496402  1
  N  N69  1  0.76914678  0.77642015  0.05949720  1
  N  N70  1  0.58390064  0.86115028  0.83980075  1
  N  N71  1  0.44105939  0.75968292  0.63991240  1
