# generated using pymatgen
data_Al11BN12
_symmetry_space_group_name_H-M   'P 1'
_cell_length_a   9.28240116
_cell_length_b   9.27132026
_cell_length_c   9.96043308
_cell_angle_alpha   89.69248690
_cell_angle_beta   89.69381110
_cell_angle_gamma   60.05745788
_symmetry_Int_Tables_number   1
_chemical_formula_structural   Al11BN12
_chemical_formula_sum   'Al33 B3 N36'
_cell_volume   742.76874239
_cell_formula_units_Z   3
loop_
 _symmetry_equiv_pos_site_id
 _symmetry_equiv_pos_as_xyz
  1  'x, y, z'
loop_
 _atom_site_type_symbol
 _atom_site_label
 _atom_site_symmetry_multiplicity
 _atom_site_fract_x
 _atom_site_fract_y
 _atom_site_fract_z
 _atom_site_occupancy
  Al  Al0  1  0.10774194  0.09761196  0.40148947  1
  Al  Al1  1  0.22420758  0.19749406  0.14682051  1
  Al  Al2  1  0.88560198  0.20323254  0.65232223  1
  Al  Al3  1  0.44501502  0.09289291  0.39702036  1
  Al  Al4  1  0.55835439  0.20276345  0.14373629  1
  Al  Al5  1  0.11090153  0.08710067  0.89243786  1
  Al  Al6  1  0.22078085  0.20742065  0.64944420  1
  Al  Al7  1  0.77990071  0.09131222  0.39319702  1
  Al  Al8  1  0.89179510  0.19717401  0.13925088  1
  Al  Al9  1  0.45453016  0.09010728  0.89744694  1
  Al  Al10  1  0.56066920  0.20319924  0.64917948  1
  Al  Al11  1  0.10970417  0.42977043  0.39460921  1
  Al  Al12  1  0.22858182  0.53531701  0.13906142  1
  Al  Al13  1  0.77747228  0.42852124  0.89673918  1
  Al  Al14  1  0.88674525  0.54525183  0.64897736  1
  Al  Al15  1  0.44427916  0.42774283  0.39570820  1
  Al  Al16  1  0.55049982  0.54231405  0.14724489  1
  Al  Al17  1  0.10708291  0.43282018  0.89837112  1
  Al  Al18  1  0.22390138  0.53410228  0.64707116  1
  Al  Al19  1  0.77913093  0.42643138  0.39578430  1
  Al  Al20  1  0.88673028  0.54111495  0.14165796  1
  Al  Al21  1  0.45389476  0.42092586  0.89794743  1
  Al  Al22  1  0.55764378  0.53799140  0.64842077  1
  Al  Al23  1  0.11399495  0.76905064  0.33035705  1
  Al  Al24  1  0.87529904  0.87859631  0.65388234  1
  Al  Al25  1  0.44757460  0.76037890  0.40148959  1
  Al  Al26  1  0.54986747  0.87347616  0.14177547  1
  Al  Al27  1  0.10737241  0.76550151  0.83859119  1
  Al  Al28  1  0.22221898  0.87310752  0.62210001  1
  Al  Al29  1  0.77864270  0.76307507  0.39246680  1
  Al  Al30  1  0.88731518  0.87606897  0.12258883  1
  Al  Al31  1  0.44665890  0.76115236  0.89277069  1
  Al  Al32  1  0.56183309  0.86937341  0.65252830  1
  B  B33  1  0.77069088  0.09361462  0.90254277  1
  B  B34  1  0.22361294  0.87039893  0.10336599  1
  B  B35  1  0.77050352  0.76975319  0.90317077  1
  N  N36  1  0.22179853  0.20507824  0.33719677  1
  N  N37  1  0.12688399  0.06274359  0.08858449  1
  N  N38  1  0.87784246  0.19055060  0.84607275  1
  N  N39  1  0.77823600  0.09351783  0.58289039  1
  N  N40  1  0.55700293  0.20431812  0.33478174  1
  N  N41  1  0.44417139  0.09511399  0.08628586  1
  N  N42  1  0.22222124  0.20598183  0.84120054  1
  N  N43  1  0.10402994  0.10531426  0.59286747  1
  N  N44  1  0.88908675  0.20413120  0.33080137  1
  N  N45  1  0.77419436  0.09740851  0.06377116  1
  N  N46  1  0.58176058  0.19226608  0.84312405  1
  N  N47  1  0.44559030  0.09373878  0.59155435  1
  N  N48  1  0.22362627  0.53683234  0.33234503  1
  N  N49  1  0.11083470  0.42547057  0.08788379  1
  N  N50  1  0.87799113  0.56516514  0.84293566  1
  N  N51  1  0.78045329  0.42633067  0.58995159  1
  N  N52  1  0.55598290  0.53964876  0.33705227  1
  N  N53  1  0.44927763  0.42454178  0.08656720  1
  N  N54  1  0.23068796  0.52987313  0.84299992  1
  N  N55  1  0.10955501  0.42889881  0.58680397  1
  N  N56  1  0.88744926  0.54105050  0.33310344  1
  N  N57  1  0.77764419  0.42692146  0.08656289  1
  N  N58  1  0.55767641  0.53801154  0.83877839  1
  N  N59  1  0.44585006  0.42645751  0.58780136  1
  N  N60  1  0.22165724  0.87173588  0.38724683  1
  N  N61  1  0.12972779  0.77611951  0.11610198  1
  N  N62  1  0.86240699  0.88562803  0.85447430  1
  N  N63  1  0.77720188  0.76382460  0.58220879  1
  N  N64  1  0.55632061  0.87117034  0.33218269  1
  N  N65  1  0.41580689  0.77480370  0.08852274  1
  N  N66  1  0.23076886  0.87358812  0.82907376  1
  N  N67  1  0.10192998  0.76214795  0.63630320  1
  N  N68  1  0.88253104  0.87549586  0.31912741  1
  N  N69  1  0.77398039  0.76104828  0.06539093  1
  N  N70  1  0.58117378  0.85968842  0.84700042  1
  N  N71  1  0.45492379  0.75802968  0.59269007  1
