# generated using pymatgen
data_Al11BN12
_symmetry_space_group_name_H-M   'P 1'
_cell_length_a   9.26831300
_cell_length_b   9.28782588
_cell_length_c   10.08915992
_cell_angle_alpha   89.98954489
_cell_angle_beta   89.68980630
_cell_angle_gamma   60.15101698
_symmetry_Int_Tables_number   1
_chemical_formula_structural   Al11BN12
_chemical_formula_sum   'Al33 B3 N36'
_cell_volume   753.27071786
_cell_formula_units_Z   3
loop_
 _symmetry_equiv_pos_site_id
 _symmetry_equiv_pos_as_xyz
  1  'x, y, z'
loop_
 _atom_site_type_symbol
 _atom_site_label
 _atom_site_symmetry_multiplicity
 _atom_site_fract_x
 _atom_site_fract_y
 _atom_site_fract_z
 _atom_site_occupancy
  Al  Al0  1  0.11426225  0.08880789  0.31791259  1
  Al  Al1  1  0.22319004  0.20139980  0.07057159  1
  Al  Al2  1  0.89335065  0.20531446  0.57393023  1
  Al  Al3  1  0.44393149  0.09462849  0.32054941  1
  Al  Al4  1  0.54930144  0.20948502  0.07111144  1
  Al  Al5  1  0.11047872  0.08838289  0.82820635  1
  Al  Al6  1  0.22205039  0.20424676  0.57175699  1
  Al  Al7  1  0.78295955  0.08514964  0.38973318  1
  Al  Al8  1  0.89656658  0.20183914  0.06854200  1
  Al  Al9  1  0.45559378  0.09200162  0.82044971  1
  Al  Al10  1  0.54884435  0.21031632  0.57210610  1
  Al  Al11  1  0.11056400  0.42761922  0.32229317  1
  Al  Al12  1  0.22542574  0.54052978  0.07168085  1
  Al  Al13  1  0.77940063  0.41953516  0.82092805  1
  Al  Al14  1  0.89141980  0.53374007  0.57797683  1
  Al  Al15  1  0.44430590  0.42830885  0.32275912  1
  Al  Al16  1  0.55259234  0.54125112  0.07123179  1
  Al  Al17  1  0.11267585  0.42411478  0.82109034  1
  Al  Al18  1  0.21626231  0.54622454  0.57618350  1
  Al  Al19  1  0.77919444  0.42735305  0.31965067  1
  Al  Al20  1  0.89331177  0.53370463  0.05934124  1
  Al  Al21  1  0.45098987  0.42428105  0.82141005  1
  Al  Al22  1  0.55456559  0.54075969  0.57191388  1
  Al  Al23  1  0.12095097  0.75970730  0.31618832  1
  Al  Al24  1  0.87057286  0.88172340  0.65998129  1
  Al  Al25  1  0.43962072  0.76313330  0.31904457  1
  Al  Al26  1  0.54397942  0.87688479  0.07323172  1
  Al  Al27  1  0.11170192  0.76137701  0.84144134  1
  Al  Al28  1  0.21729580  0.87173130  0.57807177  1
  Al  Al29  1  0.78343551  0.76268716  0.39184343  1
  Al  Al30  1  0.89179894  0.87592393  0.13096482  1
  Al  Al31  1  0.45259282  0.75942484  0.82830447  1
  Al  Al32  1  0.54807375  0.87496862  0.57293016  1
  B  B33  1  0.77379475  0.09279885  0.90874559  1
  B  B34  1  0.22533053  0.87011089  0.06845170  1
  B  B35  1  0.75856324  0.80858943  0.91435580  1
  N  N36  1  0.22167039  0.20390136  0.38094587  1
  N  N37  1  0.12461395  0.06879385  0.12515624  1
  N  N38  1  0.87981427  0.18851556  0.87738191  1
  N  N39  1  0.78030202  0.08740377  0.58132868  1
  N  N40  1  0.54966402  0.20857221  0.37986098  1
  N  N41  1  0.44347179  0.09553792  0.13253043  1
  N  N42  1  0.22966460  0.19850169  0.88211272  1
  N  N43  1  0.11255736  0.09281763  0.63804696  1
  N  N44  1  0.89397193  0.20618568  0.37781213  1
  N  N45  1  0.77896919  0.08943428  0.07033620  1
  N  N46  1  0.57375023  0.19876648  0.87997851  1
  N  N47  1  0.44392821  0.09493149  0.63297574  1
  N  N48  1  0.21938164  0.54325177  0.38384238  1
  N  N49  1  0.11132705  0.42856832  0.13249950  1
  N  N50  1  0.89481347  0.52469263  0.87585645  1
  N  N51  1  0.77567950  0.42577732  0.63208097  1
  N  N52  1  0.55486617  0.54127561  0.38093785  1
  N  N53  1  0.44541456  0.42752111  0.13414904  1
  N  N54  1  0.22616927  0.53338533  0.88479707  1
  N  N55  1  0.11408838  0.42533210  0.63201916  1
  N  N56  1  0.89195837  0.53244083  0.38294618  1
  N  N57  1  0.77889094  0.42791928  0.13018823  1
  N  N58  1  0.55772955  0.53773237  0.88368599  1
  N  N59  1  0.44182776  0.43071673  0.63250682  1
  N  N60  1  0.22070215  0.87192737  0.38890206  1
  N  N61  1  0.13161190  0.77071502  0.12135089  1
  N  N62  1  0.85648181  0.89163248  0.85471914  1
  N  N63  1  0.77936418  0.76504439  0.58351020  1
  N  N64  1  0.54973306  0.87373388  0.37802743  1
  N  N65  1  0.42156911  0.77228333  0.12597643  1
  N  N66  1  0.22832143  0.87018564  0.90568619  1
  N  N67  1  0.10802557  0.76393146  0.64976052  1
  N  N68  1  0.88612988  0.87206481  0.31852371  1
  N  N69  1  0.78120129  0.76874121  0.06499219  1
  N  N70  1  0.57462685  0.86939311  0.88179083  1
  N  N71  1  0.44150270  0.76241259  0.63856625  1
