# generated using pymatgen
data_Al11BN12
_symmetry_space_group_name_H-M   'P 1'
_cell_length_a   9.29940431
_cell_length_b   9.27296116
_cell_length_c   10.06894063
_cell_angle_alpha   90.06220872
_cell_angle_beta   90.10630115
_cell_angle_gamma   60.02707069
_symmetry_Int_Tables_number   1
_chemical_formula_structural   Al11BN12
_chemical_formula_sum   'Al33 B3 N36'
_cell_volume   752.15202867
_cell_formula_units_Z   3
loop_
 _symmetry_equiv_pos_site_id
 _symmetry_equiv_pos_as_xyz
  1  'x, y, z'
loop_
 _atom_site_type_symbol
 _atom_site_label
 _atom_site_symmetry_multiplicity
 _atom_site_fract_x
 _atom_site_fract_y
 _atom_site_fract_z
 _atom_site_occupancy
  Al  Al0  1  0.11557568  0.08718552  0.31286590  1
  Al  Al1  1  0.21743879  0.20656603  0.06907326  1
  Al  Al2  1  0.88548974  0.19764891  0.64352484  1
  Al  Al3  1  0.45234498  0.08723101  0.38978556  1
  Al  Al4  1  0.55984870  0.20123264  0.13836870  1
  Al  Al5  1  0.11512395  0.08757674  0.83358319  1
  Al  Al6  1  0.21659075  0.20439171  0.57259051  1
  Al  Al7  1  0.78353886  0.09006066  0.38802681  1
  Al  Al8  1  0.89084350  0.20100898  0.09891217  1
  Al  Al9  1  0.46056720  0.08931493  0.89105663  1
  Al  Al10  1  0.56374021  0.19552383  0.64109540  1
  Al  Al11  1  0.11084039  0.42640776  0.32045914  1
  Al  Al12  1  0.22506727  0.54220341  0.07091601  1
  Al  Al13  1  0.77330004  0.43727842  0.82725092  1
  Al  Al14  1  0.89186759  0.53023559  0.57026152  1
  Al  Al15  1  0.44248768  0.43142397  0.32467962  1
  Al  Al16  1  0.54779684  0.54580813  0.07065010  1
  Al  Al17  1  0.10719930  0.43447561  0.81875360  1
  Al  Al18  1  0.22006198  0.54194660  0.57387158  1
  Al  Al19  1  0.77747150  0.42810866  0.31450947  1
  Al  Al20  1  0.88919829  0.54309921  0.06283522  1
  Al  Al21  1  0.44763563  0.42866919  0.82385140  1
  Al  Al22  1  0.55528517  0.53952840  0.57287663  1
  Al  Al23  1  0.11699997  0.76139034  0.31389654  1
  Al  Al24  1  0.88001875  0.87251998  0.65242808  1
  Al  Al25  1  0.43628461  0.76030142  0.31799465  1
  Al  Al26  1  0.55166099  0.87719192  0.13244527  1
  Al  Al27  1  0.10948978  0.76391077  0.83903876  1
  Al  Al28  1  0.22068722  0.87071919  0.57624292  1
  Al  Al29  1  0.77750280  0.76487585  0.38666031  1
  Al  Al30  1  0.88720742  0.87907073  0.12312825  1
  Al  Al31  1  0.44526236  0.75996658  0.83253849  1
  Al  Al32  1  0.56561412  0.86827682  0.64643757  1
  B  B33  1  0.76875471  0.09290851  0.89682542  1
  B  B34  1  0.22588234  0.87076345  0.06644009  1
  B  B35  1  0.76880128  0.77915504  0.90031519  1
  N  N36  1  0.21835622  0.20365240  0.37873284  1
  N  N37  1  0.12827445  0.06786534  0.11827756  1
  N  N38  1  0.87678592  0.19101076  0.85181784  1
  N  N39  1  0.78189085  0.08733437  0.57733251  1
  N  N40  1  0.56108734  0.19759308  0.33002594  1
  N  N41  1  0.44714723  0.09686107  0.07922776  1
  N  N42  1  0.21840340  0.21052545  0.87844427  1
  N  N43  1  0.11611558  0.08906591  0.64123395  1
  N  N44  1  0.88798699  0.19993272  0.32624724  1
  N  N45  1  0.77017807  0.09707923  0.05515593  1
  N  N46  1  0.58385818  0.19013390  0.83512453  1
  N  N47  1  0.45098487  0.08775843  0.58306059  1
  N  N48  1  0.21960638  0.54179135  0.38262487  1
  N  N49  1  0.10865729  0.43206855  0.13079859  1
  N  N50  1  0.88137145  0.56141018  0.87374189  1
  N  N51  1  0.77563680  0.42938865  0.63624386  1
  N  N52  1  0.55663466  0.53991379  0.38242346  1
  N  N53  1  0.44232156  0.43394072  0.13347346  1
  N  N54  1  0.22554379  0.53568018  0.88391719  1
  N  N55  1  0.11204774  0.42652349  0.63059320  1
  N  N56  1  0.89150963  0.53098456  0.37894523  1
  N  N57  1  0.77425055  0.43763493  0.12173729  1
  N  N58  1  0.55491157  0.53923099  0.88520281  1
  N  N59  1  0.44299057  0.42915882  0.63184289  1
  N  N60  1  0.22078756  0.87168977  0.38740970  1
  N  N61  1  0.12711896  0.77382416  0.11899231  1
  N  N62  1  0.86306193  0.88486973  0.84783310  1
  N  N63  1  0.77817670  0.76396591  0.57664537  1
  N  N64  1  0.55969590  0.86943580  0.32285324  1
  N  N65  1  0.41613943  0.77389530  0.12322374  1
  N  N66  1  0.22632527  0.87043058  0.90502818  1
  N  N67  1  0.11292512  0.76047459  0.64514304  1
  N  N68  1  0.88456698  0.87210302  0.31569570  1
  N  N69  1  0.76913644  0.77614740  0.06005066  1
  N  N70  1  0.58387868  0.86107636  0.84007441  1
  N  N71  1  0.44096404  0.75964520  0.63988694  1
