# generated using pymatgen
data_Al11BN12
_symmetry_space_group_name_H-M   'P 1'
_cell_length_a   9.26888156
_cell_length_b   9.29614752
_cell_length_c   10.08703239
_cell_angle_alpha   89.98546592
_cell_angle_beta   89.69344690
_cell_angle_gamma   60.17531204
_symmetry_Int_Tables_number   1
_chemical_formula_structural   Al11BN12
_chemical_formula_sum   'Al33 B3 N36'
_cell_volume   754.01675856
_cell_formula_units_Z   3
loop_
 _symmetry_equiv_pos_site_id
 _symmetry_equiv_pos_as_xyz
  1  'x, y, z'
loop_
 _atom_site_type_symbol
 _atom_site_label
 _atom_site_symmetry_multiplicity
 _atom_site_fract_x
 _atom_site_fract_y
 _atom_site_fract_z
 _atom_site_occupancy
  Al  Al0  1  0.11424904  0.08880992  0.31284069  1
  Al  Al1  1  0.22327225  0.20151337  0.06558607  1
  Al  Al2  1  0.89338682  0.20518646  0.56860272  1
  Al  Al3  1  0.44393378  0.09470835  0.31576806  1
  Al  Al4  1  0.54912074  0.20980769  0.06641446  1
  Al  Al5  1  0.11053786  0.08840894  0.82349130  1
  Al  Al6  1  0.22207444  0.20417414  0.56663604  1
  Al  Al7  1  0.78279070  0.08524208  0.38445264  1
  Al  Al8  1  0.89632949  0.20239274  0.06377112  1
  Al  Al9  1  0.45565314  0.09266991  0.81509445  1
  Al  Al10  1  0.54877775  0.21068866  0.56698401  1
  Al  Al11  1  0.11035438  0.42769441  0.31745487  1
  Al  Al12  1  0.22513177  0.54058175  0.06682588  1
  Al  Al13  1  0.77957512  0.41731244  0.81570161  1
  Al  Al14  1  0.89138858  0.53350419  0.57389516  1
  Al  Al15  1  0.44409160  0.42857248  0.31783662  1
  Al  Al16  1  0.55259868  0.54125919  0.06636515  1
  Al  Al17  1  0.11393656  0.42196063  0.81604177  1
  Al  Al18  1  0.21605285  0.54630755  0.57135877  1
  Al  Al19  1  0.77909058  0.42755255  0.31491638  1
  Al  Al20  1  0.89347451  0.53310743  0.05303137  1
  Al  Al21  1  0.45052106  0.42478702  0.81661658  1
  Al  Al22  1  0.55438612  0.54090579  0.56704740  1
  Al  Al23  1  0.12097382  0.75969380  0.31140002  1
  Al  Al24  1  0.87032007  0.88208362  0.65489178  1
  Al  Al25  1  0.43959751  0.76317722  0.31429224  1
  Al  Al26  1  0.54365539  0.87700830  0.06883412  1
  Al  Al27  1  0.11175774  0.76122016  0.83665851  1
  Al  Al28  1  0.21718881  0.87188781  0.57337064  1
  Al  Al29  1  0.78369639  0.76233794  0.38732336  1
  Al  Al30  1  0.89201183  0.87624049  0.12623400  1
  Al  Al31  1  0.45297842  0.75941173  0.82353739  1
  Al  Al32  1  0.54811810  0.87506735  0.56802502  1
  B  B33  1  0.77379540  0.09378639  0.90390266  1
  B  B34  1  0.22527299  0.87016991  0.06340112  1
  B  B35  1  0.75537519  0.81576547  0.91067970  1
  N  N36  1  0.22161661  0.20389414  0.37587062  1
  N  N37  1  0.12459710  0.06888365  0.12003104  1
  N  N38  1  0.87960298  0.18737320  0.87245660  1
  N  N39  1  0.78022102  0.08740084  0.57609361  1
  N  N40  1  0.54951616  0.20890856  0.37475322  1
  N  N41  1  0.44361830  0.09548168  0.12778060  1
  N  N42  1  0.23139660  0.19688110  0.87718903  1
  N  N43  1  0.11248211  0.09287837  0.63315547  1
  N  N44  1  0.89391238  0.20616637  0.37254944  1
  N  N45  1  0.77876680  0.08979474  0.06590642  1
  N  N46  1  0.57351875  0.19946298  0.87519579  1
  N  N47  1  0.44412511  0.09499706  0.62766417  1
  N  N48  1  0.21920910  0.54343909  0.37895591  1
  N  N49  1  0.11115811  0.42868567  0.12767199  1
  N  N50  1  0.89844839  0.51604880  0.87111178  1
  N  N51  1  0.77540967  0.42528266  0.62680519  1
  N  N52  1  0.55460366  0.54154142  0.37607423  1
  N  N53  1  0.44514567  0.42777700  0.12919992  1
  N  N54  1  0.22567122  0.53338364  0.87985692  1
  N  N55  1  0.11450832  0.42491952  0.62690889  1
  N  N56  1  0.89193507  0.53239466  0.37852479  1
  N  N57  1  0.77853925  0.42836550  0.12557162  1
  N  N58  1  0.55775120  0.53782313  0.87871566  1
  N  N59  1  0.44161781  0.43090355  0.62761159  1
  N  N60  1  0.22061479  0.87206712  0.38405285  1
  N  N61  1  0.13159686  0.77082093  0.11638575  1
  N  N62  1  0.85549371  0.89338413  0.84978195  1
  N  N63  1  0.77939615  0.76483032  0.57905541  1
  N  N64  1  0.54990901  0.87374496  0.37305888  1
  N  N65  1  0.42156172  0.77228110  0.12105469  1
  N  N66  1  0.22848672  0.87000245  0.90072841  1
  N  N67  1  0.10774975  0.76407200  0.64502404  1
  N  N68  1  0.88607841  0.87193925  0.31372440  1
  N  N69  1  0.78154536  0.76913398  0.05885964  1
  N  N70  1  0.57459066  0.87068554  0.87694764  1
  N  N71  1  0.44156586  0.76256668  0.63380065  1
