# generated using pymatgen
data_Al11BN12
_symmetry_space_group_name_H-M   'P 1'
_cell_length_a   9.31015565
_cell_length_b   9.28976894
_cell_length_c   10.06313346
_cell_angle_alpha   89.87705724
_cell_angle_beta   89.90753304
_cell_angle_gamma   60.00237236
_symmetry_Int_Tables_number   1
_chemical_formula_structural   Al11BN12
_chemical_formula_sum   'Al33 B3 N36'
_cell_volume   753.76334588
_cell_formula_units_Z   3
loop_
 _symmetry_equiv_pos_site_id
 _symmetry_equiv_pos_as_xyz
  1  'x, y, z'
loop_
 _atom_site_type_symbol
 _atom_site_label
 _atom_site_symmetry_multiplicity
 _atom_site_fract_x
 _atom_site_fract_y
 _atom_site_fract_z
 _atom_site_occupancy
  Al  Al0  1  0.11847232  0.08486764  0.31204344  1
  Al  Al1  1  0.22014054  0.20546063  0.08816062  1
  Al  Al2  1  0.88510540  0.19542232  0.64710857  1
  Al  Al3  1  0.44569345  0.09042235  0.38940137  1
  Al  Al4  1  0.55935552  0.20144397  0.13754735  1
  Al  Al5  1  0.11019214  0.08644852  0.84189883  1
  Al  Al6  1  0.22713348  0.20005371  0.62578221  1
  Al  Al7  1  0.78268268  0.08893399  0.38592757  1
  Al  Al8  1  0.88709594  0.20084968  0.12013784  1
  Al  Al9  1  0.46110840  0.08934007  0.89042660  1
  Al  Al10  1  0.56625473  0.19557362  0.63980202  1
  Al  Al11  1  0.11102012  0.42701643  0.31757864  1
  Al  Al12  1  0.22488230  0.54405020  0.06989730  1
  Al  Al13  1  0.77268782  0.43622303  0.82627019  1
  Al  Al14  1  0.89431120  0.52783003  0.56958002  1
  Al  Al15  1  0.44222008  0.43068213  0.32435297  1
  Al  Al16  1  0.54725474  0.54632934  0.07039606  1
  Al  Al17  1  0.10446034  0.44016577  0.82294496  1
  Al  Al18  1  0.22074970  0.54186845  0.57252275  1
  Al  Al19  1  0.77599706  0.43116891  0.31551799  1
  Al  Al20  1  0.88632814  0.54480057  0.06142418  1
  Al  Al21  1  0.44770577  0.42887956  0.82286595  1
  Al  Al22  1  0.55623165  0.53917283  0.57263361  1
  Al  Al23  1  0.11633574  0.76135035  0.31291853  1
  Al  Al24  1  0.88120762  0.87163594  0.65096280  1
  Al  Al25  1  0.43620235  0.76038363  0.31793717  1
  Al  Al26  1  0.55144044  0.87750157  0.13277037  1
  Al  Al27  1  0.10955181  0.76363654  0.83696451  1
  Al  Al28  1  0.22138150  0.87084810  0.57589909  1
  Al  Al29  1  0.77750999  0.76462313  0.38580526  1
  Al  Al30  1  0.88692915  0.87965707  0.12005289  1
  Al  Al31  1  0.44555838  0.76014753  0.83178396  1
  Al  Al32  1  0.56847754  0.86593955  0.64546165  1
  B  B33  1  0.76842877  0.09939613  0.89609565  1
  B  B34  1  0.22479718  0.86996957  0.06519086  1
  B  B35  1  0.76757007  0.78168695  0.89914477  1
  N  N36  1  0.22457174  0.20134801  0.34660606  1
  N  N37  1  0.12537496  0.06710619  0.11284825  1
  N  N38  1  0.87212577  0.18933788  0.84386040  1
  N  N39  1  0.78352662  0.08650012  0.57441167  1
  N  N40  1  0.56079487  0.19697881  0.32991275  1
  N  N41  1  0.44792720  0.09667639  0.07649595  1
  N  N42  1  0.22325064  0.20753432  0.86244863  1
  N  N43  1  0.11517284  0.08571372  0.64424963  1
  N  N44  1  0.88673696  0.19872389  0.31733156  1
  N  N45  1  0.77080503  0.10012891  0.05474336  1
  N  N46  1  0.58383542  0.19090759  0.83422344  1
  N  N47  1  0.45123113  0.08799248  0.58371991  1
  N  N48  1  0.21904492  0.54201652  0.38162774  1
  N  N49  1  0.10529566  0.43788245  0.12581801  1
  N  N50  1  0.87935138  0.56040471  0.87313962  1
  N  N51  1  0.77700052  0.42772063  0.63460892  1
  N  N52  1  0.55594360  0.53962310  0.38241005  1
  N  N53  1  0.44173925  0.43407818  0.13301516  1
  N  N54  1  0.22635936  0.53689615  0.88345266  1
  N  N55  1  0.11189413  0.42964094  0.63317521  1
  N  N56  1  0.89271300  0.53005883  0.37891603  1
  N  N57  1  0.77226407  0.44006035  0.12317477  1
  N  N58  1  0.55460682  0.53934259  0.88453081  1
  N  N59  1  0.44354275  0.42882514  0.63068492  1
  N  N60  1  0.22005974  0.87128255  0.38702657  1
  N  N61  1  0.12690667  0.77425058  0.11845996  1
  N  N62  1  0.86387984  0.88263181  0.84657308  1
  N  N63  1  0.78026711  0.76249658  0.57564529  1
  N  N64  1  0.55954404  0.86941183  0.32364732  1
  N  N65  1  0.41555173  0.77452688  0.12299977  1
  N  N66  1  0.22708981  0.86756196  0.90455379  1
  N  N67  1  0.11395227  0.75985150  0.64352493  1
  N  N68  1  0.88411195  0.87193133  0.31358655  1
  N  N69  1  0.76778655  0.77783467  0.05862599  1
  N  N70  1  0.58398591  0.86154636  0.83868572  1
  N  N71  1  0.44213167  0.75950368  0.63884420  1
