# generated using pymatgen
data_Al11BN12
_symmetry_space_group_name_H-M   'P 1'
_cell_length_a   9.29033221
_cell_length_b   9.27099557
_cell_length_c   10.01054301
_cell_angle_alpha   89.70067167
_cell_angle_beta   89.61453841
_cell_angle_gamma   60.00037244
_symmetry_Int_Tables_number   1
_chemical_formula_structural   Al11BN12
_chemical_formula_sum   'Al33 B3 N36'
_cell_volume   746.68372414
_cell_formula_units_Z   3
loop_
 _symmetry_equiv_pos_site_id
 _symmetry_equiv_pos_as_xyz
  1  'x, y, z'
loop_
 _atom_site_type_symbol
 _atom_site_label
 _atom_site_symmetry_multiplicity
 _atom_site_fract_x
 _atom_site_fract_y
 _atom_site_fract_z
 _atom_site_occupancy
  Al  Al0  1  0.10683020  0.09837032  0.40092498  1
  Al  Al1  1  0.22449455  0.19837121  0.14716123  1
  Al  Al2  1  0.88516627  0.20326054  0.65277218  1
  Al  Al3  1  0.44555758  0.09265538  0.39791639  1
  Al  Al4  1  0.55854174  0.20263574  0.14433744  1
  Al  Al5  1  0.10965464  0.08747832  0.89354877  1
  Al  Al6  1  0.22064430  0.20742418  0.65026786  1
  Al  Al7  1  0.78206676  0.08869543  0.39376727  1
  Al  Al8  1  0.89160016  0.19771239  0.13957456  1
  Al  Al9  1  0.45437028  0.08982945  0.89815287  1
  Al  Al10  1  0.55987214  0.20348557  0.64994628  1
  Al  Al11  1  0.10599795  0.42607900  0.39228778  1
  Al  Al12  1  0.22439909  0.54571030  0.08038781  1
  Al  Al13  1  0.77752399  0.42827882  0.89757005  1
  Al  Al14  1  0.88567760  0.54479401  0.64990367  1
  Al  Al15  1  0.45183277  0.42321348  0.39455575  1
  Al  Al16  1  0.55107980  0.54271917  0.14846119  1
  Al  Al17  1  0.10384943  0.43136423  0.89693607  1
  Al  Al18  1  0.21557807  0.54713636  0.57840635  1
  Al  Al19  1  0.77881964  0.42643830  0.39712813  1
  Al  Al20  1  0.88594883  0.54147181  0.14211775  1
  Al  Al21  1  0.45925386  0.41853076  0.89746124  1
  Al  Al22  1  0.55650430  0.53831529  0.64969106  1
  Al  Al23  1  0.11938383  0.76451535  0.32148248  1
  Al  Al24  1  0.87421153  0.87857385  0.65586142  1
  Al  Al25  1  0.44900540  0.76006113  0.40145279  1
  Al  Al26  1  0.55061665  0.87382733  0.14230638  1
  Al  Al27  1  0.11132913  0.76045826  0.83250197  1
  Al  Al28  1  0.21963249  0.87202268  0.60519039  1
  Al  Al29  1  0.77969513  0.76299161  0.39294268  1
  Al  Al30  1  0.88650703  0.87675080  0.12415732  1
  Al  Al31  1  0.44756534  0.76065364  0.89420961  1
  Al  Al32  1  0.56105524  0.86953560  0.65297128  1
  B  B33  1  0.77190878  0.09173396  0.90250950  1
  B  B34  1  0.22490515  0.87194172  0.09604745  1
  B  B35  1  0.77065713  0.77071288  0.90293516  1
  N  N36  1  0.22310736  0.20291378  0.33656037  1
  N  N37  1  0.12647150  0.06485500  0.08937635  1
  N  N38  1  0.87731267  0.19080240  0.84584066  1
  N  N39  1  0.77876623  0.09237508  0.58311023  1
  N  N40  1  0.55906203  0.20176996  0.33447844  1
  N  N41  1  0.44441358  0.09534118  0.08624234  1
  N  N42  1  0.22248518  0.20555938  0.84092335  1
  N  N43  1  0.10354636  0.10534805  0.59279190  1
  N  N44  1  0.88870642  0.20414203  0.33092424  1
  N  N45  1  0.77501859  0.09684172  0.06346046  1
  N  N46  1  0.58188522  0.19120402  0.84310979  1
  N  N47  1  0.44535390  0.09380913  0.59136549  1
  N  N48  1  0.21980164  0.54408107  0.37782195  1
  N  N49  1  0.10865256  0.42443583  0.09061947  1
  N  N50  1  0.87695504  0.56511055  0.84259921  1
  N  N51  1  0.77917230  0.42652721  0.59010942  1
  N  N52  1  0.55686619  0.54005472  0.33693810  1
  N  N53  1  0.45360223  0.42307042  0.08985658  1
  N  N54  1  0.22579277  0.53946165  0.88563564  1
  N  N55  1  0.10539255  0.42644954  0.58740561  1
  N  N56  1  0.88544068  0.54136815  0.33249595  1
  N  N57  1  0.77752321  0.42721996  0.08651702  1
  N  N58  1  0.55876538  0.53804602  0.83866655  1
  N  N59  1  0.44903673  0.42477812  0.58943706  1
  N  N60  1  0.21993317  0.86986109  0.39514676  1
  N  N61  1  0.13161207  0.77724963  0.12354230  1
  N  N62  1  0.86280304  0.88503792  0.85406046  1
  N  N63  1  0.77742524  0.76357347  0.58236732  1
  N  N64  1  0.55687737  0.87118370  0.33237762  1
  N  N65  1  0.41801352  0.77466821  0.08950716  1
  N  N66  1  0.22906852  0.87109996  0.84315928  1
  N  N67  1  0.10376185  0.75972553  0.64183981  1
  N  N68  1  0.88462808  0.87366111  0.31872871  1
  N  N69  1  0.77455399  0.76141651  0.06499350  1
  N  N70  1  0.58113712  0.85980941  0.84680807  1
  N  N71  1  0.45418514  0.75829873  0.59290795  1
