# generated using pymatgen
data_Al11BN12
_symmetry_space_group_name_H-M   'P 1'
_cell_length_a   9.30964663
_cell_length_b   9.28902089
_cell_length_c   10.06040385
_cell_angle_alpha   89.93377119
_cell_angle_beta   89.99035175
_cell_angle_gamma   60.00821222
_symmetry_Int_Tables_number   1
_chemical_formula_structural   Al11BN12
_chemical_formula_sum   'Al33 B3 N36'
_cell_volume   753.50263710
_cell_formula_units_Z   3
loop_
 _symmetry_equiv_pos_site_id
 _symmetry_equiv_pos_as_xyz
  1  'x, y, z'
loop_
 _atom_site_type_symbol
 _atom_site_label
 _atom_site_symmetry_multiplicity
 _atom_site_fract_x
 _atom_site_fract_y
 _atom_site_fract_z
 _atom_site_occupancy
  Al  Al0  1  0.10385972  0.10352561  0.39028353  1
  Al  Al1  1  0.22771751  0.19201084  0.13611881  1
  Al  Al2  1  0.88709504  0.20020963  0.64705691  1
  Al  Al3  1  0.44568765  0.09184915  0.38837864  1
  Al  Al4  1  0.56043265  0.20039021  0.13389280  1
  Al  Al5  1  0.11030833  0.08933671  0.89462155  1
  Al  Al6  1  0.22372731  0.20029100  0.64034933  1
  Al  Al7  1  0.77983272  0.08965659  0.38556691  1
  Al  Al8  1  0.89494285  0.19266340  0.12720560  1
  Al  Al9  1  0.45773668  0.08875857  0.88898082  1
  Al  Al10  1  0.56425805  0.19733469  0.63761740  1
  Al  Al11  1  0.11265500  0.43291874  0.31677779  1
  Al  Al12  1  0.22779862  0.54073704  0.06716411  1
  Al  Al13  1  0.77981253  0.42584861  0.86368545  1
  Al  Al14  1  0.87983429  0.54945393  0.64436473  1
  Al  Al15  1  0.44083574  0.43252896  0.32222516  1
  Al  Al16  1  0.54642500  0.54515945  0.06778395  1
  Al  Al17  1  0.11195078  0.43380463  0.82868322  1
  Al  Al18  1  0.21770164  0.54257315  0.57198457  1
  Al  Al19  1  0.77289931  0.43026479  0.33158263  1
  Al  Al20  1  0.88629973  0.54613585  0.12018842  1
  Al  Al21  1  0.44970909  0.42715765  0.82000858  1
  Al  Al22  1  0.55561557  0.54048573  0.57325592  1
  Al  Al23  1  0.11525232  0.76563461  0.30956143  1
  Al  Al24  1  0.87920686  0.87714264  0.64897196  1
  Al  Al25  1  0.43254471  0.76579576  0.31452294  1
  Al  Al26  1  0.55474186  0.87482261  0.12848659  1
  Al  Al27  1  0.11041804  0.76187441  0.83368378  1
  Al  Al28  1  0.22199176  0.86736978  0.57390280  1
  Al  Al29  1  0.77738537  0.76365569  0.38377661  1
  Al  Al30  1  0.88783499  0.87609933  0.11604194  1
  Al  Al31  1  0.44832393  0.75781622  0.82768818  1
  Al  Al32  1  0.56332104  0.87239723  0.64221982  1
  B  B33  1  0.77283516  0.09030892  0.89375583  1
  B  B34  1  0.22841237  0.86341379  0.06060288  1
  B  B35  1  0.77224203  0.77000953  0.89460973  1
  N  N36  1  0.22476273  0.20053621  0.32893134  1
  N  N37  1  0.12298569  0.07144005  0.08361976  1
  N  N38  1  0.88319512  0.18144947  0.83942886  1
  N  N39  1  0.78154991  0.09030724  0.57361847  1
  N  N40  1  0.55927431  0.19889876  0.32745432  1
  N  N41  1  0.44542621  0.09592229  0.07498658  1
  N  N42  1  0.22797007  0.19476970  0.83306499  1
  N  N43  1  0.10419079  0.10182443  0.58208047  1
  N  N44  1  0.88793115  0.20068512  0.31980397  1
  N  N45  1  0.77389865  0.09662508  0.05406259  1
  N  N46  1  0.58497630  0.18851940  0.83308216  1
  N  N47  1  0.44569679  0.09293174  0.57929496  1
  N  N48  1  0.21790981  0.54523119  0.38067547  1
  N  N49  1  0.11735019  0.42848896  0.12021437  1
  N  N50  1  0.87544721  0.57139513  0.84194738  1
  N  N51  1  0.77506486  0.42817543  0.62545504  1
  N  N52  1  0.55153703  0.54400810  0.38024975  1
  N  N53  1  0.44345369  0.43297310  0.13186805  1
  N  N54  1  0.22950283  0.53479521  0.88182348  1
  N  N55  1  0.11047917  0.43194816  0.63193827  1
  N  N56  1  0.88204656  0.54739900  0.31955094  1
  N  N57  1  0.77970680  0.42485366  0.09320148  1
  N  N58  1  0.55266232  0.53906627  0.88208877  1
  N  N59  1  0.44151635  0.43043436  0.62851150  1
  N  N60  1  0.22071494  0.86944482  0.38480252  1
  N  N61  1  0.12820465  0.77240003  0.11582533  1
  N  N62  1  0.86474763  0.88395461  0.84544257  1
  N  N63  1  0.77857198  0.76396448  0.57279629  1
  N  N64  1  0.55771668  0.87299768  0.32122600  1
  N  N65  1  0.41683039  0.77369916  0.12071552  1
  N  N66  1  0.23283269  0.85765597  0.89908581  1
  N  N67  1  0.11165334  0.76202057  0.64191402  1
  N  N68  1  0.88280784  0.87449749  0.31143427  1
  N  N69  1  0.77409500  0.76543691  0.05456971  1
  N  N70  1  0.58438891  0.86096515  0.83670324  1
  N  N71  1  0.44013413  0.76294819  0.63660146  1
