# generated using pymatgen
data_Al11BN12
_symmetry_space_group_name_H-M   'P 1'
_cell_length_a   9.28750808
_cell_length_b   9.31583429
_cell_length_c   10.05190580
_cell_angle_alpha   90.04819905
_cell_angle_beta   89.74947089
_cell_angle_gamma   60.11828475
_symmetry_Int_Tables_number   1
_chemical_formula_structural   Al11BN12
_chemical_formula_sum   'Al33 B3 N36'
_cell_volume   754.06646068
_cell_formula_units_Z   3
loop_
 _symmetry_equiv_pos_site_id
 _symmetry_equiv_pos_as_xyz
  1  'x, y, z'
loop_
 _atom_site_type_symbol
 _atom_site_label
 _atom_site_symmetry_multiplicity
 _atom_site_fract_x
 _atom_site_fract_y
 _atom_site_fract_z
 _atom_site_occupancy
  Al  Al0  1  0.11502894  0.08823239  0.31762344  1
  Al  Al1  1  0.22209182  0.20222765  0.06978649  1
  Al  Al2  1  0.89386302  0.20513349  0.57293324  1
  Al  Al3  1  0.44398958  0.09583725  0.31941913  1
  Al  Al4  1  0.54906188  0.21121920  0.07109087  1
  Al  Al5  1  0.10967946  0.08879323  0.82841650  1
  Al  Al6  1  0.22296182  0.20329594  0.57143211  1
  Al  Al7  1  0.78321560  0.08500735  0.38850907  1
  Al  Al8  1  0.89587806  0.20300985  0.06916608  1
  Al  Al9  1  0.45459514  0.09439224  0.82313129  1
  Al  Al10  1  0.54965087  0.21051849  0.57220591  1
  Al  Al11  1  0.11039314  0.42746215  0.32236812  1
  Al  Al12  1  0.22446485  0.54044310  0.07203948  1
  Al  Al13  1  0.77929363  0.41615306  0.82046871  1
  Al  Al14  1  0.89236816  0.53253167  0.57831596  1
  Al  Al15  1  0.44416466  0.42824813  0.32323597  1
  Al  Al16  1  0.55218124  0.54071498  0.07151208  1
  Al  Al17  1  0.11394714  0.42108240  0.82056866  1
  Al  Al18  1  0.21633277  0.54597690  0.57614806  1
  Al  Al19  1  0.77918366  0.42773413  0.32019913  1
  Al  Al20  1  0.89281863  0.53340907  0.05679514  1
  Al  Al21  1  0.44973505  0.42547048  0.82151702  1
  Al  Al22  1  0.55458251  0.54056416  0.57258180  1
  Al  Al23  1  0.12107557  0.75946735  0.31656227  1
  Al  Al24  1  0.87167643  0.88279205  0.65904600  1
  Al  Al25  1  0.43922545  0.76135885  0.31842392  1
  Al  Al26  1  0.54656814  0.87567874  0.08825976  1
  Al  Al27  1  0.11088901  0.76113450  0.84217973  1
  Al  Al28  1  0.21804593  0.87165212  0.57879976  1
  Al  Al29  1  0.78224075  0.76237554  0.39010452  1
  Al  Al30  1  0.89229639  0.87658888  0.13100767  1
  Al  Al31  1  0.45207388  0.75983096  0.83371857  1
  Al  Al32  1  0.55273708  0.87246481  0.58849143  1
  B  B33  1  0.77370201  0.09450497  0.90852605  1
  B  B34  1  0.22471405  0.86978982  0.06757521  1
  B  B35  1  0.75047438  0.82190801  0.91627210  1
  N  N36  1  0.22248647  0.20316976  0.38051068  1
  N  N37  1  0.12438270  0.06914800  0.12459383  1
  N  N38  1  0.87899350  0.18693552  0.87706096  1
  N  N39  1  0.78075521  0.08779648  0.58084043  1
  N  N40  1  0.54998846  0.20860899  0.37967610  1
  N  N41  1  0.44160587  0.09961489  0.13070623  1
  N  N42  1  0.23070555  0.19670317  0.88138561  1
  N  N43  1  0.11288884  0.09273340  0.63760646  1
  N  N44  1  0.89434845  0.20579050  0.37660001  1
  N  N45  1  0.77846119  0.09052923  0.07161536  1
  N  N46  1  0.57340530  0.20073660  0.87981160  1
  N  N47  1  0.44471924  0.09550638  0.63358079  1
  N  N48  1  0.21939797  0.54312135  0.38349475  1
  N  N49  1  0.11002261  0.42938446  0.13223471  1
  N  N50  1  0.90011731  0.51105285  0.87547297  1
  N  N51  1  0.77570051  0.42517969  0.63099863  1
  N  N52  1  0.55464871  0.54090314  0.38143914  1
  N  N53  1  0.44445414  0.42841727  0.13426591  1
  N  N54  1  0.22499019  0.53323858  0.88440331  1
  N  N55  1  0.11534498  0.42434134  0.63101773  1
  N  N56  1  0.89244417  0.53196009  0.38362863  1
  N  N57  1  0.77771763  0.42944654  0.13048765  1
  N  N58  1  0.55766862  0.53705799  0.88378231  1
  N  N59  1  0.44169921  0.43088738  0.63218801  1
  N  N60  1  0.22140157  0.87145723  0.38912328  1
  N  N61  1  0.13087686  0.77086119  0.12069564  1
  N  N62  1  0.85387522  0.89526771  0.85453220  1
  N  N63  1  0.78064984  0.76470480  0.58315016  1
  N  N64  1  0.55499705  0.87039261  0.35982523  1
  N  N65  1  0.41934756  0.77143273  0.12440003  1
  N  N66  1  0.22660315  0.87049603  0.90540006  1
  N  N67  1  0.10816921  0.76395217  0.64969516  1
  N  N68  1  0.88711096  0.87122841  0.31920968  1
  N  N69  1  0.78128376  0.77006021  0.06306088  1
  N  N70  1  0.57458991  0.87125630  0.88040423  1
  N  N71  1  0.44183709  0.76166796  0.64129376  1
