# generated using pymatgen
data_Al11BN12
_symmetry_space_group_name_H-M   'P 1'
_cell_length_a   9.25339999
_cell_length_b   9.32092771
_cell_length_c   9.89361184
_cell_angle_alpha   90.22832659
_cell_angle_beta   89.93180973
_cell_angle_gamma   60.06653252
_symmetry_Int_Tables_number   1
_chemical_formula_structural   Al11BN12
_chemical_formula_sum   'Al33 B3 N36'
_cell_volume   739.48671559
_cell_formula_units_Z   3
loop_
 _symmetry_equiv_pos_site_id
 _symmetry_equiv_pos_as_xyz
  1  'x, y, z'
loop_
 _atom_site_type_symbol
 _atom_site_label
 _atom_site_symmetry_multiplicity
 _atom_site_fract_x
 _atom_site_fract_y
 _atom_site_fract_z
 _atom_site_occupancy
  Al  Al0  1  0.11256150  0.08865702  0.30668109  1
  Al  Al1  1  0.22446878  0.19916764  0.05995197  1
  Al  Al2  1  0.88957914  0.20697312  0.56321831  1
  Al  Al3  1  0.44715082  0.09279719  0.31034228  1
  Al  Al4  1  0.56289657  0.20331390  0.05815413  1
  Al  Al5  1  0.10906551  0.08927085  0.81534306  1
  Al  Al6  1  0.22227693  0.20479561  0.56160355  1
  Al  Al7  1  0.78147098  0.08747811  0.31197434  1
  Al  Al8  1  0.88894467  0.19726497  0.05815965  1
  Al  Al9  1  0.46017933  0.08627269  0.81047815  1
  Al  Al10  1  0.55393409  0.20810033  0.56292009  1
  Al  Al11  1  0.10985874  0.42805715  0.31172806  1
  Al  Al12  1  0.22566539  0.53908916  0.06363527  1
  Al  Al13  1  0.77284545  0.43517741  0.80946828  1
  Al  Al14  1  0.88734997  0.54271045  0.56575475  1
  Al  Al15  1  0.44550857  0.42695485  0.31202994  1
  Al  Al16  1  0.55035898  0.54304884  0.06162177  1
  Al  Al17  1  0.10948231  0.42938934  0.81138239  1
  Al  Al18  1  0.21772939  0.54487578  0.56085277  1
  Al  Al19  1  0.77887656  0.42727988  0.31101010  1
  Al  Al20  1  0.88732955  0.54143007  0.05845697  1
  Al  Al21  1  0.44685601  0.42937297  0.80817266  1
  Al  Al22  1  0.55301089  0.54358056  0.55950513  1
  Al  Al23  1  0.10735617  0.76680985  0.30840031  1
  Al  Al24  1  0.88385233  0.87649746  0.61994624  1
  Al  Al25  1  0.43915471  0.76504112  0.30707095  1
  Al  Al26  1  0.55750952  0.86980377  0.05890931  1
  Al  Al27  1  0.11472091  0.75326546  0.82577454  1
  Al  Al28  1  0.21981847  0.87261902  0.56288164  1
  Al  Al29  1  0.78066971  0.76274587  0.31525376  1
  Al  Al30  1  0.88843834  0.86914545  0.04980334  1
  Al  Al31  1  0.44667877  0.76333802  0.81689601  1
  Al  Al32  1  0.55668445  0.87059048  0.56557628  1
  B  B33  1  0.75143854  0.14864514  0.79840635  1
  B  B34  1  0.22198716  0.87187191  0.05636814  1
  B  B35  1  0.78000913  0.75461834  0.81248463  1
  N  N36  1  0.22170093  0.20390013  0.36743577  1
  N  N37  1  0.12137037  0.07011723  0.11022847  1
  N  N38  1  0.87051241  0.20072708  0.86235872  1
  N  N39  1  0.77018637  0.11057056  0.64689332  1
  N  N40  1  0.55762241  0.20503865  0.37224453  1
  N  N41  1  0.44841360  0.09356248  0.11573278  1
  N  N42  1  0.22556920  0.20202776  0.86830494  1
  N  N43  1  0.11105226  0.09349658  0.62404644  1
  N  N44  1  0.88894355  0.20444595  0.37067791  1
  N  N45  1  0.78105174  0.08740923  0.11973543  1
  N  N46  1  0.58149038  0.20069712  0.86203879  1
  N  N47  1  0.44620683  0.09422561  0.62037834  1
  N  N48  1  0.22016839  0.54241203  0.36761307  1
  N  N49  1  0.11109201  0.42566154  0.11889534  1
  N  N50  1  0.87850478  0.55472153  0.86516138  1
  N  N51  1  0.77597460  0.42954886  0.61904638  1
  N  N52  1  0.55405823  0.54267601  0.36693845  1
  N  N53  1  0.44833204  0.42363150  0.12059932  1
  N  N54  1  0.23048392  0.52814314  0.87357207  1
  N  N55  1  0.11187636  0.42784258  0.61974389  1
  N  N56  1  0.88746260  0.54043226  0.37368718  1
  N  N57  1  0.77993794  0.42409799  0.11704268  1
  N  N58  1  0.55330150  0.54170648  0.87091574  1
  N  N59  1  0.44238917  0.43106685  0.61748700  1
  N  N60  1  0.22093178  0.87252403  0.37314707  1
  N  N61  1  0.12251862  0.77282296  0.10917222  1
  N  N62  1  0.88410115  0.83996821  0.85839665  1
  N  N63  1  0.77299008  0.75750057  0.64512346  1
  N  N64  1  0.55518482  0.87133570  0.37185589  1
  N  N65  1  0.42022793  0.77497165  0.11185696  1
  N  N66  1  0.22203646  0.87219438  0.89196029  1
  N  N67  1  0.11552424  0.76128983  0.63337741  1
  N  N68  1  0.88903601  0.87291265  0.37929395  1
  N  N69  1  0.77886049  0.75917250  0.12393921  1
  N  N70  1  0.58189258  0.85870712  0.86658877  1
  N  N71  1  0.44110050  0.76373662  0.62466975  1
