# generated using pymatgen
data_Al11BN12
_symmetry_space_group_name_H-M   'P 1'
_cell_length_a   9.30440401
_cell_length_b   9.29043136
_cell_length_c   10.02407231
_cell_angle_alpha   89.89076085
_cell_angle_beta   89.86841344
_cell_angle_gamma   59.97952935
_symmetry_Int_Tables_number   1
_chemical_formula_structural   Al11BN12
_chemical_formula_sum   'Al33 B3 N36'
_cell_volume   750.25401464
_cell_formula_units_Z   3
loop_
 _symmetry_equiv_pos_site_id
 _symmetry_equiv_pos_as_xyz
  1  'x, y, z'
loop_
 _atom_site_type_symbol
 _atom_site_label
 _atom_site_symmetry_multiplicity
 _atom_site_fract_x
 _atom_site_fract_y
 _atom_site_fract_z
 _atom_site_occupancy
  Al  Al0  1  0.10574203  0.10160144  0.38784173  1
  Al  Al1  1  0.22273655  0.19937799  0.13839961  1
  Al  Al2  1  0.88772314  0.20137648  0.64310146  1
  Al  Al3  1  0.44649336  0.09192193  0.38668795  1
  Al  Al4  1  0.56081260  0.19823225  0.13165249  1
  Al  Al5  1  0.10713065  0.09227989  0.89285304  1
  Al  Al6  1  0.22147551  0.20624627  0.63910604  1
  Al  Al7  1  0.77985433  0.09036129  0.38438059  1
  Al  Al8  1  0.89261442  0.19788837  0.13279341  1
  Al  Al9  1  0.45507453  0.09004642  0.88849027  1
  Al  Al10  1  0.56493244  0.19588173  0.63879486  1
  Al  Al11  1  0.10695715  0.42779948  0.38598737  1
  Al  Al12  1  0.22592726  0.54388237  0.06806959  1
  Al  Al13  1  0.78395987  0.42337441  0.88719991  1
  Al  Al14  1  0.88785555  0.54437695  0.64174839  1
  Al  Al15  1  0.44236570  0.43247766  0.31754291  1
  Al  Al16  1  0.54846173  0.54410786  0.07114049  1
  Al  Al17  1  0.10427483  0.42848857  0.88841297  1
  Al  Al18  1  0.22273109  0.54531225  0.57158123  1
  Al  Al19  1  0.77936249  0.42747581  0.38680427  1
  Al  Al20  1  0.88772421  0.54046977  0.13360191  1
  Al  Al21  1  0.44798436  0.42507105  0.82561164  1
  Al  Al22  1  0.55181023  0.54305631  0.58646961  1
  Al  Al23  1  0.11645029  0.76484048  0.30912531  1
  Al  Al24  1  0.87926621  0.87681178  0.64726921  1
  Al  Al25  1  0.43465169  0.76411163  0.31203863  1
  Al  Al26  1  0.55483497  0.87509306  0.12578132  1
  Al  Al27  1  0.10979579  0.76145512  0.83207273  1
  Al  Al28  1  0.22314658  0.86855516  0.57302125  1
  Al  Al29  1  0.77758289  0.76360882  0.38271887  1
  Al  Al30  1  0.88830397  0.87552889  0.11536462  1
  Al  Al31  1  0.44761166  0.75987685  0.83285802  1
  Al  Al32  1  0.56432040  0.87252521  0.64299840  1
  B  B33  1  0.77118018  0.09114851  0.89364282  1
  B  B34  1  0.22603132  0.86678030  0.05922767  1
  B  B35  1  0.77190155  0.77119105  0.89443464  1
  N  N36  1  0.22318903  0.20528787  0.32823729  1
  N  N37  1  0.12122987  0.07379497  0.08371541  1
  N  N38  1  0.88007134  0.18768226  0.83446707  1
  N  N39  1  0.78139665  0.09047663  0.57337739  1
  N  N40  1  0.55991661  0.19862901  0.32522678  1
  N  N41  1  0.44234842  0.09698837  0.07463408  1
  N  N42  1  0.22370787  0.20169597  0.82938618  1
  N  N43  1  0.10630971  0.10146053  0.58175536  1
  N  N44  1  0.88649040  0.20549489  0.32366918  1
  N  N45  1  0.77574440  0.09675921  0.05380701  1
  N  N46  1  0.58482840  0.18696985  0.83463413  1
  N  N47  1  0.44603666  0.09289894  0.57943154  1
  N  N48  1  0.22166380  0.54643960  0.37702724  1
  N  N49  1  0.10942272  0.42405145  0.08090868  1
  N  N50  1  0.87810431  0.56324791  0.83280922  1
  N  N51  1  0.78332596  0.42519262  0.58419325  1
  N  N52  1  0.55044477  0.54480078  0.37210073  1
  N  N53  1  0.44315493  0.42996709  0.12536796  1
  N  N54  1  0.22615809  0.53689693  0.87871732  1
  N  N55  1  0.10773588  0.42734298  0.58008852  1
  N  N56  1  0.88675738  0.54143078  0.32398733  1
  N  N57  1  0.78449629  0.42288610  0.07858420  1
  N  N58  1  0.55505093  0.53771661  0.87692238  1
  N  N59  1  0.44235625  0.42837727  0.63302945  1
  N  N60  1  0.22237433  0.86955933  0.38313404  1
  N  N61  1  0.12785097  0.77353981  0.11522666  1
  N  N62  1  0.86447783  0.88312773  0.84480375  1
  N  N63  1  0.77921577  0.76289991  0.57281928  1
  N  N64  1  0.55837008  0.87315406  0.31918102  1
  N  N65  1  0.41672648  0.77495391  0.11609465  1
  N  N66  1  0.22904442  0.86107582  0.89770451  1
  N  N67  1  0.11188943  0.76283905  0.64024179  1
  N  N68  1  0.88341328  0.87450039  0.31121556  1
  N  N69  1  0.77740156  0.76017041  0.05491721  1
  N  N70  1  0.58478403  0.86147474  0.83848167  1
  N  N71  1  0.43946550  0.76532660  0.64033830  1
