# generated using pymatgen
data_Al11BN12
_symmetry_space_group_name_H-M   'P 1'
_cell_length_a   9.27166598
_cell_length_b   9.26497579
_cell_length_c   10.09261381
_cell_angle_alpha   90.02584710
_cell_angle_beta   89.69269383
_cell_angle_gamma   60.04380047
_symmetry_Int_Tables_number   1
_chemical_formula_structural   Al11BN12
_chemical_formula_sum   'Al33 B3 N36'
_cell_volume   751.13636148
_cell_formula_units_Z   3
loop_
 _symmetry_equiv_pos_site_id
 _symmetry_equiv_pos_as_xyz
  1  'x, y, z'
loop_
 _atom_site_type_symbol
 _atom_site_label
 _atom_site_symmetry_multiplicity
 _atom_site_fract_x
 _atom_site_fract_y
 _atom_site_fract_z
 _atom_site_occupancy
  Al  Al0  1  0.11423104  0.08893225  0.31821738  1
  Al  Al1  1  0.22317347  0.20090096  0.07072036  1
  Al  Al2  1  0.89327967  0.20558664  0.57494163  1
  Al  Al3  1  0.44398370  0.09434747  0.32016558  1
  Al  Al4  1  0.54975175  0.20869375  0.07067339  1
  Al  Al5  1  0.11017904  0.08896935  0.82772915  1
  Al  Al6  1  0.22200568  0.20439132  0.57239446  1
  Al  Al7  1  0.78327540  0.08504151  0.39043494  1
  Al  Al8  1  0.89710647  0.20039181  0.06783552  1
  Al  Al9  1  0.45629536  0.08941042  0.82154326  1
  Al  Al10  1  0.54894944  0.20944868  0.57247869  1
  Al  Al11  1  0.11118398  0.42740398  0.32227431  1
  Al  Al12  1  0.22602468  0.54073228  0.07162246  1
  Al  Al13  1  0.77772558  0.42594362  0.82174980  1
  Al  Al14  1  0.89139260  0.53438620  0.57572888  1
  Al  Al15  1  0.44462574  0.42787821  0.32277365  1
  Al  Al16  1  0.55218546  0.54160902  0.07122700  1
  Al  Al17  1  0.10932380  0.43079960  0.82164636  1
  Al  Al18  1  0.21660185  0.54622549  0.57601925  1
  Al  Al19  1  0.77921280  0.42690970  0.31936758  1
  Al  Al20  1  0.89296125  0.53496065  0.06511199  1
  Al  Al21  1  0.45201089  0.42288929  0.82119556  1
  Al  Al22  1  0.55470881  0.54058288  0.57184625  1
  Al  Al23  1  0.12069809  0.76002477  0.31587258  1
  Al  Al24  1  0.87122051  0.88114212  0.66064815  1
  Al  Al25  1  0.43962251  0.76331174  0.31858393  1
  Al  Al26  1  0.54553165  0.87633849  0.07115534  1
  Al  Al27  1  0.11125356  0.76265698  0.84104606  1
  Al  Al28  1  0.21753086  0.87140859  0.57744582  1
  Al  Al29  1  0.78274279  0.76371787  0.39084915  1
  Al  Al30  1  0.89107957  0.87478840  0.13012989  1
  Al  Al31  1  0.45096153  0.75985212  0.82788749  1
  Al  Al32  1  0.54801460  0.87465663  0.57309993  1
  B  B33  1  0.77358983  0.08836636  0.90863020  1
  B  B34  1  0.22546213  0.87021702  0.06880816  1
  B  B35  1  0.77080027  0.78061616  0.90973620  1
  N  N36  1  0.22180776  0.20394365  0.38142150  1
  N  N37  1  0.12455618  0.06881735  0.12564537  1
  N  N38  1  0.88068072  0.19259955  0.87744762  1
  N  N39  1  0.78037020  0.08765869  0.58193257  1
  N  N40  1  0.54990610  0.20786912  0.38018643  1
  N  N41  1  0.44321902  0.09560537  0.13203149  1
  N  N42  1  0.22473443  0.20358293  0.88212843  1
  N  N43  1  0.11269754  0.09284851  0.63795931  1
  N  N44  1  0.89404720  0.20630603  0.37866507  1
  N  N45  1  0.77947369  0.08848312  0.06910439  1
  N  N46  1  0.57431226  0.19674885  0.87970708  1
  N  N47  1  0.44341779  0.09494701  0.63391973  1
  N  N48  1  0.21963580  0.54286954  0.38384836  1
  N  N49  1  0.11204013  0.42811301  0.13234744  1
  N  N50  1  0.88302828  0.55260739  0.87658541  1
  N  N51  1  0.77632084  0.42733092  0.63327716  1
  N  N52  1  0.55538703  0.54069687  0.38088061  1
  N  N53  1  0.44591704  0.42711996  0.13422466  1
  N  N54  1  0.22719696  0.53390115  0.88493709  1
  N  N55  1  0.11258995  0.42667802  0.63294465  1
  N  N56  1  0.89201202  0.53243849  0.38171796  1
  N  N57  1  0.77952859  0.42676345  0.12947314  1
  N  N58  1  0.55725455  0.53763778  0.88389325  1
  N  N59  1  0.44219906  0.43036043  0.63252631  1
  N  N60  1  0.22087240  0.87171330  0.38866693  1
  N  N61  1  0.13159561  0.77066843  0.12155108  1
  N  N62  1  0.85987808  0.88716176  0.85462655  1
  N  N63  1  0.77936535  0.76562041  0.58262284  1
  N  N64  1  0.54933572  0.87369542  0.37840903  1
  N  N65  1  0.42154673  0.77261606  0.12597760  1
  N  N66  1  0.22766104  0.87111771  0.90581050  1
  N  N67  1  0.10880783  0.76371425  0.64908164  1
  N  N68  1  0.88620266  0.87237151  0.31818835  1
  N  N69  1  0.78056537  0.76687255  0.06877686  1
  N  N70  1  0.57474420  0.86494238  0.88115932  1
  N  N71  1  0.44115532  0.76213617  0.63808161  1
