# generated using pymatgen
data_Al11BN12
_symmetry_space_group_name_H-M   'P 1'
_cell_length_a   9.30367593
_cell_length_b   9.27814885
_cell_length_c   10.04589387
_cell_angle_alpha   90.00040876
_cell_angle_beta   90.05013015
_cell_angle_gamma   60.04705153
_symmetry_Int_Tables_number   1
_chemical_formula_structural   Al11BN12
_chemical_formula_sum   'Al33 B3 N36'
_cell_volume   751.34711215
_cell_formula_units_Z   3
loop_
 _symmetry_equiv_pos_site_id
 _symmetry_equiv_pos_as_xyz
  1  'x, y, z'
loop_
 _atom_site_type_symbol
 _atom_site_label
 _atom_site_symmetry_multiplicity
 _atom_site_fract_x
 _atom_site_fract_y
 _atom_site_fract_z
 _atom_site_occupancy
  Al  Al0  1  0.10580518  0.10173821  0.38926929  1
  Al  Al1  1  0.22577321  0.19456644  0.13538401  1
  Al  Al2  1  0.88698413  0.20266758  0.64328697  1
  Al  Al3  1  0.44696895  0.09143972  0.38783974  1
  Al  Al4  1  0.56090429  0.19988254  0.13308215  1
  Al  Al5  1  0.10800605  0.09057192  0.89378453  1
  Al  Al6  1  0.22286600  0.20343773  0.64021415  1
  Al  Al7  1  0.78055774  0.08989746  0.38480628  1
  Al  Al8  1  0.89266636  0.19791114  0.13261561  1
  Al  Al9  1  0.45724652  0.08884681  0.88876014  1
  Al  Al10  1  0.56464514  0.19664886  0.63731703  1
  Al  Al11  1  0.11117411  0.43111679  0.33674042  1
  Al  Al12  1  0.22715291  0.54165406  0.06782755  1
  Al  Al13  1  0.78325042  0.42337608  0.88781951  1
  Al  Al14  1  0.88360132  0.54604789  0.64180315  1
  Al  Al15  1  0.44318558  0.43274455  0.32029302  1
  Al  Al16  1  0.54653633  0.54522092  0.06835663  1
  Al  Al17  1  0.10768693  0.43104337  0.85461838  1
  Al  Al18  1  0.21836392  0.54280487  0.57187718  1
  Al  Al19  1  0.78257162  0.42609073  0.38754567  1
  Al  Al20  1  0.88397780  0.54317734  0.12895799  1
  Al  Al21  1  0.44934424  0.42695275  0.82034116  1
  Al  Al22  1  0.54842044  0.54459124  0.57191586  1
  Al  Al23  1  0.11578246  0.76601745  0.30827047  1
  Al  Al24  1  0.87930355  0.87695719  0.64817564  1
  Al  Al25  1  0.43424157  0.76424531  0.31349544  1
  Al  Al26  1  0.55470536  0.87477319  0.12742760  1
  Al  Al27  1  0.11017245  0.76171741  0.83271449  1
  Al  Al28  1  0.22192528  0.86803817  0.57356330  1
  Al  Al29  1  0.77770748  0.76414230  0.38327312  1
  Al  Al30  1  0.88788157  0.87589692  0.11396559  1
  Al  Al31  1  0.44807944  0.75781725  0.82824060  1
  Al  Al32  1  0.56393316  0.87214503  0.64196139  1
  B  B33  1  0.77066665  0.09192809  0.89313923  1
  B  B34  1  0.22697751  0.86489698  0.05998139  1
  B  B35  1  0.77026323  0.76986695  0.89404590  1
  N  N36  1  0.22570046  0.20060089  0.32739985  1
  N  N37  1  0.12097978  0.07247993  0.08367346  1
  N  N38  1  0.88066110  0.18815988  0.83447857  1
  N  N39  1  0.78164162  0.09035851  0.57327494  1
  N  N40  1  0.56002546  0.19885121  0.32666495  1
  N  N41  1  0.44480335  0.09616376  0.07463586  1
  N  N42  1  0.22704104  0.19599463  0.83259869  1
  N  N43  1  0.10571407  0.10130381  0.58198674  1
  N  N44  1  0.88694700  0.20526063  0.32326033  1
  N  N45  1  0.77482196  0.09786966  0.05350625  1
  N  N46  1  0.58463420  0.18825765  0.83311487  1
  N  N47  1  0.44596229  0.09253568  0.57925697  1
  N  N48  1  0.22024025  0.54626798  0.37846135  1
  N  N49  1  0.11277960  0.42720518  0.10431954  1
  N  N50  1  0.87299303  0.56695597  0.83558007  1
  N  N51  1  0.78201691  0.42559349  0.58299775  1
  N  N52  1  0.54931904  0.54588604  0.37957136  1
  N  N53  1  0.44366866  0.43228702  0.12999853  1
  N  N54  1  0.22897436  0.53569657  0.88072774  1
  N  N55  1  0.10932886  0.42983905  0.61374322  1
  N  N56  1  0.88191194  0.54430377  0.32181790  1
  N  N57  1  0.78341584  0.42268609  0.07841387  1
  N  N58  1  0.55393613  0.53837716  0.87931122  1
  N  N59  1  0.44219326  0.42971411  0.62931234  1
  N  N60  1  0.22194776  0.86914638  0.38397056  1
  N  N61  1  0.12786748  0.77291638  0.11486077  1
  N  N62  1  0.86448558  0.88374048  0.84511625  1
  N  N63  1  0.77869899  0.76359811  0.57253399  1
  N  N64  1  0.55849071  0.87283696  0.32025628  1
  N  N65  1  0.41662523  0.77400701  0.11931782  1
  N  N66  1  0.23151867  0.85904434  0.89819648  1
  N  N67  1  0.11175760  0.76229327  0.64114004  1
  N  N68  1  0.88323050  0.87456294  0.31021834  1
  N  N69  1  0.77514138  0.76197616  0.05418519  1
  N  N70  1  0.58408017  0.86103844  0.83687781  1
  N  N71  1  0.44003456  0.76340625  0.63736829  1
