# generated using pymatgen
data_Al11BN12
_symmetry_space_group_name_H-M   'P 1'
_cell_length_a   9.31011847
_cell_length_b   9.30978239
_cell_length_c   10.01772869
_cell_angle_alpha   89.90478533
_cell_angle_beta   89.88428911
_cell_angle_gamma   59.93188111
_symmetry_Int_Tables_number   1
_chemical_formula_structural   Al11BN12
_chemical_formula_sum   'Al33 B3 N36'
_cell_volume   751.44138933
_cell_formula_units_Z   3
loop_
 _symmetry_equiv_pos_site_id
 _symmetry_equiv_pos_as_xyz
  1  'x, y, z'
loop_
 _atom_site_type_symbol
 _atom_site_label
 _atom_site_symmetry_multiplicity
 _atom_site_fract_x
 _atom_site_fract_y
 _atom_site_fract_z
 _atom_site_occupancy
  Al  Al0  1  0.10423623  0.10288363  0.38810609  1
  Al  Al1  1  0.22296009  0.19925446  0.13803034  1
  Al  Al2  1  0.88653916  0.20239662  0.64227975  1
  Al  Al3  1  0.44598262  0.09269835  0.38705743  1
  Al  Al4  1  0.56158864  0.19662950  0.12988418  1
  Al  Al5  1  0.10706010  0.09215307  0.89219575  1
  Al  Al6  1  0.22104657  0.20663143  0.63878288  1
  Al  Al7  1  0.77974524  0.09062659  0.38426969  1
  Al  Al8  1  0.89345913  0.19704093  0.13231230  1
  Al  Al9  1  0.45520814  0.08931524  0.88816880  1
  Al  Al10  1  0.56374341  0.19704718  0.63869266  1
  Al  Al11  1  0.10559057  0.42801038  0.38591994  1
  Al  Al12  1  0.22567814  0.54455961  0.06696661  1
  Al  Al13  1  0.78124054  0.42479465  0.88947456  1
  Al  Al14  1  0.88671922  0.54489743  0.64083121  1
  Al  Al15  1  0.43971076  0.42953927  0.31798664  1
  Al  Al16  1  0.55703775  0.54061310  0.12386283  1
  Al  Al17  1  0.10396297  0.42841166  0.88777475  1
  Al  Al18  1  0.22303227  0.54511061  0.57174475  1
  Al  Al19  1  0.77394494  0.43051335  0.38715113  1
  Al  Al20  1  0.88860125  0.54033876  0.13318180  1
  Al  Al21  1  0.44822033  0.42077839  0.83384343  1
  Al  Al22  1  0.55892769  0.53824643  0.64153046  1
  Al  Al23  1  0.11595314  0.76513754  0.30887457  1
  Al  Al24  1  0.87880582  0.87733717  0.64701861  1
  Al  Al25  1  0.43119507  0.77117386  0.31300552  1
  Al  Al26  1  0.55510198  0.87523821  0.12482074  1
  Al  Al27  1  0.11000627  0.76136743  0.83088891  1
  Al  Al28  1  0.22310907  0.86873255  0.57321501  1
  Al  Al29  1  0.77768693  0.76372662  0.38266983  1
  Al  Al30  1  0.88905733  0.87497951  0.11498459  1
  Al  Al31  1  0.44744137  0.76276095  0.83686248  1
  Al  Al32  1  0.56347543  0.87325981  0.64212695  1
  B  B33  1  0.77232372  0.09001964  0.89356765  1
  B  B34  1  0.22722420  0.86608106  0.05839069  1
  B  B35  1  0.77252613  0.77055276  0.89417819  1
  N  N36  1  0.22275350  0.20541483  0.32818501  1
  N  N37  1  0.12141602  0.07403717  0.08320456  1
  N  N38  1  0.88033019  0.18782043  0.83429242  1
  N  N39  1  0.78067839  0.09084391  0.57337975  1
  N  N40  1  0.55975255  0.19820423  0.32418688  1
  N  N41  1  0.44253516  0.09628552  0.07429246  1
  N  N42  1  0.22397226  0.20146239  0.82918269  1
  N  N43  1  0.10514185  0.10250683  0.58160196  1
  N  N44  1  0.88543662  0.20652117  0.32353034  1
  N  N45  1  0.77713802  0.09562578  0.05367819  1
  N  N46  1  0.58557946  0.18532131  0.83525086  1
  N  N47  1  0.44565228  0.09355747  0.57943714  1
  N  N48  1  0.22064532  0.54676251  0.37619612  1
  N  N49  1  0.10974336  0.42378447  0.08051840  1
  N  N50  1  0.87813251  0.56296905  0.83263557  1
  N  N51  1  0.77806280  0.42814781  0.58055208  1
  N  N52  1  0.55751301  0.54181576  0.32491820  1
  N  N53  1  0.44369047  0.42566118  0.11676316  1
  N  N54  1  0.22481853  0.53769745  0.87789228  1
  N  N55  1  0.10660010  0.42776306  0.57969703  1
  N  N56  1  0.88576288  0.54170956  0.32383083  1
  N  N57  1  0.78341324  0.42348813  0.07688254  1
  N  N58  1  0.56307742  0.53383365  0.84052192  1
  N  N59  1  0.44130088  0.42641458  0.62969340  1
  N  N60  1  0.22088292  0.87033556  0.38333554  1
  N  N61  1  0.12876738  0.77317304  0.11537513  1
  N  N62  1  0.86504510  0.88293685  0.84471315  1
  N  N63  1  0.77897377  0.76348155  0.57275369  1
  N  N64  1  0.55813887  0.87462394  0.31936182  1
  N  N65  1  0.41616750  0.77738127  0.11304827  1
  N  N66  1  0.22874260  0.86067250  0.89744176  1
  N  N67  1  0.11150624  0.76312658  0.63935607  1
  N  N68  1  0.88305114  0.87483529  0.31103133  1
  N  N69  1  0.77812573  0.75978670  0.05487335  1
  N  N70  1  0.58554575  0.86146659  0.83858884  1
  N  N71  1  0.43779990  0.76941792  0.63820860  1
