# generated using pymatgen
data_Al11BN12
_symmetry_space_group_name_H-M   'P 1'
_cell_length_a   9.29000821
_cell_length_b   9.26610310
_cell_length_c   10.09906249
_cell_angle_alpha   89.96122900
_cell_angle_beta   89.99304397
_cell_angle_gamma   60.05552133
_symmetry_Int_Tables_number   1
_chemical_formula_structural   Al11BN12
_chemical_formula_sum   'Al33 B3 N36'
_cell_volume   753.29920086
_cell_formula_units_Z   3
loop_
 _symmetry_equiv_pos_site_id
 _symmetry_equiv_pos_as_xyz
  1  'x, y, z'
loop_
 _atom_site_type_symbol
 _atom_site_label
 _atom_site_symmetry_multiplicity
 _atom_site_fract_x
 _atom_site_fract_y
 _atom_site_fract_z
 _atom_site_occupancy
  Al  Al0  1  0.11933047  0.08539414  0.31383644  1
  Al  Al1  1  0.21689931  0.20644253  0.06835419  1
  Al  Al2  1  0.88461645  0.19640949  0.64706827  1
  Al  Al3  1  0.45268327  0.08709094  0.39002290  1
  Al  Al4  1  0.55999283  0.20136092  0.13689133  1
  Al  Al5  1  0.11349612  0.08755865  0.83407022  1
  Al  Al6  1  0.21680349  0.20452764  0.57346224  1
  Al  Al7  1  0.78319668  0.08957669  0.38691648  1
  Al  Al8  1  0.88941013  0.19999190  0.12090380  1
  Al  Al9  1  0.46081088  0.08925039  0.89081478  1
  Al  Al10  1  0.56426494  0.19567184  0.64084539  1
  Al  Al11  1  0.11088388  0.42638193  0.32026758  1
  Al  Al12  1  0.22492154  0.54214952  0.07060717  1
  Al  Al13  1  0.77340036  0.43580778  0.82687437  1
  Al  Al14  1  0.89211230  0.53028501  0.57107288  1
  Al  Al15  1  0.44218677  0.43126354  0.32404626  1
  Al  Al16  1  0.54797538  0.54571971  0.07024182  1
  Al  Al17  1  0.10721017  0.43406596  0.81872559  1
  Al  Al18  1  0.22015098  0.54212926  0.57367281  1
  Al  Al19  1  0.77556994  0.43175877  0.31545085  1
  Al  Al20  1  0.88894470  0.54290816  0.06197667  1
  Al  Al21  1  0.44733037  0.42877997  0.82341487  1
  Al  Al22  1  0.55547312  0.53957215  0.57336123  1
  Al  Al23  1  0.11672739  0.76112273  0.31325662  1
  Al  Al24  1  0.88018069  0.87288939  0.65209031  1
  Al  Al25  1  0.43627731  0.75984201  0.31769647  1
  Al  Al26  1  0.55182250  0.87716189  0.13225903  1
  Al  Al27  1  0.10931091  0.76367410  0.83864169  1
  Al  Al28  1  0.22084570  0.87101504  0.57674353  1
  Al  Al29  1  0.77754098  0.76495314  0.38680270  1
  Al  Al30  1  0.88722244  0.87960337  0.12114009  1
  Al  Al31  1  0.44520447  0.76007590  0.83243302  1
  Al  Al32  1  0.56584671  0.86845735  0.64656361  1
  B  B33  1  0.77031797  0.09708999  0.89583644  1
  B  B34  1  0.22591619  0.87070476  0.06685608  1
  B  B35  1  0.76875609  0.78028398  0.89964197  1
  N  N36  1  0.21820100  0.20399702  0.37992230  1
  N  N37  1  0.12942089  0.06716941  0.11978163  1
  N  N38  1  0.87424737  0.18809389  0.84297665  1
  N  N39  1  0.78234446  0.08763288  0.57473951  1
  N  N40  1  0.56122119  0.19737412  0.32866939  1
  N  N41  1  0.44727237  0.09685775  0.07846031  1
  N  N42  1  0.21793236  0.21001568  0.87846785  1
  N  N43  1  0.11614655  0.08925165  0.64110037  1
  N  N44  1  0.88730203  0.19925144  0.31807718  1
  N  N45  1  0.77232009  0.09975389  0.05468747  1
  N  N46  1  0.58373173  0.19057423  0.83475792  1
  N  N47  1  0.45155657  0.08786561  0.58261940  1
  N  N48  1  0.21943932  0.54173212  0.38265775  1
  N  N49  1  0.10835269  0.43188062  0.13102455  1
  N  N50  1  0.88153304  0.55979073  0.87369105  1
  N  N51  1  0.77590838  0.42902670  0.63568703  1
  N  N52  1  0.55603660  0.53974430  0.38324831  1
  N  N53  1  0.44201438  0.43420981  0.13350622  1
  N  N54  1  0.22540124  0.53546137  0.88410325  1
  N  N55  1  0.11234883  0.42666666  0.63103883  1
  N  N56  1  0.89201903  0.53063134  0.38023563  1
  N  N57  1  0.77305959  0.43963512  0.12360224  1
  N  N58  1  0.55490430  0.53903167  0.88526784  1
  N  N59  1  0.44284578  0.42936613  0.63187888  1
  N  N60  1  0.22067070  0.87107267  0.38801250  1
  N  N61  1  0.12731876  0.77363565  0.11914661  1
  N  N62  1  0.86352994  0.88363965  0.84724222  1
  N  N63  1  0.77837812  0.76432423  0.57622842  1
  N  N64  1  0.55966228  0.86929288  0.32252257  1
  N  N65  1  0.41632434  0.77356800  0.12343198  1
  N  N66  1  0.22607222  0.87039114  0.90553814  1
  N  N67  1  0.11324156  0.76040717  0.64515484  1
  N  N68  1  0.88415738  0.87227347  0.31425521  1
  N  N69  1  0.76915669  0.77654976  0.05897216  1
  N  N70  1  0.58394210  0.86123409  0.83954679  1
  N  N71  1  0.44116117  0.75969983  0.64013909  1
