# generated using pymatgen
data_Al11BN12
_symmetry_space_group_name_H-M   'P 1'
_cell_length_a   9.30847722
_cell_length_b   9.30690538
_cell_length_c   10.01851291
_cell_angle_alpha   89.91001304
_cell_angle_beta   89.89499334
_cell_angle_gamma   59.94775218
_symmetry_Int_Tables_number   1
_chemical_formula_structural   Al11BN12
_chemical_formula_sum   'Al33 B3 N36'
_cell_volume   751.25623631
_cell_formula_units_Z   3
loop_
 _symmetry_equiv_pos_site_id
 _symmetry_equiv_pos_as_xyz
  1  'x, y, z'
loop_
 _atom_site_type_symbol
 _atom_site_label
 _atom_site_symmetry_multiplicity
 _atom_site_fract_x
 _atom_site_fract_y
 _atom_site_fract_z
 _atom_site_occupancy
  Al  Al0  1  0.10510766  0.10228695  0.38788726  1
  Al  Al1  1  0.22267037  0.19952395  0.13820558  1
  Al  Al2  1  0.88752845  0.20144571  0.64246191  1
  Al  Al3  1  0.44640397  0.09225974  0.38678969  1
  Al  Al4  1  0.56108012  0.19702313  0.13073244  1
  Al  Al5  1  0.10661749  0.09264474  0.89247110  1
  Al  Al6  1  0.22145044  0.20629667  0.63889157  1
  Al  Al7  1  0.78010157  0.09044972  0.38420688  1
  Al  Al8  1  0.89296703  0.19741351  0.13270821  1
  Al  Al9  1  0.45505393  0.08982885  0.88836521  1
  Al  Al10  1  0.56471835  0.19578818  0.63826803  1
  Al  Al11  1  0.10649750  0.42782509  0.38597971  1
  Al  Al12  1  0.22520601  0.54449094  0.06697023  1
  Al  Al13  1  0.78174510  0.42433893  0.88865595  1
  Al  Al14  1  0.88773573  0.54459502  0.64109953  1
  Al  Al15  1  0.44070898  0.43055851  0.31675998  1
  Al  Al16  1  0.55449886  0.54180270  0.11188442  1
  Al  Al17  1  0.10362988  0.42849105  0.88805579  1
  Al  Al18  1  0.22330351  0.54522816  0.57135493  1
  Al  Al19  1  0.77458001  0.43014386  0.38696089  1
  Al  Al20  1  0.88812779  0.54049429  0.13357887  1
  Al  Al21  1  0.44646497  0.42172790  0.82934233  1
  Al  Al22  1  0.55899049  0.53883417  0.63712259  1
  Al  Al23  1  0.11647692  0.76480343  0.30897294  1
  Al  Al24  1  0.87931605  0.87681106  0.64705566  1
  Al  Al25  1  0.43273250  0.76870725  0.31224695  1
  Al  Al26  1  0.55489251  0.87560685  0.12507378  1
  Al  Al27  1  0.10956736  0.76157956  0.83144658  1
  Al  Al28  1  0.22351116  0.86832703  0.57288788  1
  Al  Al29  1  0.77779082  0.76344491  0.38262371  1
  Al  Al30  1  0.88862614  0.87536021  0.11525435  1
  Al  Al31  1  0.44662546  0.76323718  0.83691448  1
  Al  Al32  1  0.56398805  0.87298997  0.64264419  1
  B  B33  1  0.77148509  0.09085887  0.89351689  1
  B  B34  1  0.22617783  0.86697404  0.05836718  1
  B  B35  1  0.77210652  0.77109671  0.89435649  1
  N  N36  1  0.22315058  0.20534411  0.32819626  1
  N  N37  1  0.12094506  0.07433004  0.08341011  1
  N  N38  1  0.88000022  0.18780532  0.83421362  1
  N  N39  1  0.78146703  0.09027493  0.57330640  1
  N  N40  1  0.55998762  0.19829124  0.32483393  1
  N  N41  1  0.44221642  0.09671272  0.07442637  1
  N  N42  1  0.22377964  0.20162898  0.82928995  1
  N  N43  1  0.10591045  0.10188498  0.58157211  1
  N  N44  1  0.88615853  0.20607427  0.32375224  1
  N  N45  1  0.77626312  0.09630304  0.05374416  1
  N  N46  1  0.58512608  0.18581023  0.83469989  1
  N  N47  1  0.44598986  0.09300440  0.57931265  1
  N  N48  1  0.22158715  0.54655261  0.37678487  1
  N  N49  1  0.10921964  0.42397781  0.08061795  1
  N  N50  1  0.87794481  0.56299710  0.83257191  1
  N  N51  1  0.77962512  0.42718578  0.58171615  1
  N  N52  1  0.55736696  0.54191267  0.33006656  1
  N  N53  1  0.44194267  0.42652808  0.11986680  1
  N  N54  1  0.22462323  0.53764532  0.87809714  1
  N  N55  1  0.10749547  0.42740535  0.57990747  1
  N  N56  1  0.88659984  0.54133480  0.32412403  1
  N  N57  1  0.78392198  0.42314466  0.07655626  1
  N  N58  1  0.56048667  0.53486910  0.84759763  1
  N  N59  1  0.44154363  0.42646021  0.63133713  1
  N  N60  1  0.22190706  0.86985364  0.38307828  1
  N  N61  1  0.12829615  0.77338593  0.11522073  1
  N  N62  1  0.86463520  0.88298589  0.84474401  1
  N  N63  1  0.77922374  0.76309689  0.57281979  1
  N  N64  1  0.55833762  0.87419879  0.31904011  1
  N  N65  1  0.41556044  0.77786752  0.11261230  1
  N  N66  1  0.22784516  0.86147277  0.89746185  1
  N  N67  1  0.11201961  0.76281496  0.63975924  1
  N  N68  1  0.88342761  0.87453693  0.31119558  1
  N  N69  1  0.77774713  0.76000556  0.05496492  1
  N  N70  1  0.58515029  0.86180550  0.83876751  1
  N  N71  1  0.43804947  0.76895281  0.63928121  1
