# generated using pymatgen
data_Al11BN12
_symmetry_space_group_name_H-M   'P 1'
_cell_length_a   9.29142689
_cell_length_b   9.27079008
_cell_length_c   10.00568034
_cell_angle_alpha   89.69996303
_cell_angle_beta   89.62065542
_cell_angle_gamma   59.99637383
_symmetry_Int_Tables_number   1
_chemical_formula_structural   Al11BN12
_chemical_formula_sum   'Al33 B3 N36'
_cell_volume   746.36274668
_cell_formula_units_Z   3
loop_
 _symmetry_equiv_pos_site_id
 _symmetry_equiv_pos_as_xyz
  1  'x, y, z'
loop_
 _atom_site_type_symbol
 _atom_site_label
 _atom_site_symmetry_multiplicity
 _atom_site_fract_x
 _atom_site_fract_y
 _atom_site_fract_z
 _atom_site_occupancy
  Al  Al0  1  0.10729564  0.09717072  0.40185345  1
  Al  Al1  1  0.22459246  0.19823361  0.14711484  1
  Al  Al2  1  0.88517223  0.20333287  0.65269392  1
  Al  Al3  1  0.44540684  0.09240935  0.39778114  1
  Al  Al4  1  0.55860572  0.20248837  0.14442079  1
  Al  Al5  1  0.11046763  0.08650933  0.89254192  1
  Al  Al6  1  0.22054411  0.20785918  0.65023413  1
  Al  Al7  1  0.78208918  0.08870985  0.39377114  1
  Al  Al8  1  0.89157585  0.19757555  0.13948907  1
  Al  Al9  1  0.45448212  0.08999314  0.89806560  1
  Al  Al10  1  0.55974751  0.20365104  0.64982059  1
  Al  Al11  1  0.10597213  0.42557585  0.39212157  1
  Al  Al12  1  0.22450598  0.54574912  0.08114245  1
  Al  Al13  1  0.77757801  0.42838450  0.89748550  1
  Al  Al14  1  0.88573301  0.54487166  0.64974766  1
  Al  Al15  1  0.45195672  0.42310938  0.39429887  1
  Al  Al16  1  0.55110605  0.54261974  0.14840275  1
  Al  Al17  1  0.10388490  0.43177337  0.89703699  1
  Al  Al18  1  0.21554372  0.54726624  0.57765202  1
  Al  Al19  1  0.77884604  0.42625688  0.39700238  1
  Al  Al20  1  0.88597503  0.54139630  0.14219121  1
  Al  Al21  1  0.45923685  0.41863732  0.89758893  1
  Al  Al22  1  0.55678280  0.53812204  0.64953775  1
  Al  Al23  1  0.11890770  0.76451794  0.32307508  1
  Al  Al24  1  0.87404178  0.87866650  0.65531634  1
  Al  Al25  1  0.44803100  0.76031697  0.40215059  1
  Al  Al26  1  0.55047388  0.87382540  0.14215324  1
  Al  Al27  1  0.11101883  0.76048465  0.83161590  1
  Al  Al28  1  0.22106535  0.87280484  0.61442939  1
  Al  Al29  1  0.77924513  0.76288746  0.39285699  1
  Al  Al30  1  0.88640119  0.87677160  0.12459227  1
  Al  Al31  1  0.44646088  0.76144858  0.89304893  1
  Al  Al32  1  0.56134065  0.86949728  0.65288734  1
  B  B33  1  0.77205854  0.09160639  0.90249159  1
  B  B34  1  0.22484509  0.87205165  0.10157066  1
  B  B35  1  0.77067961  0.77052859  0.90295989  1
  N  N36  1  0.22293254  0.20247932  0.33647482  1
  N  N37  1  0.12705063  0.06354216  0.08880196  1
  N  N38  1  0.87763242  0.19062784  0.84600787  1
  N  N39  1  0.77855299  0.09267349  0.58310911  1
  N  N40  1  0.55906902  0.20154296  0.33452089  1
  N  N41  1  0.44442525  0.09532487  0.08618457  1
  N  N42  1  0.22250442  0.20589225  0.84113342  1
  N  N43  1  0.10348229  0.10576868  0.59299951  1
  N  N44  1  0.88902541  0.20384338  0.33084585  1
  N  N45  1  0.77501712  0.09672653  0.06352842  1
  N  N46  1  0.58189553  0.19137779  0.84308871  1
  N  N47  1  0.44529451  0.09384376  0.59141330  1
  N  N48  1  0.21998400  0.54332172  0.37717202  1
  N  N49  1  0.10869454  0.42440535  0.09068599  1
  N  N50  1  0.87696263  0.56537714  0.84260235  1
  N  N51  1  0.77929571  0.42645417  0.59013556  1
  N  N52  1  0.55683852  0.54013826  0.33683977  1
  N  N53  1  0.45370002  0.42292268  0.08997682  1
  N  N54  1  0.22569783  0.54029782  0.88618397  1
  N  N55  1  0.10538818  0.42659449  0.58727800  1
  N  N56  1  0.88540079  0.54124221  0.33250010  1
  N  N57  1  0.77756599  0.42718941  0.08645368  1
  N  N58  1  0.55859799  0.53828719  0.83879807  1
  N  N59  1  0.44894460  0.42493611  0.58932477  1
  N  N60  1  0.22021467  0.86981188  0.39379659  1
  N  N61  1  0.13143078  0.77741798  0.12395892  1
  N  N62  1  0.86289765  0.88541957  0.85394097  1
  N  N63  1  0.77728796  0.76360203  0.58225020  1
  N  N64  1  0.55658447  0.87089430  0.33218445  1
  N  N65  1  0.41662543  0.77518630  0.08886910  1
  N  N66  1  0.23013446  0.87246278  0.83277428  1
  N  N67  1  0.10301341  0.75946782  0.64076652  1
  N  N68  1  0.88432091  0.87355218  0.31898892  1
  N  N69  1  0.77456979  0.76137846  0.06502275  1
  N  N70  1  0.58112378  0.85987518  0.84693114  1
  N  N71  1  0.45503976  0.75791779  0.59288395  1
