# generated using pymatgen
data_Al11BN12
_symmetry_space_group_name_H-M   'P 1'
_cell_length_a   9.25981128
_cell_length_b   9.25939774
_cell_length_c   9.89631218
_cell_angle_alpha   90.00327695
_cell_angle_beta   90.11580814
_cell_angle_gamma   59.98663002
_symmetry_Int_Tables_number   1
_chemical_formula_structural   Al11BN12
_chemical_formula_sum   'Al33 B3 N36'
_cell_volume   734.73244244
_cell_formula_units_Z   3
loop_
 _symmetry_equiv_pos_site_id
 _symmetry_equiv_pos_as_xyz
  1  'x, y, z'
loop_
 _atom_site_type_symbol
 _atom_site_label
 _atom_site_symmetry_multiplicity
 _atom_site_fract_x
 _atom_site_fract_y
 _atom_site_fract_z
 _atom_site_occupancy
  Al  Al0  1  0.11106598  0.09212439  0.40235667  1
  Al  Al1  1  0.22370246  0.20059243  0.15945021  1
  Al  Al2  1  0.88912632  0.20055138  0.66354492  1
  Al  Al3  1  0.44642213  0.09332330  0.41029997  1
  Al  Al4  1  0.55751420  0.20437721  0.15500010  1
  Al  Al5  1  0.11092276  0.08670078  0.91449031  1
  Al  Al6  1  0.22125094  0.20458511  0.65954988  1
  Al  Al7  1  0.77902309  0.09212142  0.40779928  1
  Al  Al8  1  0.89097613  0.19913960  0.15288492  1
  Al  Al9  1  0.45504287  0.08894825  0.90984934  1
  Al  Al10  1  0.56255423  0.20166654  0.66388679  1
  Al  Al11  1  0.11002363  0.42859054  0.40926205  1
  Al  Al12  1  0.22413630  0.54290401  0.15981907  1
  Al  Al13  1  0.77628476  0.42872669  0.90915286  1
  Al  Al14  1  0.88701865  0.54469120  0.66394432  1
  Al  Al15  1  0.44587194  0.42575804  0.41020448  1
  Al  Al16  1  0.55104843  0.54220992  0.16059088  1
  Al  Al17  1  0.10774684  0.43365202  0.91027377  1
  Al  Al18  1  0.22185180  0.54051536  0.65909020  1
  Al  Al19  1  0.77986850  0.42636627  0.40933861  1
  Al  Al20  1  0.88735724  0.54160329  0.15389138  1
  Al  Al21  1  0.45043738  0.42402982  0.90983581  1
  Al  Al22  1  0.55577937  0.54000351  0.65898577  1
  Al  Al23  1  0.10927665  0.76402722  0.40181467  1
  Al  Al24  1  0.88610950  0.87377613  0.66790298  1
  Al  Al25  1  0.44305842  0.76288762  0.40291077  1
  Al  Al26  1  0.55180187  0.87308789  0.15474176  1
  Al  Al27  1  0.10874777  0.76663878  0.91335380  1
  Al  Al28  1  0.22259849  0.87201567  0.65734384  1
  Al  Al29  1  0.77862490  0.76241152  0.40752321  1
  Al  Al30  1  0.89018684  0.87461248  0.14580527  1
  Al  Al31  1  0.44451798  0.76166505  0.91427378  1
  Al  Al32  1  0.56109167  0.86835425  0.66354787  1
  B  B33  1  0.77264522  0.09255224  0.91627381  1
  B  B34  1  0.22223591  0.87190612  0.16277021  1
  B  B35  1  0.77215662  0.76639030  0.91643407  1
  N  N36  1  0.22317309  0.20532533  0.35109221  1
  N  N37  1  0.12413532  0.06858399  0.10777472  1
  N  N38  1  0.87965005  0.19034415  0.85898328  1
  N  N39  1  0.78005375  0.09131569  0.59798115  1
  N  N40  1  0.55730648  0.20415133  0.34746235  1
  N  N41  1  0.44412185  0.09517481  0.09905018  1
  N  N42  1  0.22094504  0.20454796  0.85301119  1
  N  N43  1  0.11028222  0.09349200  0.59634872  1
  N  N44  1  0.88719234  0.20471371  0.34518941  1
  N  N45  1  0.77559444  0.09550640  0.07834013  1
  N  N46  1  0.58170835  0.19237227  0.85769776  1
  N  N47  1  0.44670815  0.09305655  0.60502014  1
  N  N48  1  0.22297678  0.53856932  0.35108249  1
  N  N49  1  0.11213613  0.42795459  0.10110571  1
  N  N50  1  0.87691124  0.56533941  0.85785488  1
  N  N51  1  0.78128743  0.42578350  0.60434752  1
  N  N52  1  0.55649777  0.53782863  0.35165610  1
  N  N53  1  0.44511094  0.42753198  0.10002861  1
  N  N54  1  0.22344690  0.54055633  0.85173044  1
  N  N55  1  0.10963458  0.42860893  0.60235958  1
  N  N56  1  0.88775268  0.54073223  0.34664340  1
  N  N57  1  0.77700585  0.42762917  0.09960897  1
  N  N58  1  0.55495369  0.54105186  0.85065762  1
  N  N59  1  0.44632581  0.42498346  0.60287969  1
  N  N60  1  0.22250984  0.87167871  0.32933589  1
  N  N61  1  0.12458105  0.77350465  0.10630555  1
  N  N62  1  0.86934629  0.88213849  0.86528714  1
  N  N63  1  0.77921630  0.76281378  0.59803237  1
  N  N64  1  0.55734011  0.87209930  0.34626862  1
  N  N65  1  0.41977435  0.77307042  0.10758220  1
  N  N66  1  0.22488850  0.87062594  0.84644422  1
  N  N67  1  0.10824596  0.76380659  0.59740727  1
  N  N68  1  0.88661562  0.87329521  0.33920830  1
  N  N69  1  0.77549581  0.76228106  0.07947082  1
  N  N70  1  0.57996749  0.85806986  0.85946724  1
  N  N71  1  0.44466779  0.76286708  0.59682384  1
