# generated using pymatgen
data_Al11BN12
_symmetry_space_group_name_H-M   'P 1'
_cell_length_a   9.25920366
_cell_length_b   9.25652835
_cell_length_c   9.90846755
_cell_angle_alpha   89.85860291
_cell_angle_beta   89.92690488
_cell_angle_gamma   60.03239131
_symmetry_Int_Tables_number   1
_chemical_formula_structural   Al11BN12
_chemical_formula_sum   'Al33 B3 N36'
_cell_volume   735.69741834
_cell_formula_units_Z   3
loop_
 _symmetry_equiv_pos_site_id
 _symmetry_equiv_pos_as_xyz
  1  'x, y, z'
loop_
 _atom_site_type_symbol
 _atom_site_label
 _atom_site_symmetry_multiplicity
 _atom_site_fract_x
 _atom_site_fract_y
 _atom_site_fract_z
 _atom_site_occupancy
  Al  Al0  1  0.11082876  0.09254364  0.39249565  1
  Al  Al1  1  0.22338382  0.19961654  0.14741076  1
  Al  Al2  1  0.88782727  0.20134007  0.65146833  1
  Al  Al3  1  0.44587247  0.09345634  0.39795906  1
  Al  Al4  1  0.55746570  0.20394388  0.14335646  1
  Al  Al5  1  0.11073844  0.08657022  0.89996951  1
  Al  Al6  1  0.22111258  0.20554620  0.64791165  1
  Al  Al7  1  0.77921341  0.09209881  0.39485099  1
  Al  Al8  1  0.89154245  0.19825897  0.14067476  1
  Al  Al9  1  0.45497815  0.08904734  0.89809685  1
  Al  Al10  1  0.56194255  0.20213923  0.65101289  1
  Al  Al11  1  0.10995695  0.42915540  0.39638326  1
  Al  Al12  1  0.22408507  0.54298790  0.14607177  1
  Al  Al13  1  0.77661852  0.42859801  0.89733862  1
  Al  Al14  1  0.88685711  0.54498284  0.65105484  1
  Al  Al15  1  0.44524864  0.42664391  0.39736492  1
  Al  Al16  1  0.55057630  0.54256501  0.14833489  1
  Al  Al17  1  0.10749972  0.43319547  0.89838290  1
  Al  Al18  1  0.22196004  0.53985416  0.64720054  1
  Al  Al19  1  0.77964069  0.42668821  0.39685659  1
  Al  Al20  1  0.88714618  0.54148398  0.14188800  1
  Al  Al21  1  0.45125767  0.42307851  0.89803860  1
  Al  Al22  1  0.55615806  0.53940458  0.64720681  1
  Al  Al23  1  0.10911150  0.76456141  0.38970112  1
  Al  Al24  1  0.88469242  0.87435006  0.65547808  1
  Al  Al25  1  0.44302092  0.76308984  0.39284273  1
  Al  Al26  1  0.55100854  0.87285551  0.14249797  1
  Al  Al27  1  0.10896855  0.76590462  0.89708401  1
  Al  Al28  1  0.22245158  0.87228016  0.64379826  1
  Al  Al29  1  0.77849986  0.76304383  0.39435110  1
  Al  Al30  1  0.89066743  0.87431214  0.13134865  1
  Al  Al31  1  0.44506244  0.76129641  0.89985456  1
  Al  Al32  1  0.56128779  0.86893017  0.65159259  1
  B  B33  1  0.77199348  0.09356279  0.90375971  1
  B  B34  1  0.22240365  0.87154420  0.14395891  1
  B  B35  1  0.77198557  0.76688708  0.90390481  1
  N  N36  1  0.22267194  0.20561747  0.33886768  1
  N  N37  1  0.12456654  0.06719387  0.09322761  1
  N  N38  1  0.87893704  0.19038456  0.84647128  1
  N  N39  1  0.77961340  0.09168065  0.58510505  1
  N  N40  1  0.55717061  0.20446464  0.33541899  1
  N  N41  1  0.44392035  0.09504014  0.08709641  1
  N  N42  1  0.22133552  0.20468500  0.84088801  1
  N  N43  1  0.10936106  0.09513402  0.58610282  1
  N  N44  1  0.88781037  0.20490908  0.33286872  1
  N  N45  1  0.77515389  0.09581800  0.06560954  1
  N  N46  1  0.58171055  0.19227843  0.84497987  1
  N  N47  1  0.44624776  0.09340641  0.59258835  1
  N  N48  1  0.22266081  0.53942314  0.33741589  1
  N  N49  1  0.11191439  0.42733526  0.08886573  1
  N  N50  1  0.87719460  0.56507017  0.84501420  1
  N  N51  1  0.78107184  0.42606730  0.59167739  1
  N  N52  1  0.55640346  0.53868739  0.33921168  1
  N  N53  1  0.44567522  0.42692351  0.08786280  1
  N  N54  1  0.22472323  0.53860546  0.83949407  1
  N  N55  1  0.10956067  0.42893391  0.58946117  1
  N  N56  1  0.88767977  0.54118623  0.33426903  1
  N  N57  1  0.77714131  0.42723156  0.08756477  1
  N  N58  1  0.55580709  0.54004278  0.83848840  1
  N  N59  1  0.44602214  0.42550551  0.59003594  1
  N  N60  1  0.22276432  0.87228512  0.32127050  1
  N  N61  1  0.12528461  0.77349393  0.09051067  1
  N  N62  1  0.86863696  0.88181926  0.85260529  1
  N  N63  1  0.77878398  0.76324386  0.58489685  1
  N  N64  1  0.55706603  0.87214156  0.33385903  1
  N  N65  1  0.41881039  0.77329681  0.09308828  1
  N  N66  1  0.22557401  0.87053612  0.83239800  1
  N  N67  1  0.10731692  0.76358516  0.58690278  1
  N  N68  1  0.88699355  0.87356084  0.32516570  1
  N  N69  1  0.77503394  0.76203101  0.06681323  1
  N  N70  1  0.58024263  0.85848105  0.84702804  1
  N  N71  1  0.44579964  0.76247765  0.58634531  1
