# generated using pymatgen
data_Al11BN12
_symmetry_space_group_name_H-M   'P 1'
_cell_length_a   9.29421128
_cell_length_b   9.27285748
_cell_length_c   10.05636924
_cell_angle_alpha   89.91198801
_cell_angle_beta   89.93306428
_cell_angle_gamma   59.98916233
_symmetry_Int_Tables_number   1
_chemical_formula_structural   Al11BN12
_chemical_formula_sum   'Al33 B3 N36'
_cell_volume   750.49874630
_cell_formula_units_Z   3
loop_
 _symmetry_equiv_pos_site_id
 _symmetry_equiv_pos_as_xyz
  1  'x, y, z'
loop_
 _atom_site_type_symbol
 _atom_site_label
 _atom_site_symmetry_multiplicity
 _atom_site_fract_x
 _atom_site_fract_y
 _atom_site_fract_z
 _atom_site_occupancy
  Al  Al0  1  0.10586532  0.10138890  0.38828406  1
  Al  Al1  1  0.22299679  0.19927932  0.13861554  1
  Al  Al2  1  0.88704478  0.20232307  0.64336295  1
  Al  Al3  1  0.44648090  0.09161846  0.38720191  1
  Al  Al4  1  0.56064375  0.19922675  0.13265787  1
  Al  Al5  1  0.10785506  0.09173403  0.89332162  1
  Al  Al6  1  0.22143865  0.20616041  0.63954957  1
  Al  Al7  1  0.78008040  0.08996644  0.38482605  1
  Al  Al8  1  0.89261177  0.19794028  0.13254559  1
  Al  Al9  1  0.45544617  0.09006850  0.88856477  1
  Al  Al10  1  0.56477049  0.19628678  0.63833912  1
  Al  Al11  1  0.10703015  0.42770682  0.38653514  1
  Al  Al12  1  0.22736134  0.54336913  0.06830650  1
  Al  Al13  1  0.78396562  0.42347384  0.88753977  1
  Al  Al14  1  0.88708472  0.54404458  0.64201091  1
  Al  Al15  1  0.44207542  0.43268124  0.31944021  1
  Al  Al16  1  0.54732803  0.54487631  0.06840136  1
  Al  Al17  1  0.10499572  0.42840221  0.88872697  1
  Al  Al18  1  0.22194587  0.54561783  0.57214525  1
  Al  Al19  1  0.78200579  0.42601603  0.38705740  1
  Al  Al20  1  0.88786380  0.54060244  0.13329667  1
  Al  Al21  1  0.44880020  0.42675880  0.82205311  1
  Al  Al22  1  0.54942432  0.54435438  0.57315905  1
  Al  Al23  1  0.11606350  0.76486203  0.30882080  1
  Al  Al24  1  0.87898076  0.87693590  0.64802536  1
  Al  Al25  1  0.43442051  0.76372112  0.31293797  1
  Al  Al26  1  0.55467528  0.87476754  0.12648362  1
  Al  Al27  1  0.11007448  0.76137216  0.83273794  1
  Al  Al28  1  0.22252747  0.86872850  0.57340744  1
  Al  Al29  1  0.77785391  0.76353608  0.38307668  1
  Al  Al30  1  0.88778908  0.87581531  0.11514264  1
  Al  Al31  1  0.44817842  0.75793079  0.82928383  1
  Al  Al32  1  0.56423352  0.87207603  0.64250879  1
  B  B33  1  0.77076362  0.09178885  0.89337891  1
  B  B34  1  0.22672169  0.86609155  0.05997703  1
  B  B35  1  0.77154929  0.77102245  0.89411701  1
  N  N36  1  0.22321293  0.20514675  0.32808347  1
  N  N37  1  0.12153322  0.07347645  0.08366280  1
  N  N38  1  0.88031763  0.18773725  0.83453493  1
  N  N39  1  0.78148689  0.09043638  0.57331344  1
  N  N40  1  0.55995648  0.19853927  0.32593151  1
  N  N41  1  0.44273225  0.09712985  0.07462552  1
  N  N42  1  0.22386876  0.20158662  0.82932791  1
  N  N43  1  0.10589111  0.10173798  0.58167402  1
  N  N44  1  0.88664050  0.20502099  0.32307876  1
  N  N45  1  0.77505589  0.09744796  0.05352446  1
  N  N46  1  0.58453180  0.18792668  0.83381009  1
  N  N47  1  0.44580553  0.09288923  0.57925928  1
  N  N48  1  0.22118352  0.54694112  0.37807092  1
  N  N49  1  0.10985641  0.42416129  0.08075007  1
  N  N50  1  0.87831217  0.56318156  0.83285537  1
  N  N51  1  0.78288349  0.42534526  0.58321085  1
  N  N52  1  0.54914414  0.54538767  0.37980840  1
  N  N53  1  0.44359078  0.43179309  0.12915786  1
  N  N54  1  0.22806170  0.53611686  0.87922628  1
  N  N55  1  0.10722858  0.42732536  0.58014265  1
  N  N56  1  0.88693328  0.54144530  0.32334632  1
  N  N57  1  0.78397981  0.42331232  0.07899963  1
  N  N58  1  0.55450200  0.53803193  0.87951812  1
  N  N59  1  0.44282883  0.42940014  0.63116733  1
  N  N60  1  0.22208214  0.86915993  0.38384665  1
  N  N61  1  0.12755691  0.77357056  0.11535888  1
  N  N62  1  0.86426340  0.88329625  0.84497656  1
  N  N63  1  0.77934795  0.76276510  0.57268793  1
  N  N64  1  0.55853999  0.87253351  0.31958642  1
  N  N65  1  0.41678201  0.77387709  0.11875469  1
  N  N66  1  0.23080363  0.86004014  0.89826131  1
  N  N67  1  0.11167409  0.76293515  0.64142000  1
  N  N68  1  0.88306538  0.87456935  0.31073292  1
  N  N69  1  0.77682412  0.76036426  0.05454002  1
  N  N70  1  0.58441061  0.86111728  0.83760057  1
  N  N71  1  0.44020138  0.76345306  0.63837596  1
