# generated using pymatgen
data_Al11BN12
_symmetry_space_group_name_H-M   'P 1'
_cell_length_a   9.29003428
_cell_length_b   9.32082578
_cell_length_c   10.05645032
_cell_angle_alpha   90.07300283
_cell_angle_beta   89.80270585
_cell_angle_gamma   60.09928140
_symmetry_Int_Tables_number   1
_chemical_formula_structural   Al11BN12
_chemical_formula_sum   'Al33 B3 N36'
_cell_volume   754.87579861
_cell_formula_units_Z   3
loop_
 _symmetry_equiv_pos_site_id
 _symmetry_equiv_pos_as_xyz
  1  'x, y, z'
loop_
 _atom_site_type_symbol
 _atom_site_label
 _atom_site_symmetry_multiplicity
 _atom_site_fract_x
 _atom_site_fract_y
 _atom_site_fract_z
 _atom_site_occupancy
  Al  Al0  1  0.11496764  0.08823829  0.31730112  1
  Al  Al1  1  0.22179614  0.20219970  0.06922168  1
  Al  Al2  1  0.89386759  0.20534791  0.57280080  1
  Al  Al3  1  0.44311098  0.09799161  0.31856310  1
  Al  Al4  1  0.54916610  0.21164973  0.07065281  1
  Al  Al5  1  0.10932440  0.08892068  0.82827614  1
  Al  Al6  1  0.22345251  0.20269699  0.57129343  1
  Al  Al7  1  0.78352476  0.08469493  0.38820411  1
  Al  Al8  1  0.89587213  0.20316953  0.06914990  1
  Al  Al9  1  0.45297472  0.09787148  0.82504235  1
  Al  Al10  1  0.54969829  0.21033656  0.57210288  1
  Al  Al11  1  0.10993823  0.42790403  0.32218293  1
  Al  Al12  1  0.22439966  0.54033284  0.07205521  1
  Al  Al13  1  0.77938060  0.41593242  0.82043228  1
  Al  Al14  1  0.89266804  0.53215300  0.57744631  1
  Al  Al15  1  0.44410616  0.42814964  0.32316442  1
  Al  Al16  1  0.55188289  0.54074485  0.07140745  1
  Al  Al17  1  0.11378335  0.42109770  0.82028323  1
  Al  Al18  1  0.21656797  0.54573631  0.57601129  1
  Al  Al19  1  0.77926708  0.42787143  0.32015334  1
  Al  Al20  1  0.89168799  0.53441728  0.05585089  1
  Al  Al21  1  0.44968988  0.42555609  0.82125768  1
  Al  Al22  1  0.55443389  0.54082086  0.57277028  1
  Al  Al23  1  0.12050958  0.75949704  0.31631329  1
  Al  Al24  1  0.87306183  0.88316953  0.65823795  1
  Al  Al25  1  0.43803128  0.75962446  0.31824863  1
  Al  Al26  1  0.55204990  0.87249702  0.12069611  1
  Al  Al27  1  0.11039203  0.76118585  0.84214905  1
  Al  Al28  1  0.21869586  0.87171404  0.57885135  1
  Al  Al29  1  0.77853866  0.76393712  0.38973401  1
  Al  Al30  1  0.89148019  0.87629523  0.12998606  1
  Al  Al31  1  0.45031011  0.75884501  0.83736553  1
  Al  Al32  1  0.56144017  0.86858552  0.62918938  1
  B  B33  1  0.77417661  0.09439278  0.90834226  1
  B  B34  1  0.22499233  0.86926058  0.06721479  1
  B  B35  1  0.74719613  0.82402903  0.91279362  1
  N  N36  1  0.22282423  0.20276075  0.38045329  1
  N  N37  1  0.12423136  0.06935257  0.12463226  1
  N  N38  1  0.87893144  0.18705526  0.87705253  1
  N  N39  1  0.78089414  0.08798477  0.58049558  1
  N  N40  1  0.55017949  0.20835682  0.37980184  1
  N  N41  1  0.44007167  0.10262090  0.12823555  1
  N  N42  1  0.23001732  0.19691867  0.88116860  1
  N  N43  1  0.11287156  0.09274886  0.63749564  1
  N  N44  1  0.89436992  0.20582913  0.37654166  1
  N  N45  1  0.77861466  0.09061836  0.07152753  1
  N  N46  1  0.57373002  0.20122825  0.87984953  1
  N  N47  1  0.44380145  0.09728633  0.63351578  1
  N  N48  1  0.21948730  0.54305007  0.38342618  1
  N  N49  1  0.10889161  0.43034885  0.13208547  1
  N  N50  1  0.90059042  0.51005354  0.87511634  1
  N  N51  1  0.77566811  0.42550415  0.63092812  1
  N  N52  1  0.55471984  0.54067079  0.38184153  1
  N  N53  1  0.44446872  0.42849652  0.13444108  1
  N  N54  1  0.22502599  0.53312246  0.88427689  1
  N  N55  1  0.11528594  0.42439230  0.63073372  1
  N  N56  1  0.89214655  0.53236908  0.38387708  1
  N  N57  1  0.77740289  0.43003479  0.13056498  1
  N  N58  1  0.55801226  0.53602521  0.88409746  1
  N  N59  1  0.44189987  0.43074592  0.63203076  1
  N  N60  1  0.22157042  0.87145693  0.38918824  1
  N  N61  1  0.13007102  0.77070242  0.12057600  1
  N  N62  1  0.85431855  0.89578371  0.85387579  1
  N  N63  1  0.77954581  0.76589895  0.58100864  1
  N  N64  1  0.56143600  0.86620090  0.32864029  1
  N  N65  1  0.41733856  0.77095214  0.12229201  1
  N  N66  1  0.22524101  0.87092107  0.90536172  1
  N  N67  1  0.10853749  0.76372635  0.64933323  1
  N  N68  1  0.88672376  0.87082581  0.31892290  1
  N  N69  1  0.77576835  0.77325021  0.05896076  1
  N  N70  1  0.58081788  0.86728989  0.85727482  1
  N  N71  1  0.44094843  0.76059505  0.64225392  1
