# generated using pymatgen
data_Al11BN12
_symmetry_space_group_name_H-M   'P 1'
_cell_length_a   9.30059416
_cell_length_b   9.27345005
_cell_length_c   10.06788079
_cell_angle_alpha   90.10485658
_cell_angle_beta   90.15531474
_cell_angle_gamma   60.00119992
_symmetry_Int_Tables_number   1
_chemical_formula_structural   Al11BN12
_chemical_formula_sum   'Al33 B3 N36'
_cell_volume   752.01121543
_cell_formula_units_Z   3
loop_
 _symmetry_equiv_pos_site_id
 _symmetry_equiv_pos_as_xyz
  1  'x, y, z'
loop_
 _atom_site_type_symbol
 _atom_site_label
 _atom_site_symmetry_multiplicity
 _atom_site_fract_x
 _atom_site_fract_y
 _atom_site_fract_z
 _atom_site_occupancy
  Al  Al0  1  0.11278223  0.08877215  0.31333461  1
  Al  Al1  1  0.21711034  0.20639637  0.06966064  1
  Al  Al2  1  0.88767484  0.19974156  0.62572013  1
  Al  Al3  1  0.45234832  0.08732322  0.38964041  1
  Al  Al4  1  0.55958414  0.20129809  0.13890706  1
  Al  Al5  1  0.11482770  0.08808157  0.83179079  1
  Al  Al6  1  0.21697421  0.20449098  0.57196335  1
  Al  Al7  1  0.78304208  0.08962844  0.38897552  1
  Al  Al8  1  0.89199749  0.20212419  0.07394318  1
  Al  Al9  1  0.46018463  0.08935962  0.89134818  1
  Al  Al10  1  0.56357515  0.19542509  0.64179107  1
  Al  Al11  1  0.11084932  0.42641579  0.32045194  1
  Al  Al12  1  0.22502763  0.54214685  0.07096413  1
  Al  Al13  1  0.77383542  0.43662109  0.82610960  1
  Al  Al14  1  0.89191608  0.53064609  0.56969758  1
  Al  Al15  1  0.44257589  0.43162278  0.32474380  1
  Al  Al16  1  0.54826716  0.54534626  0.07109862  1
  Al  Al17  1  0.10710958  0.43449537  0.81892114  1
  Al  Al18  1  0.22004825  0.54187174  0.57390706  1
  Al  Al19  1  0.77901643  0.42547418  0.31511132  1
  Al  Al20  1  0.88905461  0.54253529  0.06349363  1
  Al  Al21  1  0.44773922  0.42881542  0.82413872  1
  Al  Al22  1  0.55475766  0.53986100  0.57248334  1
  Al  Al23  1  0.11723633  0.76149912  0.31402952  1
  Al  Al24  1  0.87993997  0.87235380  0.65306453  1
  Al  Al25  1  0.43627915  0.76048778  0.31799648  1
  Al  Al26  1  0.55156378  0.87725295  0.13259941  1
  Al  Al27  1  0.10970054  0.76396392  0.83926266  1
  Al  Al28  1  0.22102237  0.87009523  0.57582193  1
  Al  Al29  1  0.77754733  0.76496094  0.38656529  1
  Al  Al30  1  0.88725757  0.87884117  0.12385679  1
  Al  Al31  1  0.44531186  0.75993726  0.83286467  1
  Al  Al32  1  0.56559818  0.86826781  0.64651581  1
  B  B33  1  0.76722857  0.09057627  0.89784928  1
  B  B34  1  0.22525966  0.87095623  0.06666427  1
  B  B35  1  0.76871185  0.77841980  0.90071971  1
  N  N36  1  0.21889620  0.20359102  0.37833827  1
  N  N37  1  0.12517277  0.06930137  0.11902294  1
  N  N38  1  0.87903152  0.19373627  0.86251208  1
  N  N39  1  0.78070895  0.08610123  0.57902934  1
  N  N40  1  0.56111955  0.19771724  0.33016079  1
  N  N41  1  0.44675478  0.09690488  0.07943037  1
  N  N42  1  0.21825050  0.21045092  0.87851607  1
  N  N43  1  0.11628589  0.08886431  0.64112015  1
  N  N44  1  0.89018749  0.20209416  0.34744388  1
  N  N45  1  0.76883741  0.09568903  0.05623014  1
  N  N46  1  0.58400408  0.18999058  0.83560253  1
  N  N47  1  0.45091407  0.08773890  0.58325119  1
  N  N48  1  0.21967312  0.54183474  0.38272359  1
  N  N49  1  0.10873480  0.43215525  0.13073011  1
  N  N50  1  0.88112249  0.56148350  0.87395565  1
  N  N51  1  0.77534657  0.42983268  0.63638242  1
  N  N52  1  0.55664122  0.54017827  0.38218692  1
  N  N53  1  0.44224889  0.43396139  0.13345111  1
  N  N54  1  0.22556376  0.53570143  0.88389720  1
  N  N55  1  0.11193888  0.42646091  0.63065856  1
  N  N56  1  0.89138110  0.53159040  0.37849231  1
  N  N57  1  0.77594890  0.43395937  0.12247762  1
  N  N58  1  0.55547579  0.53901391  0.88534992  1
  N  N59  1  0.44310007  0.42909737  0.63210841  1
  N  N60  1  0.22106987  0.87168796  0.38722177  1
  N  N61  1  0.12708953  0.77374897  0.11889658  1
  N  N62  1  0.86293830  0.88533253  0.84832259  1
  N  N63  1  0.77812148  0.76395509  0.57682487  1
  N  N64  1  0.55977201  0.86953863  0.32287245  1
  N  N65  1  0.41598116  0.77408867  0.12313007  1
  N  N66  1  0.22598173  0.87109021  0.90494938  1
  N  N67  1  0.11288303  0.76050535  0.64534019  1
  N  N68  1  0.88473971  0.87222448  0.31590427  1
  N  N69  1  0.76911831  0.77562353  0.06036633  1
  N  N70  1  0.58389168  0.86106807  0.84022541  1
  N  N71  1  0.44092734  0.75965518  0.64012013  1
