# generated using pymatgen
data_Al11BN12
_symmetry_space_group_name_H-M   'P 1'
_cell_length_a   9.26927276
_cell_length_b   9.27215021
_cell_length_c   10.09164228
_cell_angle_alpha   90.01125399
_cell_angle_beta   89.69153721
_cell_angle_gamma   60.08731827
_symmetry_Int_Tables_number   1
_chemical_formula_structural   Al11BN12
_chemical_formula_sum   'Al33 B3 N36'
_cell_volume   751.78102571
_cell_formula_units_Z   3
loop_
 _symmetry_equiv_pos_site_id
 _symmetry_equiv_pos_as_xyz
  1  'x, y, z'
loop_
 _atom_site_type_symbol
 _atom_site_label
 _atom_site_symmetry_multiplicity
 _atom_site_fract_x
 _atom_site_fract_y
 _atom_site_fract_z
 _atom_site_occupancy
  Al  Al0  1  0.11425651  0.08885873  0.31811386  1
  Al  Al1  1  0.22317994  0.20106576  0.07071358  1
  Al  Al2  1  0.89331392  0.20546594  0.57455469  1
  Al  Al3  1  0.44396234  0.09446128  0.32031224  1
  Al  Al4  1  0.54958011  0.20899710  0.07082234  1
  Al  Al5  1  0.11033396  0.08855296  0.82789221  1
  Al  Al6  1  0.22203532  0.20431491  0.57215605  1
  Al  Al7  1  0.78315123  0.08506654  0.39018917  1
  Al  Al8  1  0.89693158  0.20086822  0.06820431  1
  Al  Al9  1  0.45601970  0.09036947  0.82121531  1
  Al  Al10  1  0.54890913  0.20977221  0.57236061  1
  Al  Al11  1  0.11094006  0.42747742  0.32226178  1
  Al  Al12  1  0.22579670  0.54064908  0.07163899  1
  Al  Al13  1  0.77840731  0.42380360  0.82149129  1
  Al  Al14  1  0.89141213  0.53413526  0.57651869  1
  Al  Al15  1  0.44450662  0.42804290  0.32276512  1
  Al  Al16  1  0.55234384  0.54149137  0.07121827  1
  Al  Al17  1  0.11041160  0.42845494  0.82144107  1
  Al  Al18  1  0.21648284  0.54621137  0.57606983  1
  Al  Al19  1  0.77922190  0.42707325  0.31944450  1
  Al  Al20  1  0.89302438  0.53467154  0.06297282  1
  Al  Al21  1  0.45164790  0.42342311  0.82126414  1
  Al  Al22  1  0.55467739  0.54064340  0.57187275  1
  Al  Al23  1  0.12078601  0.75990030  0.31598168  1
  Al  Al24  1  0.87099936  0.88129911  0.66041600  1
  Al  Al25  1  0.43962903  0.76324898  0.31874627  1
  Al  Al26  1  0.54501271  0.87658859  0.07190155  1
  Al  Al27  1  0.11138197  0.76210842  0.84118714  1
  Al  Al28  1  0.21746740  0.87148467  0.57767869  1
  Al  Al29  1  0.78299435  0.76333783  0.39123166  1
  Al  Al30  1  0.89127676  0.87523070  0.13044915  1
  Al  Al31  1  0.45165161  0.75968756  0.82805121  1
  Al  Al32  1  0.54802996  0.87478191  0.57304504  1
  B  B33  1  0.77368372  0.09013123  0.90868910  1
  B  B34  1  0.22544079  0.87012443  0.06868967  1
  B  B35  1  0.76672560  0.79022540  0.91116303  1
  N  N36  1  0.22175225  0.20392663  0.38125143  1
  N  N37  1  0.12459737  0.06877128  0.12548702  1
  N  N38  1  0.88036547  0.19106336  0.87746494  1
  N  N39  1  0.78035579  0.08753051  0.58172378  1
  N  N40  1  0.54981254  0.20814198  0.38008955  1
  N  N41  1  0.44328264  0.09562559  0.13223331  1
  N  N42  1  0.22632859  0.20180812  0.88213256  1
  N  N43  1  0.11264741  0.09280235  0.63800190  1
  N  N44  1  0.89401694  0.20625915  0.37833725  1
  N  N45  1  0.77927560  0.08885583  0.06957099  1
  N  N46  1  0.57410891  0.19753422  0.87981434  1
  N  N47  1  0.44359445  0.09494427  0.63361980  1
  N  N48  1  0.21953903  0.54299746  0.38384155  1
  N  N49  1  0.11173906  0.42825662  0.13237918  1
  N  N50  1  0.88681292  0.54353222  0.87613948  1
  N  N51  1  0.77612714  0.42671353  0.63287133  1
  N  N52  1  0.55522268  0.54090436  0.38089969  1
  N  N53  1  0.44573016  0.42727832  0.13420523  1
  N  N54  1  0.22684853  0.53364479  0.88489083  1
  N  N55  1  0.11314610  0.42614541  0.63260536  1
  N  N56  1  0.89199543  0.53243290  0.38218261  1
  N  N57  1  0.77936223  0.42716304  0.12968942  1
  N  N58  1  0.55747899  0.53765848  0.88382226  1
  N  N59  1  0.44206431  0.43049745  0.63251785  1
  N  N60  1  0.22081844  0.87177716  0.38876752  1
  N  N61  1  0.13158815  0.77067146  0.12148488  1
  N  N62  1  0.85866848  0.88850436  0.85467780  1
  N  N63  1  0.77936179  0.76537990  0.58293634  1
  N  N64  1  0.54947766  0.87372846  0.37828025  1
  N  N65  1  0.42157550  0.77249607  0.12598651  1
  N  N66  1  0.22793789  0.87068136  0.90577072  1
  N  N67  1  0.10853749  0.76375628  0.64932939  1
  N  N68  1  0.88617443  0.87226116  0.31832172  1
  N  N69  1  0.78078816  0.76755613  0.06748579  1
  N  N70  1  0.57469768  0.86655539  0.88142817  1
  N  N71  1  0.44130110  0.76221543  0.63826691  1
