# generated using pymatgen
data_Al11BN12
_symmetry_space_group_name_H-M   'P 1'
_cell_length_a   9.30564956
_cell_length_b   9.28294988
_cell_length_c   10.03099437
_cell_angle_alpha   89.91275742
_cell_angle_beta   89.89474477
_cell_angle_gamma   59.92128463
_symmetry_Int_Tables_number   1
_chemical_formula_structural   Al11BN12
_chemical_formula_sum   'Al33 B3 N36'
_cell_volume   749.82765805
_cell_formula_units_Z   3
loop_
 _symmetry_equiv_pos_site_id
 _symmetry_equiv_pos_as_xyz
  1  'x, y, z'
loop_
 _atom_site_type_symbol
 _atom_site_label
 _atom_site_symmetry_multiplicity
 _atom_site_fract_x
 _atom_site_fract_y
 _atom_site_fract_z
 _atom_site_occupancy
  Al  Al0  1  0.10445862  0.10256085  0.38739616  1
  Al  Al1  1  0.22331032  0.19863177  0.13763794  1
  Al  Al2  1  0.88651992  0.20269221  0.64174568  1
  Al  Al3  1  0.44574725  0.09386389  0.38691906  1
  Al  Al4  1  0.55863709  0.20253859  0.13481106  1
  Al  Al5  1  0.10759685  0.09081153  0.89211021  1
  Al  Al6  1  0.22098597  0.20605657  0.63882725  1
  Al  Al7  1  0.78015197  0.09061382  0.38397818  1
  Al  Al8  1  0.89309174  0.19706066  0.13112938  1
  Al  Al9  1  0.45501368  0.09002039  0.88814084  1
  Al  Al10  1  0.56067303  0.20398686  0.63963891  1
  Al  Al11  1  0.10549208  0.42832555  0.38452868  1
  Al  Al12  1  0.22303464  0.54469464  0.06831063  1
  Al  Al13  1  0.78004475  0.42565582  0.88847045  1
  Al  Al14  1  0.88511884  0.54531464  0.64063222  1
  Al  Al15  1  0.44987850  0.42631428  0.38562932  1
  Al  Al16  1  0.55545147  0.53592061  0.13238986  1
  Al  Al17  1  0.10447373  0.42784380  0.88582491  1
  Al  Al18  1  0.21542012  0.54933529  0.57358346  1
  Al  Al19  1  0.77592848  0.43011813  0.38653262  1
  Al  Al20  1  0.88743648  0.54060329  0.13185810  1
  Al  Al21  1  0.45972340  0.41554328  0.88758154  1
  Al  Al22  1  0.55734548  0.53600646  0.64004795  1
  Al  Al23  1  0.11651099  0.76400708  0.30725421  1
  Al  Al24  1  0.87691113  0.87938697  0.64755419  1
  Al  Al25  1  0.43126365  0.77096524  0.31345119  1
  Al  Al26  1  0.55481178  0.87505739  0.12444708  1
  Al  Al27  1  0.11094907  0.75976358  0.83061604  1
  Al  Al28  1  0.22313649  0.86899849  0.57250839  1
  Al  Al29  1  0.77797715  0.76424324  0.38241622  1
  Al  Al30  1  0.88775733  0.87601688  0.11424519  1
  Al  Al31  1  0.44817249  0.76022482  0.83485550  1
  Al  Al32  1  0.56272888  0.87440392  0.64183050  1
  B  B33  1  0.77256223  0.09034427  0.89263113  1
  B  B34  1  0.22836955  0.86445657  0.05826435  1
  B  B35  1  0.77194664  0.77087693  0.89396139  1
  N  N36  1  0.22279041  0.20510374  0.32751726  1
  N  N37  1  0.12166671  0.07331605  0.08272356  1
  N  N38  1  0.88073285  0.18692621  0.83404750  1
  N  N39  1  0.77919992  0.09234947  0.57317143  1
  N  N40  1  0.55717932  0.20465091  0.32475683  1
  N  N41  1  0.44328514  0.09752708  0.07492697  1
  N  N42  1  0.22387324  0.19997808  0.82884499  1
  N  N43  1  0.10479610  0.10280964  0.58053791  1
  N  N44  1  0.88597822  0.20630664  0.32239373  1
  N  N45  1  0.77513231  0.09676265  0.05338031  1
  N  N46  1  0.58314133  0.18929791  0.83207593  1
  N  N47  1  0.44537522  0.09575186  0.57962455  1
  N  N48  1  0.21720346  0.54803123  0.37346412  1
  N  N49  1  0.10909244  0.42346168  0.07922137  1
  N  N50  1  0.87741550  0.56296364  0.83228481  1
  N  N51  1  0.77807605  0.42846496  0.57920923  1
  N  N52  1  0.55663021  0.53860935  0.32483392  1
  N  N53  1  0.45240567  0.42142057  0.07811570  1
  N  N54  1  0.22647970  0.53491308  0.87233048  1
  N  N55  1  0.10530361  0.42767881  0.57976253  1
  N  N56  1  0.88540590  0.54215127  0.32245834  1
  N  N57  1  0.78048170  0.42495605  0.07626390  1
  N  N58  1  0.56343080  0.52895535  0.83082441  1
  N  N59  1  0.44917570  0.42558192  0.57956100  1
  N  N60  1  0.22098714  0.86945283  0.38297759  1
  N  N61  1  0.12859789  0.77259245  0.11443253  1
  N  N62  1  0.86419267  0.88363103  0.84453811  1
  N  N63  1  0.77859880  0.76424459  0.57240162  1
  N  N64  1  0.55821828  0.87503212  0.31933258  1
  N  N65  1  0.41707671  0.77496344  0.11421801  1
  N  N66  1  0.23038415  0.85850564  0.89766468  1
  N  N67  1  0.11001591  0.76557757  0.63989489  1
  N  N68  1  0.88257919  0.87571068  0.30982096  1
  N  N69  1  0.77771510  0.76008472  0.05423559  1
  N  N70  1  0.58498653  0.86130614  0.83852613  1
  N  N71  1  0.43780025  0.76941612  0.63693030  1
