# generated using pymatgen
data_Al11BN12
_symmetry_space_group_name_H-M   'P 1'
_cell_length_a   9.31221310
_cell_length_b   9.29467772
_cell_length_c   10.00931036
_cell_angle_alpha   89.97701539
_cell_angle_beta   89.94722566
_cell_angle_gamma   59.88649290
_symmetry_Int_Tables_number   1
_chemical_formula_structural   Al11BN12
_chemical_formula_sum   'Al33 B3 N36'
_cell_volume   749.41774465
_cell_formula_units_Z   3
loop_
 _symmetry_equiv_pos_site_id
 _symmetry_equiv_pos_as_xyz
  1  'x, y, z'
loop_
 _atom_site_type_symbol
 _atom_site_label
 _atom_site_symmetry_multiplicity
 _atom_site_fract_x
 _atom_site_fract_y
 _atom_site_fract_z
 _atom_site_occupancy
  Al  Al0  1  0.10419607  0.10259087  0.38789930  1
  Al  Al1  1  0.22338165  0.19876680  0.13785094  1
  Al  Al2  1  0.88633730  0.20256633  0.64183049  1
  Al  Al3  1  0.44575315  0.09328274  0.38680200  1
  Al  Al4  1  0.55923633  0.20150570  0.13300893  1
  Al  Al5  1  0.10733725  0.09161229  0.89196559  1
  Al  Al6  1  0.22116479  0.20619586  0.63878583  1
  Al  Al7  1  0.77963112  0.09061187  0.38402447  1
  Al  Al8  1  0.89316041  0.19715409  0.13155040  1
  Al  Al9  1  0.45501416  0.08978289  0.88770834  1
  Al  Al10  1  0.56084625  0.20348857  0.63959447  1
  Al  Al11  1  0.10501832  0.42813379  0.38460381  1
  Al  Al12  1  0.22295261  0.54538042  0.06943594  1
  Al  Al13  1  0.78067885  0.42557441  0.88835183  1
  Al  Al14  1  0.88562981  0.54506895  0.64062725  1
  Al  Al15  1  0.44878732  0.42629737  0.37950558  1
  Al  Al16  1  0.55589391  0.53689262  0.12953223  1
  Al  Al17  1  0.10449916  0.42838620  0.88654560  1
  Al  Al18  1  0.21707069  0.54825888  0.57293672  1
  Al  Al19  1  0.77469186  0.43043825  0.38680721  1
  Al  Al20  1  0.88783087  0.54047926  0.13247232  1
  Al  Al21  1  0.45856030  0.41612295  0.88675679  1
  Al  Al22  1  0.55701455  0.53563364  0.64105664  1
  Al  Al23  1  0.11580800  0.76488333  0.30792950  1
  Al  Al24  1  0.87753903  0.87871483  0.64718740  1
  Al  Al25  1  0.43072558  0.77111912  0.31237143  1
  Al  Al26  1  0.55503813  0.87512574  0.12424411  1
  Al  Al27  1  0.11085808  0.76029495  0.83062176  1
  Al  Al28  1  0.22343822  0.86876393  0.57301283  1
  Al  Al29  1  0.77770173  0.76397667  0.38254804  1
  Al  Al30  1  0.88811804  0.87573409  0.11446335  1
  Al  Al31  1  0.44777531  0.76122630  0.83515669  1
  Al  Al32  1  0.56317818  0.87369481  0.64174476  1
  B  B33  1  0.77297736  0.08988620  0.89287257  1
  B  B34  1  0.22779965  0.86561266  0.05817260  1
  B  B35  1  0.77237417  0.77035546  0.89407322  1
  N  N36  1  0.22258360  0.20487772  0.32806342  1
  N  N37  1  0.12152825  0.07380980  0.08306645  1
  N  N38  1  0.88056436  0.18734037  0.83419797  1
  N  N39  1  0.77938294  0.09181328  0.57340251  1
  N  N40  1  0.55730740  0.20318231  0.32334832  1
  N  N41  1  0.44310610  0.09713372  0.07461998  1
  N  N42  1  0.22371969  0.20074418  0.82915962  1
  N  N43  1  0.10495122  0.10259347  0.58136934  1
  N  N44  1  0.88545044  0.20635041  0.32312064  1
  N  N45  1  0.77602436  0.09618975  0.05350830  1
  N  N46  1  0.58321345  0.18912502  0.83274133  1
  N  N47  1  0.44572927  0.09497755  0.57982237  1
  N  N48  1  0.21655501  0.54791661  0.37200815  1
  N  N49  1  0.10952000  0.42374201  0.08025752  1
  N  N50  1  0.87764853  0.56320876  0.83257470  1
  N  N51  1  0.77775741  0.42855916  0.58003573  1
  N  N52  1  0.55638198  0.53901687  0.32289701  1
  N  N53  1  0.45219552  0.42145147  0.07916928  1
  N  N54  1  0.22556664  0.53611577  0.87335407  1
  N  N55  1  0.10586161  0.42766814  0.57975439  1
  N  N56  1  0.88483485  0.54187038  0.32322274  1
  N  N57  1  0.78175925  0.42452045  0.07626310  1
  N  N58  1  0.56291744  0.53006454  0.83307644  1
  N  N59  1  0.44940178  0.42494072  0.58027866  1
  N  N60  1  0.22103551  0.86962131  0.38315174  1
  N  N61  1  0.12854280  0.77350027  0.11485123  1
  N  N62  1  0.86458441  0.88365784  0.84457972  1
  N  N63  1  0.77892008  0.76376415  0.57260838  1
  N  N64  1  0.55802418  0.87457877  0.31938126  1
  N  N65  1  0.41675095  0.77594198  0.11338830  1
  N  N66  1  0.22971325  0.85963412  0.89730379  1
  N  N67  1  0.11061130  0.76472854  0.63931001  1
  N  N68  1  0.88228882  0.87546917  0.31040177  1
  N  N69  1  0.77811442  0.75983395  0.05462429  1
  N  N70  1  0.58539339  0.86119195  0.83861025  1
  N  N71  1  0.43807749  0.76899644  0.63748931  1
