# generated using pymatgen
data_Al11BN12
_symmetry_space_group_name_H-M   'P 1'
_cell_length_a   9.29483057
_cell_length_b   9.26793281
_cell_length_c   10.07800424
_cell_angle_alpha   90.12428154
_cell_angle_beta   90.17851724
_cell_angle_gamma   59.97829645
_symmetry_Int_Tables_number   1
_chemical_formula_structural   Al11BN12
_chemical_formula_sum   'Al33 B3 N36'
_cell_volume   751.67877145
_cell_formula_units_Z   3
loop_
 _symmetry_equiv_pos_site_id
 _symmetry_equiv_pos_as_xyz
  1  'x, y, z'
loop_
 _atom_site_type_symbol
 _atom_site_label
 _atom_site_symmetry_multiplicity
 _atom_site_fract_x
 _atom_site_fract_y
 _atom_site_fract_z
 _atom_site_occupancy
  Al  Al0  1  0.11251400  0.08942652  0.31546545  1
  Al  Al1  1  0.21574027  0.20604580  0.06969826  1
  Al  Al2  1  0.89219815  0.20383264  0.58355925  1
  Al  Al3  1  0.45254031  0.08745147  0.38994381  1
  Al  Al4  1  0.55851787  0.20147384  0.13844803  1
  Al  Al5  1  0.11005777  0.09040077  0.82782256  1
  Al  Al6  1  0.21819968  0.20454181  0.57261365  1
  Al  Al7  1  0.78067429  0.08710526  0.38962993  1
  Al  Al8  1  0.89221619  0.20216516  0.06320407  1
  Al  Al9  1  0.45949746  0.08951690  0.89149409  1
  Al  Al10  1  0.56515444  0.19533410  0.64298552  1
  Al  Al11  1  0.11113039  0.42667658  0.32031960  1
  Al  Al12  1  0.22485326  0.54194595  0.07067295  1
  Al  Al13  1  0.77604661  0.43123394  0.82276399  1
  Al  Al14  1  0.89186372  0.53192507  0.57040833  1
  Al  Al15  1  0.44223047  0.43215424  0.32449288  1
  Al  Al16  1  0.54927620  0.54426776  0.07137848  1
  Al  Al17  1  0.10681497  0.43428375  0.81924534  1
  Al  Al18  1  0.22019547  0.54194856  0.57431560  1
  Al  Al19  1  0.77947195  0.42535974  0.31748765  1
  Al  Al20  1  0.88867946  0.54091468  0.06376903  1
  Al  Al21  1  0.44799919  0.42897668  0.82445372  1
  Al  Al22  1  0.55454576  0.54023160  0.57293242  1
  Al  Al23  1  0.11782774  0.76113549  0.31378618  1
  Al  Al24  1  0.87992202  0.87382988  0.65394858  1
  Al  Al25  1  0.43634021  0.76058329  0.31787280  1
  Al  Al26  1  0.55135366  0.87725768  0.13256333  1
  Al  Al27  1  0.10981946  0.76420665  0.83946946  1
  Al  Al28  1  0.22138947  0.86983302  0.57620803  1
  Al  Al29  1  0.77764846  0.76515410  0.38688435  1
  Al  Al30  1  0.88727176  0.87796871  0.12332374  1
  Al  Al31  1  0.44538618  0.76000306  0.83353237  1
  Al  Al32  1  0.56581324  0.86844213  0.64695573  1
  B  B33  1  0.76729326  0.09077594  0.89901004  1
  B  B34  1  0.22419626  0.87098323  0.06710773  1
  B  B35  1  0.76860248  0.77750468  0.90090351  1
  N  N36  1  0.21932636  0.20402078  0.37853785  1
  N  N37  1  0.12106889  0.07113747  0.12268395  1
  N  N38  1  0.87992435  0.19543906  0.87195213  1
  N  N39  1  0.78010392  0.08531286  0.57873110  1
  N  N40  1  0.56121813  0.19811217  0.32929479  1
  N  N41  1  0.44559542  0.09694346  0.07950048  1
  N  N42  1  0.21723763  0.20976077  0.87834433  1
  N  N43  1  0.11433262  0.09019320  0.63866995  1
  N  N44  1  0.89324795  0.20499956  0.37581541  1
  N  N45  1  0.76800423  0.09490162  0.05852405  1
  N  N46  1  0.58412575  0.19007292  0.83654802  1
  N  N47  1  0.45161417  0.08798306  0.58338417  1
  N  N48  1  0.21975407  0.54194308  0.38296803  1
  N  N49  1  0.10863132  0.43211344  0.13081259  1
  N  N50  1  0.88049333  0.56026127  0.87413456  1
  N  N51  1  0.77636654  0.42838237  0.63426377  1
  N  N52  1  0.55651153  0.54022808  0.38238165  1
  N  N53  1  0.44188432  0.43416910  0.13353130  1
  N  N54  1  0.22555886  0.53565803  0.88397827  1
  N  N55  1  0.11210593  0.42667944  0.63097513  1
  N  N56  1  0.89180597  0.53209506  0.37873584  1
  N  N57  1  0.77770522  0.42943658  0.12650769  1
  N  N58  1  0.55704403  0.53830141  0.88552698  1
  N  N59  1  0.44323755  0.42920242  0.63250734  1
  N  N60  1  0.22114503  0.87153450  0.38737451  1
  N  N61  1  0.12711118  0.77343953  0.11893753  1
  N  N62  1  0.86323390  0.88526300  0.84919048  1
  N  N63  1  0.77830631  0.76468176  0.57700480  1
  N  N64  1  0.55991789  0.86972067  0.32282053  1
  N  N65  1  0.41576539  0.77404662  0.12321637  1
  N  N66  1  0.22492422  0.87286386  0.90516324  1
  N  N67  1  0.11313638  0.76050446  0.64567750  1
  N  N68  1  0.88515038  0.87242860  0.31523990  1
  N  N69  1  0.76900428  0.77434501  0.06059717  1
  N  N70  1  0.58391984  0.86114745  0.84042712  1
  N  N71  1  0.44101351  0.75985989  0.64062274  1
