# generated using pymatgen
data_Al11BN12
_symmetry_space_group_name_H-M   'P 1'
_cell_length_a   9.26958516
_cell_length_b   9.29748808
_cell_length_c   10.08561176
_cell_angle_alpha   89.99058229
_cell_angle_beta   89.69844272
_cell_angle_gamma   60.17313976
_symmetry_Int_Tables_number   1
_chemical_formula_structural   Al11BN12
_chemical_formula_sum   'Al33 B3 N36'
_cell_volume   754.06036663
_cell_formula_units_Z   3
loop_
 _symmetry_equiv_pos_site_id
 _symmetry_equiv_pos_as_xyz
  1  'x, y, z'
loop_
 _atom_site_type_symbol
 _atom_site_label
 _atom_site_symmetry_multiplicity
 _atom_site_fract_x
 _atom_site_fract_y
 _atom_site_fract_z
 _atom_site_occupancy
  Al  Al0  1  0.11430433  0.08876470  0.31780734  1
  Al  Al1  1  0.22327967  0.20151665  0.07056062  1
  Al  Al2  1  0.89344837  0.20514067  0.57352754  1
  Al  Al3  1  0.44398046  0.09468783  0.32077647  1
  Al  Al4  1  0.54909598  0.20985486  0.07144837  1
  Al  Al5  1  0.11052682  0.08841312  0.82849796  1
  Al  Al6  1  0.22214807  0.20411500  0.57161416  1
  Al  Al7  1  0.78281643  0.08522481  0.38937565  1
  Al  Al8  1  0.89629596  0.20245135  0.06878464  1
  Al  Al9  1  0.45566706  0.09272457  0.82006518  1
  Al  Al10  1  0.54883606  0.21069235  0.57196913  1
  Al  Al11  1  0.11037908  0.42765482  0.32245974  1
  Al  Al12  1  0.22508622  0.54058125  0.07183458  1
  Al  Al13  1  0.77956868  0.41706742  0.82065483  1
  Al  Al14  1  0.89143328  0.53344051  0.57896932  1
  Al  Al15  1  0.44409744  0.42857525  0.32284857  1
  Al  Al16  1  0.55258277  0.54125821  0.07137044  1
  Al  Al17  1  0.11405601  0.42173149  0.82101798  1
  Al  Al18  1  0.21605930  0.54629478  0.57636685  1
  Al  Al19  1  0.77910980  0.42754192  0.31992760  1
  Al  Al20  1  0.89348283  0.53304079  0.05789937  1
  Al  Al21  1  0.45044786  0.42484642  0.82162911  1
  Al  Al22  1  0.55440169  0.54089756  0.57206309  1
  Al  Al23  1  0.12101828  0.75966503  0.31640882  1
  Al  Al24  1  0.87034105  0.88211369  0.65985074  1
  Al  Al25  1  0.43963719  0.76313697  0.31929871  1
  Al  Al26  1  0.54365797  0.87700760  0.07396466  1
  Al  Al27  1  0.11175195  0.76120732  0.84168761  1
  Al  Al28  1  0.21724232  0.87186717  0.57839796  1
  Al  Al29  1  0.78379427  0.76224751  0.39232293  1
  Al  Al30  1  0.89205779  0.87627249  0.13122987  1
  Al  Al31  1  0.45301525  0.75942372  0.82858897  1
  Al  Al32  1  0.54821301  0.87501887  0.57303256  1
  B  B33  1  0.77377215  0.09387818  0.90890346  1
  B  B34  1  0.22526602  0.87018501  0.06835984  1
  B  B35  1  0.75505155  0.81644398  0.91580585  1
  N  N36  1  0.22166601  0.20384195  0.38083879  1
  N  N37  1  0.12460530  0.06889071  0.12497958  1
  N  N38  1  0.87956382  0.18724251  0.87743422  1
  N  N39  1  0.78027250  0.08738887  0.58104501  1
  N  N40  1  0.54954798  0.20890932  0.37971354  1
  N  N41  1  0.44362687  0.09550353  0.13278093  1
  N  N42  1  0.23156124  0.19670731  0.88215803  1
  N  N43  1  0.11252497  0.09286346  0.63813184  1
  N  N44  1  0.89395179  0.20611843  0.37746372  1
  N  N45  1  0.77873566  0.08985356  0.07098200  1
  N  N46  1  0.57347856  0.19954481  0.88020395  1
  N  N47  1  0.44422444  0.09496159  0.63260942  1
  N  N48  1  0.21921946  0.54342788  0.38394370  1
  N  N49  1  0.11114308  0.42868754  0.13266217  1
  N  N50  1  0.89879565  0.51516757  0.87611658  1
  N  N51  1  0.77542922  0.42520379  0.63173703  1
  N  N52  1  0.55461268  0.54153224  0.38107447  1
  N  N53  1  0.44510299  0.42782258  0.13419215  1
  N  N54  1  0.22559372  0.53337903  0.88483880  1
  N  N55  1  0.11460136  0.42484349  0.63186704  1
  N  N56  1  0.89198173  0.53233518  0.38355334  1
  N  N57  1  0.77849129  0.42842275  0.13058126  1
  N  N58  1  0.55773585  0.53782769  0.88369485  1
  N  N59  1  0.44162886  0.43090798  0.63259683  1
  N  N60  1  0.22066355  0.87203934  0.38904821  1
  N  N61  1  0.13160168  0.77083813  0.12135048  1
  N  N62  1  0.85537019  0.89356962  0.85478336  1
  N  N63  1  0.77947714  0.76476927  0.58408812  1
  N  N64  1  0.55001153  0.87368263  0.37797984  1
  N  N65  1  0.42156049  0.77228109  0.12603615  1
  N  N66  1  0.22848857  0.86998708  0.90570383  1
  N  N67  1  0.10776299  0.76407872  0.65003332  1
  N  N68  1  0.88613406  0.87187920  0.31873610  1
  N  N69  1  0.78160211  0.76916181  0.06376200  1
  N  N70  1  0.57456929  0.87082196  0.88199113  1
  N  N71  1  0.44163577  0.76256637  0.63882170  1
