# generated using pymatgen
data_Al11BN12
_symmetry_space_group_name_H-M   'P 1'
_cell_length_a   9.25893501
_cell_length_b   9.25918264
_cell_length_c   9.89686960
_cell_angle_alpha   89.99034293
_cell_angle_beta   89.93540909
_cell_angle_gamma   59.99530476
_symmetry_Int_Tables_number   1
_chemical_formula_structural   Al11BN12
_chemical_formula_sum   'Al33 B3 N36'
_cell_volume   734.75287769
_cell_formula_units_Z   3
loop_
 _symmetry_equiv_pos_site_id
 _symmetry_equiv_pos_as_xyz
  1  'x, y, z'
loop_
 _atom_site_type_symbol
 _atom_site_label
 _atom_site_symmetry_multiplicity
 _atom_site_fract_x
 _atom_site_fract_y
 _atom_site_fract_z
 _atom_site_occupancy
  Al  Al0  1  0.11194681  0.08962665  0.29090352  1
  Al  Al1  1  0.22353552  0.20066560  0.04456183  1
  Al  Al2  1  0.88860895  0.20335916  0.55222606  1
  Al  Al3  1  0.44597883  0.09353670  0.29497471  1
  Al  Al4  1  0.56193120  0.20214825  0.04060100  1
  Al  Al5  1  0.10892664  0.08985997  0.80054745  1
  Al  Al6  1  0.22098885  0.20481268  0.54517892  1
  Al  Al7  1  0.77875431  0.09240365  0.29746634  1
  Al  Al8  1  0.89038991  0.19672143  0.04053255  1
  Al  Al9  1  0.45457855  0.08922401  0.79411081  1
  Al  Al10  1  0.55704180  0.20464140  0.55011770  1
  Al  Al11  1  0.10904917  0.42914937  0.29509218  1
  Al  Al12  1  0.22408187  0.54233962  0.04490767  1
  Al  Al13  1  0.77580727  0.42836112  0.79565657  1
  Al  Al14  1  0.88695284  0.54198695  0.55190090  1
  Al  Al15  1  0.44536468  0.42634477  0.29500202  1
  Al  Al16  1  0.55131744  0.54205444  0.04536584  1
  Al  Al17  1  0.10827248  0.43318180  0.79440603  1
  Al  Al18  1  0.22135454  0.54125670  0.54473042  1
  Al  Al19  1  0.77978906  0.42692749  0.29530296  1
  Al  Al20  1  0.88701288  0.54458623  0.04003588  1
  Al  Al21  1  0.45007324  0.42413288  0.79384663  1
  Al  Al22  1  0.55475268  0.54071588  0.54411120  1
  Al  Al23  1  0.11001558  0.76577930  0.29147651  1
  Al  Al24  1  0.88754388  0.87301403  0.55979634  1
  Al  Al25  1  0.43977342  0.76473675  0.29048359  1
  Al  Al26  1  0.55709365  0.87089633  0.04096397  1
  Al  Al27  1  0.10615247  0.76508050  0.80160864  1
  Al  Al28  1  0.22203750  0.87191615  0.54640528  1
  Al  Al29  1  0.77850313  0.76223972  0.29736686  1
  Al  Al30  1  0.88687480  0.87623823  0.03637398  1
  Al  Al31  1  0.44751588  0.76046394  0.80074265  1
  Al  Al32  1  0.55595722  0.87090809  0.55040748  1
  B  B33  1  0.77177139  0.09331410  0.78897453  1
  B  B34  1  0.22165134  0.87317301  0.03989564  1
  B  B35  1  0.77158182  0.76833100  0.78932861  1
  N  N36  1  0.22099471  0.20442910  0.35128615  1
  N  N37  1  0.12199678  0.07015336  0.09519612  1
  N  N38  1  0.87646112  0.19104177  0.84742393  1
  N  N39  1  0.77575022  0.09544792  0.62577667  1
  N  N40  1  0.55701439  0.20448347  0.35805895  1
  N  N41  1  0.44711211  0.09358882  0.10117113  1
  N  N42  1  0.22279708  0.20547653  0.85330633  1
  N  N43  1  0.11207996  0.09230712  0.60889928  1
  N  N44  1  0.88982996  0.20379046  0.35746719  1
  N  N45  1  0.77878950  0.09183411  0.10783936  1
  N  N46  1  0.58068111  0.19290194  0.84621010  1
  N  N47  1  0.44334054  0.09469108  0.60418682  1
  N  N48  1  0.22078153  0.54172970  0.35136462  1
  N  N49  1  0.10983202  0.42857550  0.10222920  1
  N  N50  1  0.87704957  0.56500622  0.84661412  1
  N  N51  1  0.77673054  0.42797461  0.60510889  1
  N  N52  1  0.55502586  0.54111646  0.35086799  1
  N  N53  1  0.44658235  0.42427488  0.10320280  1
  N  N54  1  0.22524941  0.53741757  0.85445801  1
  N  N55  1  0.11167439  0.42802624  0.60342371  1
  N  N56  1  0.88739768  0.54107469  0.35883849  1
  N  N57  1  0.78119800  0.42556049  0.10046092  1
  N  N58  1  0.55596363  0.53812509  0.85573114  1
  N  N59  1  0.44420673  0.42880500  0.60294690  1
  N  N60  1  0.22201824  0.87194365  0.35680895  1
  N  N61  1  0.12000733  0.77547612  0.09415940  1
  N  N62  1  0.86619528  0.88358371  0.84154089  1
  N  N63  1  0.77525826  0.76253816  0.62587673  1
  N  N64  1  0.55575545  0.87065518  0.35649781  1
  N  N65  1  0.42088423  0.77485933  0.09525345  1
  N  N66  1  0.22407408  0.87108003  0.87520984  1
  N  N67  1  0.11277860  0.76158822  0.61034419  1
  N  N68  1  0.88913272  0.87204250  0.36368232  1
  N  N69  1  0.77909122  0.76292066  0.10676087  1
  N  N70  1  0.58076222  0.85978580  0.84755865  1
  N  N71  1  0.44252157  0.76156662  0.60883480  1
