# generated using pymatgen
data_Al11BN12
_symmetry_space_group_name_H-M   'P 1'
_cell_length_a   9.30740592
_cell_length_b   9.28798219
_cell_length_c   9.99466580
_cell_angle_alpha   89.89212503
_cell_angle_beta   89.77467657
_cell_angle_gamma   59.94374742
_symmetry_Int_Tables_number   1
_chemical_formula_structural   Al11BN12
_chemical_formula_sum   'Al33 B3 N36'
_cell_volume   747.82352460
_cell_formula_units_Z   3
loop_
 _symmetry_equiv_pos_site_id
 _symmetry_equiv_pos_as_xyz
  1  'x, y, z'
loop_
 _atom_site_type_symbol
 _atom_site_label
 _atom_site_symmetry_multiplicity
 _atom_site_fract_x
 _atom_site_fract_y
 _atom_site_fract_z
 _atom_site_occupancy
  Al  Al0  1  0.10428874  0.10284345  0.38643097  1
  Al  Al1  1  0.22355641  0.19839789  0.13726114  1
  Al  Al2  1  0.88551428  0.20322757  0.64130880  1
  Al  Al3  1  0.44537406  0.09453835  0.38765256  1
  Al  Al4  1  0.55853351  0.20261468  0.13410344  1
  Al  Al5  1  0.10576179  0.09311607  0.88959834  1
  Al  Al6  1  0.22109626  0.20622965  0.63856489  1
  Al  Al7  1  0.78065516  0.08999566  0.38358119  1
  Al  Al8  1  0.89282759  0.19742602  0.13040495  1
  Al  Al9  1  0.45465267  0.08997347  0.88773245  1
  Al  Al10  1  0.56056595  0.20361423  0.63944020  1
  Al  Al11  1  0.10547307  0.42869097  0.38400270  1
  Al  Al12  1  0.22352104  0.54445271  0.06850192  1
  Al  Al13  1  0.77930183  0.42594554  0.88743072  1
  Al  Al14  1  0.88480101  0.54545713  0.64020353  1
  Al  Al15  1  0.44993921  0.42507939  0.38531990  1
  Al  Al16  1  0.55353202  0.53972853  0.13400925  1
  Al  Al17  1  0.10427657  0.42851874  0.88567504  1
  Al  Al18  1  0.21598882  0.54868139  0.57339689  1
  Al  Al19  1  0.77705011  0.42879474  0.38712108  1
  Al  Al20  1  0.88696431  0.54081019  0.13151328  1
  Al  Al21  1  0.45952586  0.41633983  0.88672896  1
  Al  Al22  1  0.55510724  0.54011937  0.64017345  1
  Al  Al23  1  0.11791148  0.76421632  0.30542290  1
  Al  Al24  1  0.87581759  0.87931454  0.64695707  1
  Al  Al25  1  0.44427624  0.76403306  0.36340853  1
  Al  Al26  1  0.55292603  0.87394511  0.12777264  1
  Al  Al27  1  0.10989535  0.75930039  0.82875274  1
  Al  Al28  1  0.21971026  0.87042874  0.57268130  1
  Al  Al29  1  0.77943236  0.76414360  0.38282058  1
  Al  Al30  1  0.88768297  0.87589188  0.11319784  1
  Al  Al31  1  0.45497013  0.75606539  0.88300483  1
  Al  Al32  1  0.56050046  0.87100897  0.64263822  1
  B  B33  1  0.77191985  0.09097567  0.89274993  1
  B  B34  1  0.22438710  0.86708372  0.05377337  1
  B  B35  1  0.77180888  0.77071346  0.89364266  1
  N  N36  1  0.22282231  0.20549241  0.32767532  1
  N  N37  1  0.12227818  0.07261701  0.08158506  1
  N  N38  1  0.87862851  0.18871920  0.83392245  1
  N  N39  1  0.77923674  0.09205782  0.57300276  1
  N  N40  1  0.55772935  0.20382849  0.32464112  1
  N  N41  1  0.44381177  0.09649436  0.07553287  1
  N  N42  1  0.22334299  0.20137803  0.82905136  1
  N  N43  1  0.10441992  0.10309556  0.58110363  1
  N  N44  1  0.88572719  0.20652499  0.32212653  1
  N  N45  1  0.77528978  0.09673412  0.05337350  1
  N  N46  1  0.58299255  0.18958167  0.83248679  1
  N  N47  1  0.44575774  0.09476017  0.58074067  1
  N  N48  1  0.21773182  0.54794178  0.37196467  1
  N  N49  1  0.10910336  0.42367280  0.07965016  1
  N  N50  1  0.87718381  0.56342953  0.83252457  1
  N  N51  1  0.77808419  0.42789039  0.58002235  1
  N  N52  1  0.55654973  0.53868439  0.32455029  1
  N  N53  1  0.45282724  0.42203812  0.07859415  1
  N  N54  1  0.22657549  0.53514494  0.87190725  1
  N  N55  1  0.10535342  0.42769779  0.57956707  1
  N  N56  1  0.88501438  0.54223788  0.32275531  1
  N  N57  1  0.77971446  0.42542285  0.07612696  1
  N  N58  1  0.56057116  0.53412963  0.82964276  1
  N  N59  1  0.44947218  0.42509374  0.58015022  1
  N  N60  1  0.21793847  0.87207561  0.37942314  1
  N  N61  1  0.12958739  0.77309127  0.11237241  1
  N  N62  1  0.86319693  0.88333674  0.84439744  1
  N  N63  1  0.77824926  0.76433635  0.57279681  1
  N  N64  1  0.55780234  0.87441052  0.31978971  1
  N  N65  1  0.42661966  0.76991752  0.08355366  1
  N  N66  1  0.22339800  0.86323020  0.89038600  1
  N  N67  1  0.10890460  0.76503897  0.63831087  1
  N  N68  1  0.88336352  0.87517601  0.30910193  1
  N  N69  1  0.77660528  0.76056573  0.05458438  1
  N  N70  1  0.58261699  0.86036727  0.83726086  1
  N  N71  1  0.44598897  0.76381350  0.59741001  1
