# generated using pymatgen
data_Al11BN12
_symmetry_space_group_name_H-M   'P 1'
_cell_length_a   9.30303555
_cell_length_b   9.27964276
_cell_length_c   10.09795891
_cell_angle_alpha   89.77107331
_cell_angle_beta   90.04327304
_cell_angle_gamma   59.96459598
_symmetry_Int_Tables_number   1
_chemical_formula_structural   Al11BN12
_chemical_formula_sum   'Al33 B3 N36'
_cell_volume   754.67411773
_cell_formula_units_Z   3
loop_
 _symmetry_equiv_pos_site_id
 _symmetry_equiv_pos_as_xyz
  1  'x, y, z'
loop_
 _atom_site_type_symbol
 _atom_site_label
 _atom_site_symmetry_multiplicity
 _atom_site_fract_x
 _atom_site_fract_y
 _atom_site_fract_z
 _atom_site_occupancy
  Al  Al0  1  0.10376221  0.10446330  0.38925791  1
  Al  Al1  1  0.22690908  0.19283165  0.13733197  1
  Al  Al2  1  0.88977026  0.19500752  0.64551176  1
  Al  Al3  1  0.44598308  0.09151367  0.38814974  1
  Al  Al4  1  0.56001230  0.20054217  0.13425718  1
  Al  Al5  1  0.10874828  0.09043936  0.89538052  1
  Al  Al6  1  0.22515338  0.19932628  0.64089740  1
  Al  Al7  1  0.78039480  0.08963389  0.38545536  1
  Al  Al8  1  0.89426878  0.19260264  0.12958993  1
  Al  Al9  1  0.45685129  0.08921458  0.88995045  1
  Al  Al10  1  0.56375327  0.19776262  0.63827854  1
  Al  Al11  1  0.10773509  0.43537135  0.31608153  1
  Al  Al12  1  0.22681968  0.54146714  0.06813817  1
  Al  Al13  1  0.77390492  0.42890349  0.83180311  1
  Al  Al14  1  0.88662633  0.54245267  0.61309464  1
  Al  Al15  1  0.44214296  0.43202467  0.32226927  1
  Al  Al16  1  0.54775022  0.54449101  0.06879135  1
  Al  Al17  1  0.11121436  0.43371223  0.82676564  1
  Al  Al18  1  0.21925998  0.54339706  0.57091480  1
  Al  Al19  1  0.77374736  0.43386137  0.31289601  1
  Al  Al20  1  0.88906992  0.54082106  0.07230962  1
  Al  Al21  1  0.44903133  0.42755102  0.82133920  1
  Al  Al22  1  0.55629771  0.54031248  0.57103757  1
  Al  Al23  1  0.11613159  0.76498868  0.31040763  1
  Al  Al24  1  0.87893091  0.87743928  0.65010564  1
  Al  Al25  1  0.43386449  0.76386340  0.31539513  1
  Al  Al26  1  0.55390280  0.87534018  0.13064481  1
  Al  Al27  1  0.11037911  0.76182761  0.83405521  1
  Al  Al28  1  0.22298174  0.86722042  0.57360264  1
  Al  Al29  1  0.77837699  0.76227432  0.38494704  1
  Al  Al30  1  0.88732379  0.87716496  0.11909916  1
  Al  Al31  1  0.44789771  0.75791026  0.82913004  1
  Al  Al32  1  0.56315512  0.87278190  0.64386349  1
  B  B33  1  0.77235336  0.09183686  0.89392640  1
  B  B34  1  0.22818171  0.86336040  0.06139297  1
  B  B35  1  0.76904633  0.77762343  0.89637616  1
  N  N36  1  0.22586044  0.20029745  0.32783203  1
  N  N37  1  0.12142398  0.07359482  0.08308036  1
  N  N38  1  0.88231490  0.18046541  0.83798144  1
  N  N39  1  0.78063700  0.09070721  0.57342738  1
  N  N40  1  0.55987095  0.19797555  0.32700736  1
  N  N41  1  0.44417593  0.09684681  0.07504550  1
  N  N42  1  0.22793785  0.19404479  0.83237780  1
  N  N43  1  0.10473688  0.10274367  0.58101581  1
  N  N44  1  0.88872690  0.19875221  0.32072235  1
  N  N45  1  0.77362927  0.09784496  0.05368451  1
  N  N46  1  0.58440356  0.18859893  0.83320374  1
  N  N47  1  0.44569003  0.09331366  0.57912209  1
  N  N48  1  0.21940767  0.54387876  0.38054373  1
  N  N49  1  0.11218381  0.43172238  0.12167539  1
  N  N50  1  0.87973304  0.56152452  0.86366328  1
  N  N51  1  0.77337838  0.42935339  0.63947016  1
  N  N52  1  0.55519835  0.54127829  0.38108698  1
  N  N53  1  0.44265852  0.43332398  0.13202448  1
  N  N54  1  0.22883221  0.53449273  0.88283930  1
  N  N55  1  0.11260720  0.43258798  0.63438024  1
  N  N56  1  0.88818885  0.53830869  0.35608805  1
  N  N57  1  0.77368559  0.43184696  0.11821211  1
  N  N58  1  0.55522581  0.53742195  0.88429387  1
  N  N59  1  0.44235482  0.43133311  0.62991091  1
  N  N60  1  0.22185081  0.86889722  0.38560759  1
  N  N61  1  0.12767488  0.77315726  0.11674767  1
  N  N62  1  0.86416872  0.88293455  0.84538232  1
  N  N63  1  0.77673526  0.76767377  0.57579871  1
  N  N64  1  0.55852098  0.87189619  0.32180244  1
  N  N65  1  0.41607471  0.77395897  0.12130252  1
  N  N66  1  0.23233522  0.85783849  0.90002466  1
  N  N67  1  0.11175147  0.76272753  0.64256434  1
  N  N68  1  0.88335089  0.87359657  0.31253948  1
  N  N69  1  0.77030943  0.77274571  0.05544579  1
  N  N70  1  0.58440167  0.86112935  0.83701799  1
  N  N71  1  0.44110046  0.76195281  0.63798012  1
