# generated using pymatgen
data_Al11BN12
_symmetry_space_group_name_H-M   'P 1'
_cell_length_a   9.31057315
_cell_length_b   9.29093264
_cell_length_c   10.06376215
_cell_angle_alpha   89.87510951
_cell_angle_beta   89.90917367
_cell_angle_gamma   60.00194876
_symmetry_Int_Tables_number   1
_chemical_formula_structural   Al11BN12
_chemical_formula_sum   'Al33 B3 N36'
_cell_volume   753.93542330
_cell_formula_units_Z   3
loop_
 _symmetry_equiv_pos_site_id
 _symmetry_equiv_pos_as_xyz
  1  'x, y, z'
loop_
 _atom_site_type_symbol
 _atom_site_label
 _atom_site_symmetry_multiplicity
 _atom_site_fract_x
 _atom_site_fract_y
 _atom_site_fract_z
 _atom_site_occupancy
  Al  Al0  1  0.11794153  0.08436485  0.31217999  1
  Al  Al1  1  0.22146227  0.20468429  0.09748974  1
  Al  Al2  1  0.88515819  0.19536502  0.64703803  1
  Al  Al3  1  0.44516126  0.09067435  0.38936474  1
  Al  Al4  1  0.55943076  0.20143502  0.13747632  1
  Al  Al5  1  0.11009876  0.08635892  0.84240734  1
  Al  Al6  1  0.22830694  0.19954014  0.63387329  1
  Al  Al7  1  0.78255463  0.08889460  0.38596348  1
  Al  Al8  1  0.88699375  0.20091093  0.11987707  1
  Al  Al9  1  0.46055217  0.08965236  0.89050578  1
  Al  Al10  1  0.56609382  0.19554545  0.63965413  1
  Al  Al11  1  0.11058573  0.42794527  0.31753503  1
  Al  Al12  1  0.22489528  0.54416172  0.06974936  1
  Al  Al13  1  0.77266023  0.43620595  0.82618116  1
  Al  Al14  1  0.89443728  0.52769062  0.56964816  1
  Al  Al15  1  0.44228552  0.43063361  0.32433561  1
  Al  Al16  1  0.54723912  0.54635002  0.07037129  1
  Al  Al17  1  0.10428102  0.44075630  0.82299179  1
  Al  Al18  1  0.22069617  0.54179181  0.57255812  1
  Al  Al19  1  0.77594604  0.43117655  0.31549561  1
  Al  Al20  1  0.88627639  0.54480830  0.06123483  1
  Al  Al21  1  0.44777280  0.42881693  0.82281455  1
  Al  Al22  1  0.55621524  0.53918098  0.57266126  1
  Al  Al23  1  0.11636178  0.76129490  0.31287617  1
  Al  Al24  1  0.88120885  0.87161502  0.65092029  1
  Al  Al25  1  0.43629160  0.76034917  0.31789967  1
  Al  Al26  1  0.55158028  0.87737880  0.13266734  1
  Al  Al27  1  0.10958666  0.76366965  0.83682442  1
  Al  Al28  1  0.22130407  0.87097576  0.57594619  1
  Al  Al29  1  0.77744557  0.76466584  0.38585629  1
  Al  Al30  1  0.88696058  0.87961052  0.12001207  1
  Al  Al31  1  0.44562424  0.76014550  0.83172650  1
  Al  Al32  1  0.56834068  0.86609412  0.64529574  1
  B  B33  1  0.76833816  0.09941070  0.89603717  1
  B  B34  1  0.22471363  0.86994769  0.06505077  1
  B  B35  1  0.76742437  0.78191717  0.89908440  1
  N  N36  1  0.22578108  0.20081995  0.33929971  1
  N  N37  1  0.12499384  0.06691554  0.11226058  1
  N  N38  1  0.87208968  0.18941550  0.84394377  1
  N  N39  1  0.78338785  0.08650354  0.57440321  1
  N  N40  1  0.56073142  0.19693873  0.32987813  1
  N  N41  1  0.44782122  0.09673358  0.07611492  1
  N  N42  1  0.22482152  0.20672604  0.85663451  1
  N  N43  1  0.11481201  0.08563694  0.64369363  1
  N  N44  1  0.88660814  0.19873460  0.31733387  1
  N  N45  1  0.77075389  0.10008504  0.05472606  1
  N  N46  1  0.58383329  0.19082578  0.83418889  1
  N  N47  1  0.45031587  0.08842283  0.58318307  1
  N  N48  1  0.21912628  0.54200221  0.38162939  1
  N  N49  1  0.10488158  0.43880643  0.12548219  1
  N  N50  1  0.87931922  0.56030095  0.87308692  1
  N  N51  1  0.77693870  0.42771677  0.63458957  1
  N  N52  1  0.55593631  0.53962371  0.38239520  1
  N  N53  1  0.44173598  0.43406044  0.13300384  1
  N  N54  1  0.22643426  0.53701465  0.88341632  1
  N  N55  1  0.11178055  0.42984673  0.63278499  1
  N  N56  1  0.89270665  0.52997249  0.37896145  1
  N  N57  1  0.77226923  0.44006445  0.12320115  1
  N  N58  1  0.55461517  0.53934358  0.88453389  1
  N  N59  1  0.44354629  0.42881052  0.63065782  1
  N  N60  1  0.22015259  0.87118120  0.38701628  1
  N  N61  1  0.12693122  0.77424841  0.11846356  1
  N  N62  1  0.86389645  0.88262445  0.84655305  1
  N  N63  1  0.78018668  0.76252811  0.57560842  1
  N  N64  1  0.55953929  0.86945905  0.32360802  1
  N  N65  1  0.41553821  0.77457330  0.12299712  1
  N  N66  1  0.22719988  0.86738826  0.90450913  1
  N  N67  1  0.11394827  0.75982406  0.64345190  1
  N  N68  1  0.88414363  0.87188372  0.31357484  1
  N  N69  1  0.76775461  0.77786999  0.05855035  1
  N  N70  1  0.58396736  0.86167376  0.83862929  1
  N  N71  1  0.44212644  0.75951326  0.63881850  1
