# generated using pymatgen
data_Al11BN12
_symmetry_space_group_name_H-M   'P 1'
_cell_length_a   9.30004230
_cell_length_b   9.27787333
_cell_length_c   10.07626119
_cell_angle_alpha   89.88967180
_cell_angle_beta   89.92009236
_cell_angle_gamma   60.01704280
_symmetry_Int_Tables_number   1
_chemical_formula_structural   Al11BN12
_chemical_formula_sum   'Al33 B3 N36'
_cell_volume   753.07305616
_cell_formula_units_Z   3
loop_
 _symmetry_equiv_pos_site_id
 _symmetry_equiv_pos_as_xyz
  1  'x, y, z'
loop_
 _atom_site_type_symbol
 _atom_site_label
 _atom_site_symmetry_multiplicity
 _atom_site_fract_x
 _atom_site_fract_y
 _atom_site_fract_z
 _atom_site_occupancy
  Al  Al0  1  0.11933789  0.08571192  0.31325968  1
  Al  Al1  1  0.21701930  0.20688571  0.06900053  1
  Al  Al2  1  0.88546864  0.19551735  0.64708874  1
  Al  Al3  1  0.45115382  0.08772062  0.39019525  1
  Al  Al4  1  0.55932879  0.20156661  0.13700455  1
  Al  Al5  1  0.11221402  0.08754860  0.83714082  1
  Al  Al6  1  0.21939393  0.20322603  0.58150519  1
  Al  Al7  1  0.78309097  0.08918796  0.38632118  1
  Al  Al8  1  0.88823660  0.20055590  0.12108385  1
  Al  Al9  1  0.46097909  0.08928671  0.89015981  1
  Al  Al10  1  0.56564532  0.19548798  0.64045260  1
  Al  Al11  1  0.11134868  0.42588042  0.31938505  1
  Al  Al12  1  0.22479798  0.54293950  0.07037164  1
  Al  Al13  1  0.77305700  0.43601793  0.82641949  1
  Al  Al14  1  0.89351320  0.52905116  0.57038651  1
  Al  Al15  1  0.44210757  0.43114881  0.32415265  1
  Al  Al16  1  0.54747247  0.54611125  0.07019882  1
  Al  Al17  1  0.10643102  0.43556679  0.82033792  1
  Al  Al18  1  0.22062269  0.54186195  0.57315499  1
  Al  Al19  1  0.77563968  0.43160932  0.31554701  1
  Al  Al20  1  0.88759347  0.54378217  0.06194077  1
  Al  Al21  1  0.44733466  0.42902085  0.82297591  1
  Al  Al22  1  0.55617239  0.53919910  0.57287300  1
  Al  Al23  1  0.11629994  0.76144779  0.31298356  1
  Al  Al24  1  0.88096520  0.87202153  0.65135534  1
  Al  Al25  1  0.43602285  0.76006572  0.31779898  1
  Al  Al26  1  0.55127002  0.87758477  0.13234806  1
  Al  Al27  1  0.10934395  0.76356956  0.83779216  1
  Al  Al28  1  0.22137533  0.87084569  0.57652450  1
  Al  Al29  1  0.77766826  0.76460404  0.38606113  1
  Al  Al30  1  0.88691744  0.87980750  0.12017003  1
  Al  Al31  1  0.44523458  0.76027889  0.83196109  1
  Al  Al32  1  0.56754581  0.86703785  0.64607851  1
  B  B33  1  0.76918176  0.09896058  0.89600958  1
  B  B34  1  0.22550926  0.87031859  0.06613105  1
  B  B35  1  0.76829292  0.78074843  0.89929401  1
  N  N36  1  0.21883515  0.20365479  0.37802128  1
  N  N37  1  0.12800710  0.06788680  0.11767926  1
  N  N38  1  0.87308724  0.18868820  0.84328425  1
  N  N39  1  0.78346975  0.08685202  0.57445632  1
  N  N40  1  0.56083863  0.19733623  0.32915986  1
  N  N41  1  0.44712728  0.09704322  0.07817191  1
  N  N42  1  0.21849092  0.20986818  0.87707781  1
  N  N43  1  0.11679860  0.08772133  0.64330647  1
  N  N44  1  0.88716373  0.19911368  0.31788050  1
  N  N45  1  0.77150313  0.10030628  0.05478120  1
  N  N46  1  0.58371665  0.19102130  0.83463152  1
  N  N47  1  0.45295318  0.08724041  0.58376820  1
  N  N48  1  0.21910331  0.54184267  0.38193951  1
  N  N49  1  0.10754979  0.43316507  0.12942698  1
  N  N50  1  0.88050613  0.56005118  0.87344584  1
  N  N51  1  0.77687397  0.42804123  0.63481293  1
  N  N52  1  0.55590296  0.53970326  0.38267465  1
  N  N53  1  0.44175169  0.43427424  0.13320490  1
  N  N54  1  0.22566442  0.53597234  0.88374804  1
  N  N55  1  0.11277404  0.42723719  0.63225027  1
  N  N56  1  0.89240912  0.53032154  0.37930219  1
  N  N57  1  0.77236703  0.43999164  0.12344017  1
  N  N58  1  0.55462413  0.53929627  0.88469126  1
  N  N59  1  0.44347442  0.42900782  0.63100636  1
  N  N60  1  0.22014909  0.87137765  0.38747526  1
  N  N61  1  0.12698325  0.77406561  0.11867636  1
  N  N62  1  0.86375761  0.88284114  0.84681064  1
  N  N63  1  0.77980265  0.76307025  0.57576748  1
  N  N64  1  0.55931168  0.86937985  0.32304120  1
  N  N65  1  0.41582394  0.77406929  0.12316569  1
  N  N66  1  0.22625456  0.86935743  0.90511319  1
  N  N67  1  0.11387376  0.75999828  0.64420671  1
  N  N68  1  0.88388897  0.87225795  0.31363716  1
  N  N69  1  0.76842161  0.77717079  0.05887024  1
  N  N70  1  0.58392761  0.86132891  0.83917405  1
  N  N71  1  0.44207643  0.75937785  0.63922364  1
