# generated using pymatgen
data_Al11BN12
_symmetry_space_group_name_H-M   'P 1'
_cell_length_a   9.30925940
_cell_length_b   9.30377778
_cell_length_c   10.01453997
_cell_angle_alpha   89.90590858
_cell_angle_beta   89.88055458
_cell_angle_gamma   59.95757628
_symmetry_Int_Tables_number   1
_chemical_formula_structural   Al11BN12
_chemical_formula_sum   'Al33 B3 N36'
_cell_volume   750.84316908
_cell_formula_units_Z   3
loop_
 _symmetry_equiv_pos_site_id
 _symmetry_equiv_pos_as_xyz
  1  'x, y, z'
loop_
 _atom_site_type_symbol
 _atom_site_label
 _atom_site_symmetry_multiplicity
 _atom_site_fract_x
 _atom_site_fract_y
 _atom_site_fract_z
 _atom_site_occupancy
  Al  Al0  1  0.10537299  0.10199873  0.38773492  1
  Al  Al1  1  0.22267188  0.19948167  0.13828539  1
  Al  Al2  1  0.88790135  0.20102163  0.64269058  1
  Al  Al3  1  0.44644485  0.09215235  0.38658599  1
  Al  Al4  1  0.56098575  0.19728523  0.13109194  1
  Al  Al5  1  0.10671245  0.09259848  0.89257348  1
  Al  Al6  1  0.22145244  0.20628495  0.63891882  1
  Al  Al7  1  0.77993765  0.09055314  0.38414047  1
  Al  Al8  1  0.89283272  0.19756548  0.13293136  1
  Al  Al9  1  0.45504116  0.08990933  0.88843235  1
  Al  Al10  1  0.56491589  0.19555606  0.63848864  1
  Al  Al11  1  0.10668928  0.42781659  0.38585399  1
  Al  Al12  1  0.22507615  0.54434355  0.06738364  1
  Al  Al13  1  0.78316227  0.42367866  0.88799910  1
  Al  Al14  1  0.88808690  0.54461187  0.64132706  1
  Al  Al15  1  0.44167400  0.43151047  0.31659264  1
  Al  Al16  1  0.55199984  0.54286670  0.09387594  1
  Al  Al17  1  0.10379586  0.42849002  0.88817329  1
  Al  Al18  1  0.22308307  0.54534668  0.57116176  1
  Al  Al19  1  0.77528908  0.42970829  0.38673550  1
  Al  Al20  1  0.88794073  0.54048503  0.13380757  1
  Al  Al21  1  0.44664888  0.42248144  0.82871816  1
  Al  Al22  1  0.55730519  0.53984737  0.62471012  1
  Al  Al23  1  0.11657921  0.76477425  0.30910414  1
  Al  Al24  1  0.87935542  0.87678358  0.64706496  1
  Al  Al25  1  0.43383377  0.76641196  0.31183466  1
  Al  Al26  1  0.55487123  0.87556893  0.12542071  1
  Al  Al27  1  0.10957315  0.76156229  0.83167323  1
  Al  Al28  1  0.22337017  0.86834434  0.57267072  1
  Al  Al29  1  0.77762017  0.76345181  0.38253155  1
  Al  Al30  1  0.88851937  0.87542004  0.11535445  1
  Al  Al31  1  0.44661879  0.76283959  0.83612282  1
  Al  Al32  1  0.56422547  0.87299008  0.64279443  1
  B  B33  1  0.77139802  0.09089920  0.89361864  1
  B  B34  1  0.22589401  0.86720097  0.05853320  1
  B  B35  1  0.77204484  0.77117284  0.89443510  1
  N  N36  1  0.22316790  0.20532735  0.32825236  1
  N  N37  1  0.12096445  0.07420929  0.08352291  1
  N  N38  1  0.88003751  0.18770786  0.83424591  1
  N  N39  1  0.78143928  0.09035141  0.57336287  1
  N  N40  1  0.55988310  0.19844189  0.32491103  1
  N  N41  1  0.44221414  0.09680199  0.07449175  1
  N  N42  1  0.22375639  0.20165375  0.82934409  1
  N  N43  1  0.10617469  0.10164082  0.58168739  1
  N  N44  1  0.88639730  0.20583599  0.32389647  1
  N  N45  1  0.77609323  0.09645669  0.05379170  1
  N  N46  1  0.58506476  0.18608131  0.83469379  1
  N  N47  1  0.44600196  0.09297936  0.57938628  1
  N  N48  1  0.22169301  0.54637597  0.37673401  1
  N  N49  1  0.10917499  0.42399046  0.08074283  1
  N  N50  1  0.87802754  0.56311594  0.83260033  1
  N  N51  1  0.78123965  0.42632119  0.58303932  1
  N  N52  1  0.55539428  0.54268013  0.34239382  1
  N  N53  1  0.44203275  0.42732656  0.12108247  1
  N  N54  1  0.22482907  0.53751204  0.87825403  1
  N  N55  1  0.10771331  0.42735160  0.58002060  1
  N  N56  1  0.88677966  0.54128264  0.32426640  1
  N  N57  1  0.78471986  0.42272393  0.07698214  1
  N  N58  1  0.55831555  0.53603695  0.85930517  1
  N  N59  1  0.44161340  0.42689206  0.63245926  1
  N  N60  1  0.22218057  0.86980410  0.38294862  1
  N  N61  1  0.12813140  0.77346101  0.11515484  1
  N  N62  1  0.86457795  0.88303241  0.84476013  1
  N  N63  1  0.77921806  0.76302169  0.57285396  1
  N  N64  1  0.55825381  0.87396536  0.31902167  1
  N  N65  1  0.41564889  0.77744210  0.11315280  1
  N  N66  1  0.22790023  0.86156958  0.89740642  1
  N  N67  1  0.11204899  0.76278843  0.63984034  1
  N  N68  1  0.88345700  0.87450240  0.31126270  1
  N  N69  1  0.77761277  0.76003821  0.05497275  1
  N  N70  1  0.58507363  0.86178090  0.83867044  1
  N  N71  1  0.43828078  0.76822685  0.64017846  1
