# generated using pymatgen
data_Al11BN12
_symmetry_space_group_name_H-M   'P 1'
_cell_length_a   9.29459198
_cell_length_b   9.34161695
_cell_length_c   10.05484869
_cell_angle_alpha   90.08730547
_cell_angle_beta   90.02617531
_cell_angle_gamma   60.06054266
_symmetry_Int_Tables_number   1
_chemical_formula_structural   Al11BN12
_chemical_formula_sum   'Al33 B3 N36'
_cell_volume   756.52389719
_cell_formula_units_Z   3
loop_
 _symmetry_equiv_pos_site_id
 _symmetry_equiv_pos_as_xyz
  1  'x, y, z'
loop_
 _atom_site_type_symbol
 _atom_site_label
 _atom_site_symmetry_multiplicity
 _atom_site_fract_x
 _atom_site_fract_y
 _atom_site_fract_z
 _atom_site_occupancy
  Al  Al0  1  0.11386761  0.08816565  0.31683505  1
  Al  Al1  1  0.21855127  0.20337866  0.06865256  1
  Al  Al2  1  0.89599404  0.20524758  0.57034427  1
  Al  Al3  1  0.44150928  0.09414470  0.31893432  1
  Al  Al4  1  0.55753877  0.20782807  0.13016555  1
  Al  Al5  1  0.10778312  0.08921646  0.82658276  1
  Al  Al6  1  0.22802725  0.20094671  0.57183137  1
  Al  Al7  1  0.77863493  0.08710763  0.38820518  1
  Al  Al8  1  0.89332911  0.20344453  0.06650000  1
  Al  Al9  1  0.44929241  0.09776797  0.83433157  1
  Al  Al10  1  0.56745276  0.20320265  0.63867500  1
  Al  Al11  1  0.10967048  0.42806904  0.32184340  1
  Al  Al12  1  0.22180901  0.54163423  0.07122696  1
  Al  Al13  1  0.77920071  0.41657834  0.81946612  1
  Al  Al14  1  0.89362597  0.53135627  0.57630807  1
  Al  Al15  1  0.44176197  0.43354376  0.32461326  1
  Al  Al16  1  0.55073184  0.54244077  0.07134334  1
  Al  Al17  1  0.11218408  0.42207727  0.81916206  1
  Al  Al18  1  0.21881219  0.54369586  0.57575548  1
  Al  Al19  1  0.77942689  0.42749713  0.32000352  1
  Al  Al20  1  0.88980535  0.53564159  0.05491127  1
  Al  Al21  1  0.44599179  0.43176115  0.82639218  1
  Al  Al22  1  0.55468223  0.54199960  0.57353573  1
  Al  Al23  1  0.11827801  0.76071045  0.31545363  1
  Al  Al24  1  0.87825731  0.87864644  0.65423229  1
  Al  Al25  1  0.43712297  0.75908411  0.31768889  1
  Al  Al26  1  0.55305941  0.87030057  0.12595641  1
  Al  Al27  1  0.10850625  0.76212712  0.84131565  1
  Al  Al28  1  0.22186447  0.87106192  0.57846004  1
  Al  Al29  1  0.77745046  0.76447837  0.38990721  1
  Al  Al30  1  0.88856164  0.87840500  0.12665817  1
  Al  Al31  1  0.44739131  0.75833251  0.83805172  1
  Al  Al32  1  0.56849162  0.86541803  0.64735707  1
  B  B33  1  0.76718004  0.09997673  0.90290810  1
  B  B34  1  0.22301731  0.87006607  0.06671548  1
  B  B35  1  0.74902732  0.82169120  0.90878666  1
  N  N36  1  0.22345523  0.20232595  0.38026957  1
  N  N37  1  0.12106237  0.07014436  0.12423568  1
  N  N38  1  0.87846175  0.18816676  0.87513397  1
  N  N39  1  0.78192061  0.08686724  0.57740168  1
  N  N40  1  0.56114087  0.20356829  0.33149973  1
  N  N41  1  0.43748225  0.09906041  0.12115241  1
  N  N42  1  0.22529795  0.19893491  0.88121461  1
  N  N43  1  0.11432007  0.09220425  0.63614918  1
  N  N44  1  0.89407448  0.20553001  0.37632861  1
  N  N45  1  0.77054693  0.09410924  0.06323957  1
  N  N46  1  0.58350370  0.19750840  0.84452081  1
  N  N47  1  0.44533726  0.09483881  0.63586027  1
  N  N48  1  0.21892132  0.54337824  0.38347294  1
  N  N49  1  0.10732591  0.43119184  0.13175720  1
  N  N50  1  0.89894378  0.51240205  0.87389796  1
  N  N51  1  0.77676552  0.42450551  0.63009818  1
  N  N52  1  0.55510599  0.54153077  0.38276244  1
  N  N53  1  0.43945881  0.43664111  0.13240322  1
  N  N54  1  0.22232160  0.53463089  0.88393940  1
  N  N55  1  0.11645700  0.42349486  0.62996281  1
  N  N56  1  0.89206363  0.53248735  0.38315968  1
  N  N57  1  0.77662562  0.42990565  0.13011725  1
  N  N58  1  0.55877018  0.53697045  0.88509022  1
  N  N59  1  0.44204939  0.43342048  0.63324498  1
  N  N60  1  0.22161702  0.87119464  0.38837933  1
  N  N61  1  0.12692316  0.77261663  0.11938441  1
  N  N62  1  0.85658650  0.89196739  0.85049535  1
  N  N63  1  0.78006821  0.76496038  0.58018466  1
  N  N64  1  0.56337457  0.86321299  0.32224469  1
  N  N65  1  0.41560840  0.77188045  0.12115447  1
  N  N66  1  0.22325279  0.87183687  0.90490712  1
  N  N67  1  0.11168492  0.76248289  0.64768916  1
  N  N68  1  0.88487856  0.87201828  0.31738378  1
  N  N69  1  0.77249411  0.77483412  0.05572212  1
  N  N70  1  0.58432431  0.86381189  0.84763819  1
  N  N71  1  0.44273052  0.76038159  0.64363200  1
