# generated using pymatgen
data_Al11BN12
_symmetry_space_group_name_H-M   'P 1'
_cell_length_a   9.29017363
_cell_length_b   9.32050684
_cell_length_c   10.05206213
_cell_angle_alpha   90.06217746
_cell_angle_beta   89.77645157
_cell_angle_gamma   60.10728476
_symmetry_Int_Tables_number   1
_chemical_formula_structural   Al11BN12
_chemical_formula_sum   'Al33 B3 N36'
_cell_volume   754.59111669
_cell_formula_units_Z   3
loop_
 _symmetry_equiv_pos_site_id
 _symmetry_equiv_pos_as_xyz
  1  'x, y, z'
loop_
 _atom_site_type_symbol
 _atom_site_label
 _atom_site_symmetry_multiplicity
 _atom_site_fract_x
 _atom_site_fract_y
 _atom_site_fract_z
 _atom_site_occupancy
  Al  Al0  1  0.11503013  0.08821940  0.31740275  1
  Al  Al1  1  0.22186838  0.20225409  0.06930972  1
  Al  Al2  1  0.89385181  0.20525494  0.57285797  1
  Al  Al3  1  0.44345434  0.09727389  0.31864281  1
  Al  Al4  1  0.54911791  0.21159415  0.07071098  1
  Al  Al5  1  0.10945695  0.08888138  0.82838806  1
  Al  Al6  1  0.22302815  0.20307160  0.57126061  1
  Al  Al7  1  0.78342658  0.08479543  0.38826341  1
  Al  Al8  1  0.89586820  0.20310231  0.06916436  1
  Al  Al9  1  0.45377965  0.09626360  0.82469991  1
  Al  Al10  1  0.54974374  0.21056390  0.57208089  1
  Al  Al11  1  0.11013621  0.42772176  0.32223911  1
  Al  Al12  1  0.22441105  0.54036438  0.07206874  1
  Al  Al13  1  0.77935630  0.41600069  0.82050902  1
  Al  Al14  1  0.89264277  0.53211366  0.57771020  1
  Al  Al15  1  0.44413489  0.42817472  0.32316541  1
  Al  Al16  1  0.55197529  0.54069128  0.07138726  1
  Al  Al17  1  0.11386413  0.42105320  0.82044103  1
  Al  Al18  1  0.21647501  0.54583040  0.57604219  1
  Al  Al19  1  0.77923182  0.42785806  0.32017417  1
  Al  Al20  1  0.89221464  0.53396223  0.05620352  1
  Al  Al21  1  0.44970267  0.42553887  0.82140282  1
  Al  Al22  1  0.55456073  0.54049443  0.57261839  1
  Al  Al23  1  0.12076860  0.75947441  0.31641453  1
  Al  Al24  1  0.87254680  0.88314855  0.65871157  1
  Al  Al25  1  0.43845249  0.76016412  0.31810519  1
  Al  Al26  1  0.55031051  0.87348340  0.11038124  1
  Al  Al27  1  0.11056106  0.76118228  0.84225727  1
  Al  Al28  1  0.21819222  0.87176711  0.57875590  1
  Al  Al29  1  0.77968544  0.76340682  0.38943359  1
  Al  Al30  1  0.89189343  0.87641496  0.13045918  1
  Al  Al31  1  0.45123588  0.75942086  0.83652949  1
  Al  Al32  1  0.55787773  0.87015654  0.61480805  1
  B  B33  1  0.77402175  0.09439914  0.90837102  1
  B  B34  1  0.22495786  0.86930683  0.06726839  1
  B  B35  1  0.74804994  0.82353700  0.91449845  1
  N  N36  1  0.22274002  0.20289441  0.38049380  1
  N  N37  1  0.12429271  0.06929327  0.12459553  1
  N  N38  1  0.87894910  0.18700021  0.87702553  1
  N  N39  1  0.78081189  0.08790665  0.58066426  1
  N  N40  1  0.55011284  0.20847226  0.37979047  1
  N  N41  1  0.44031031  0.10216944  0.12894479  1
  N  N42  1  0.23027771  0.19683902  0.88109951  1
  N  N43  1  0.11290265  0.09271751  0.63751133  1
  N  N44  1  0.89436926  0.20582443  0.37657954  1
  N  N45  1  0.77853237  0.09059273  0.07160550  1
  N  N46  1  0.57363759  0.20109954  0.87971720  1
  N  N47  1  0.44397730  0.09692893  0.63347700  1
  N  N48  1  0.21947700  0.54306371  0.38344135  1
  N  N49  1  0.10934343  0.42994028  0.13213914  1
  N  N50  1  0.90051213  0.51022145  0.87523263  1
  N  N51  1  0.77565682  0.42539391  0.63093322  1
  N  N52  1  0.55468146  0.54072300  0.38171231  1
  N  N53  1  0.44446129  0.42848517  0.13434985  1
  N  N54  1  0.22500217  0.53317085  0.88429755  1
  N  N55  1  0.11530059  0.42440804  0.63082266  1
  N  N56  1  0.89231671  0.53219354  0.38387023  1
  N  N57  1  0.77749220  0.42982926  0.13052861  1
  N  N58  1  0.55786989  0.53641373  0.88389003  1
  N  N59  1  0.44177308  0.43082618  0.63208535  1
  N  N60  1  0.22155325  0.87144156  0.38918182  1
  N  N61  1  0.13035396  0.77075603  0.12058368  1
  N  N62  1  0.85410014  0.89567372  0.85417720  1
  N  N63  1  0.77996615  0.76545441  0.58171174  1
  N  N64  1  0.55967520  0.86743250  0.33676776  1
  N  N65  1  0.41769317  0.77091560  0.12294092  1
  N  N66  1  0.22572566  0.87076859  0.90526638  1
  N  N67  1  0.10832626  0.76380076  0.64944239  1
  N  N68  1  0.88704405  0.87095775  0.31917830  1
  N  N69  1  0.77842139  0.77174276  0.06075025  1
  N  N70  1  0.57823777  0.86893601  0.86717048  1
  N  N71  1  0.44110715  0.76081722  0.64190786  1
