# generated using pymatgen
data_Al11BN12
_symmetry_space_group_name_H-M   'P 1'
_cell_length_a   9.30041620
_cell_length_b   9.27361425
_cell_length_c   10.06700619
_cell_angle_alpha   90.08172186
_cell_angle_beta   90.12870404
_cell_angle_gamma   60.01633883
_symmetry_Int_Tables_number   1
_chemical_formula_structural   Al11BN12
_chemical_formula_sum   'Al33 B3 N36'
_cell_volume   752.06042338
_cell_formula_units_Z   3
loop_
 _symmetry_equiv_pos_site_id
 _symmetry_equiv_pos_as_xyz
  1  'x, y, z'
loop_
 _atom_site_type_symbol
 _atom_site_label
 _atom_site_symmetry_multiplicity
 _atom_site_fract_x
 _atom_site_fract_y
 _atom_site_fract_z
 _atom_site_occupancy
  Al  Al0  1  0.11418377  0.08793411  0.31293855  1
  Al  Al1  1  0.21741437  0.20652028  0.06934769  1
  Al  Al2  1  0.88616614  0.19832920  0.63861104  1
  Al  Al3  1  0.45231967  0.08727038  0.38970781  1
  Al  Al4  1  0.55977973  0.20125345  0.13869710  1
  Al  Al5  1  0.11541730  0.08760709  0.83297770  1
  Al  Al6  1  0.21666530  0.20442184  0.57227349  1
  Al  Al7  1  0.78347028  0.09003458  0.38846325  1
  Al  Al8  1  0.89144813  0.20158015  0.08762672  1
  Al  Al9  1  0.46043095  0.08932824  0.89117275  1
  Al  Al10  1  0.56360445  0.19548047  0.64131130  1
  Al  Al11  1  0.11082513  0.42639411  0.32048163  1
  Al  Al12  1  0.22506056  0.54218904  0.07096175  1
  Al  Al13  1  0.77334974  0.43744815  0.82691013  1
  Al  Al14  1  0.89187998  0.53032201  0.56996841  1
  Al  Al15  1  0.44256020  0.43148425  0.32474441  1
  Al  Al16  1  0.54791309  0.54568983  0.07084408  1
  Al  Al17  1  0.10717814  0.43450385  0.81880016  1
  Al  Al18  1  0.22004852  0.54190667  0.57386916  1
  Al  Al19  1  0.77821030  0.42678633  0.31463565  1
  Al  Al20  1  0.88916762  0.54297106  0.06312473  1
  Al  Al21  1  0.44766435  0.42872795  0.82396104  1
  Al  Al22  1  0.55509918  0.53962394  0.57267003  1
  Al  Al23  1  0.11707349  0.76147541  0.31399349  1
  Al  Al24  1  0.87998049  0.87238999  0.65263386  1
  Al  Al25  1  0.43627642  0.76039111  0.31802502  1
  Al  Al26  1  0.55162550  0.87722201  0.13252657  1
  Al  Al27  1  0.10958351  0.76391394  0.83912347  1
  Al  Al28  1  0.22077925  0.87049461  0.57602729  1
  Al  Al29  1  0.77751986  0.76489191  0.38660192  1
  Al  Al30  1  0.88723200  0.87899464  0.12355699  1
  Al  Al31  1  0.44528126  0.75994631  0.83264033  1
  Al  Al32  1  0.56559263  0.86826168  0.64643907  1
  B  B33  1  0.76800471  0.09172261  0.89721049  1
  B  B34  1  0.22569491  0.87080701  0.06649744  1
  B  B35  1  0.76875994  0.77886908  0.90049727  1
  N  N36  1  0.21857425  0.20358843  0.37852005  1
  N  N37  1  0.12718603  0.06838134  0.11834235  1
  N  N38  1  0.87777497  0.19216462  0.85610287  1
  N  N39  1  0.78147319  0.08690696  0.57820034  1
  N  N40  1  0.56107832  0.19762770  0.33016671  1
  N  N41  1  0.44704443  0.09687712  0.07932279  1
  N  N42  1  0.21839783  0.21054609  0.87849164  1
  N  N43  1  0.11620332  0.08894988  0.64130173  1
  N  N44  1  0.88876274  0.20070966  0.33409793  1
  N  N45  1  0.76952158  0.09639392  0.05545165  1
  N  N46  1  0.58391926  0.19005783  0.83528458  1
  N  N47  1  0.45090562  0.08773971  0.58315693  1
  N  N48  1  0.21963510  0.54180718  0.38264992  1
  N  N49  1  0.10869846  0.43210907  0.13075705  1
  N  N50  1  0.88130052  0.56153936  0.87383049  1
  N  N51  1  0.77549955  0.42957210  0.63641242  1
  N  N52  1  0.55665838  0.54003558  0.38228262  1
  N  N53  1  0.44231773  0.43393126  0.13345271  1
  N  N54  1  0.22555319  0.53569184  0.88390582  1
  N  N55  1  0.11198944  0.42648481  0.63059944  1
  N  N56  1  0.89141229  0.53123257  0.37870142  1
  N  N57  1  0.77489947  0.43629235  0.12176959  1
  N  N58  1  0.55506693  0.53918038  0.88526390  1
  N  N59  1  0.44303126  0.42912638  0.63194449  1
  N  N60  1  0.22091121  0.87171610  0.38729911  1
  N  N61  1  0.12710148  0.77381576  0.11893889  1
  N  N62  1  0.86297343  0.88511810  0.84800799  1
  N  N63  1  0.77814374  0.76391422  0.57672933  1
  N  N64  1  0.55972259  0.86947539  0.32286886  1
  N  N65  1  0.41607506  0.77399313  0.12317330  1
  N  N66  1  0.22624245  0.87060867  0.90497521  1
  N  N67  1  0.11289210  0.76048446  0.64522010  1
  N  N68  1  0.88462580  0.87212790  0.31585485  1
  N  N69  1  0.76913332  0.77598428  0.06019683  1
  N  N70  1  0.58388363  0.86106399  0.84014472  1
  N  N71  1  0.44093895  0.75963779  0.63996138  1
