# generated using pymatgen
data_Al11BN12
_symmetry_space_group_name_H-M   'P 1'
_cell_length_a   9.28963317
_cell_length_b   9.30558731
_cell_length_c   10.08341450
_cell_angle_alpha   90.05828395
_cell_angle_beta   90.06283037
_cell_angle_gamma   59.96491323
_symmetry_Int_Tables_number   1
_chemical_formula_structural   Al11BN12
_chemical_formula_sum   'Al33 B3 N36'
_cell_volume   754.61706728
_cell_formula_units_Z   3
loop_
 _symmetry_equiv_pos_site_id
 _symmetry_equiv_pos_as_xyz
  1  'x, y, z'
loop_
 _atom_site_type_symbol
 _atom_site_label
 _atom_site_symmetry_multiplicity
 _atom_site_fract_x
 _atom_site_fract_y
 _atom_site_fract_z
 _atom_site_occupancy
  Al  Al0  1  0.11344574  0.08845115  0.31728397  1
  Al  Al1  1  0.21735536  0.20365711  0.06880476  1
  Al  Al2  1  0.89593634  0.20543151  0.57151748  1
  Al  Al3  1  0.44109193  0.09393823  0.31775470  1
  Al  Al4  1  0.55893187  0.20684018  0.13168168  1
  Al  Al5  1  0.10750562  0.08991492  0.82555587  1
  Al  Al6  1  0.22887478  0.20077764  0.57294161  1
  Al  Al7  1  0.77847172  0.08697507  0.38955678  1
  Al  Al8  1  0.89343503  0.20175587  0.06508569  1
  Al  Al9  1  0.44904017  0.09523408  0.83821423  1
  Al  Al10  1  0.56952463  0.20039447  0.64438161  1
  Al  Al11  1  0.11047972  0.42780063  0.32169419  1
  Al  Al12  1  0.22223069  0.54213127  0.07099001  1
  Al  Al13  1  0.77820151  0.42491304  0.82033679  1
  Al  Al14  1  0.89371742  0.53196781  0.57297098  1
  Al  Al15  1  0.44209738  0.43339829  0.32409213  1
  Al  Al16  1  0.55039843  0.54286646  0.07111999  1
  Al  Al17  1  0.10767867  0.43045038  0.81939359  1
  Al  Al18  1  0.22052005  0.54255628  0.57551916  1
  Al  Al19  1  0.77958798  0.42681036  0.31935294  1
  Al  Al20  1  0.88938730  0.53754158  0.06072405  1
  Al  Al21  1  0.44694818  0.43125134  0.82669595  1
  Al  Al22  1  0.55518345  0.54103931  0.57346053  1
  Al  Al23  1  0.11776439  0.76106778  0.31485120  1
  Al  Al24  1  0.87953794  0.87655805  0.65422473  1
  Al  Al25  1  0.43695389  0.75912368  0.31706445  1
  Al  Al26  1  0.55325497  0.87013255  0.12425120  1
  Al  Al27  1  0.10843557  0.76337664  0.84011910  1
  Al  Al28  1  0.22223493  0.87047079  0.57730360  1
  Al  Al29  1  0.77633098  0.76584055  0.38864194  1
  Al  Al30  1  0.88733482  0.87756794  0.12555479  1
  Al  Al31  1  0.44577029  0.75872949  0.83671733  1
  Al  Al32  1  0.56861435  0.86433382  0.64914763  1
  B  B33  1  0.76682697  0.09551347  0.90210859  1
  B  B34  1  0.22255628  0.87027349  0.06722306  1
  B  B35  1  0.76323541  0.79036905  0.90420842  1
  N  N36  1  0.22400728  0.20219049  0.38109549  1
  N  N37  1  0.12041136  0.07031680  0.12499770  1
  N  N38  1  0.87948512  0.19316710  0.87496330  1
  N  N39  1  0.78190601  0.08661402  0.57803177  1
  N  N40  1  0.56245122  0.20220010  0.32869482  1
  N  N41  1  0.43679802  0.09986647  0.11897537  1
  N  N42  1  0.21845202  0.20590270  0.88162633  1
  N  N43  1  0.11477053  0.09193396  0.63601717  1
  N  N44  1  0.89403889  0.20562664  0.37787128  1
  N  N45  1  0.77012383  0.09329353  0.06070876  1
  N  N46  1  0.58490216  0.19504446  0.84329076  1
  N  N47  1  0.44469629  0.09457293  0.63903616  1
  N  N48  1  0.21966766  0.54261795  0.38359925  1
  N  N49  1  0.10789685  0.43088410  0.13185967  1
  N  N50  1  0.88532266  0.54534685  0.87377520  1
  N  N51  1  0.77794385  0.42614863  0.63164602  1
  N  N52  1  0.55598616  0.54059232  0.38291926  1
  N  N53  1  0.43975574  0.43673922  0.13238485  1
  N  N54  1  0.22356571  0.53540623  0.88436376  1
  N  N55  1  0.11487020  0.42501950  0.63083816  1
  N  N56  1  0.89221709  0.53249261  0.38140813  1
  N  N57  1  0.77758585  0.42836410  0.12924357  1
  N  N58  1  0.55883359  0.53725291  0.88565374  1
  N  N59  1  0.44352204  0.43175714  0.63415254  1
  N  N60  1  0.22168331  0.87087727  0.38798870  1
  N  N61  1  0.12637706  0.77289384  0.11962039  1
  N  N62  1  0.86049929  0.88611543  0.84961993  1
  N  N63  1  0.77897333  0.76563329  0.57850726  1
  N  N64  1  0.56285169  0.86326094  0.32081868  1
  N  N65  1  0.41494774  0.77204135  0.12147006  1
  N  N66  1  0.22273499  0.87301234  0.90511173  1
  N  N67  1  0.11315209  0.76142396  0.64659602  1
  N  N68  1  0.88456891  0.87262456  0.31663110  1
  N  N69  1  0.77261683  0.77237203  0.05940923  1
  N  N70  1  0.58408950  0.85950443  0.84804295  1
  N  N71  1  0.44223232  0.75950062  0.64271769  1
