# generated using pymatgen
data_Al11BN12
_symmetry_space_group_name_H-M   'P 1'
_cell_length_a   9.30759283
_cell_length_b   9.28592593
_cell_length_c   10.06515323
_cell_angle_alpha   89.88235051
_cell_angle_beta   89.91057051
_cell_angle_gamma   60.00494817
_symmetry_Int_Tables_number   1
_chemical_formula_structural   Al11BN12
_chemical_formula_sum   'Al33 B3 N36'
_cell_volume   753.41500941
_cell_formula_units_Z   3
loop_
 _symmetry_equiv_pos_site_id
 _symmetry_equiv_pos_as_xyz
  1  'x, y, z'
loop_
 _atom_site_type_symbol
 _atom_site_label
 _atom_site_symmetry_multiplicity
 _atom_site_fract_x
 _atom_site_fract_y
 _atom_site_fract_z
 _atom_site_occupancy
  Al  Al0  1  0.11907070  0.08544911  0.31221533  1
  Al  Al1  1  0.21830244  0.20648206  0.07542251  1
  Al  Al2  1  0.88518359  0.19545422  0.64723496  1
  Al  Al3  1  0.44776168  0.08940019  0.38962153  1
  Al  Al4  1  0.55927227  0.20147584  0.13744667  1
  Al  Al5  1  0.11087412  0.08694376  0.84034992  1
  Al  Al6  1  0.22385216  0.20138928  0.60480571  1
  Al  Al7  1  0.78289928  0.08901663  0.38599613  1
  Al  Al8  1  0.88747173  0.20073926  0.12052127  1
  Al  Al9  1  0.46139599  0.08913930  0.89027540  1
  Al  Al10  1  0.56628062  0.19556711  0.64012044  1
  Al  Al11  1  0.11140549  0.42608608  0.31806534  1
  Al  Al12  1  0.22485705  0.54366652  0.07014206  1
  Al  Al13  1  0.77280421  0.43620280  0.82639765  1
  Al  Al14  1  0.89401287  0.52825614  0.56974426  1
  Al  Al15  1  0.44214824  0.43085267  0.32432188  1
  Al  Al16  1  0.54730879  0.54626923  0.07036804  1
  Al  Al17  1  0.10524692  0.43823567  0.82230333  1
  Al  Al18  1  0.22076672  0.54195255  0.57268102  1
  Al  Al19  1  0.77594333  0.43126130  0.31552695  1
  Al  Al20  1  0.88669931  0.54452698  0.06172503  1
  Al  Al21  1  0.44754993  0.42896692  0.82293930  1
  Al  Al22  1  0.55625106  0.53915585  0.57266708  1
  Al  Al23  1  0.11629691  0.76142766  0.31295428  1
  Al  Al24  1  0.88115672  0.87172801  0.65108600  1
  Al  Al25  1  0.43608958  0.76031234  0.31793189  1
  Al  Al26  1  0.55126773  0.87764207  0.13271496  1
  Al  Al27  1  0.10946466  0.76359521  0.83727477  1
  Al  Al28  1  0.22144664  0.87071144  0.57605456  1
  Al  Al29  1  0.77761400  0.76457273  0.38581949  1
  Al  Al30  1  0.88689351  0.87973302  0.12009277  1
  Al  Al31  1  0.44540749  0.76020780  0.83187475  1
  Al  Al32  1  0.56841173  0.86603452  0.64578481  1
  B  B33  1  0.76865633  0.09930301  0.89613198  1
  B  B34  1  0.22505087  0.87009260  0.06554208  1
  B  B35  1  0.76786560  0.78125073  0.89922366  1
  N  N36  1  0.22185070  0.20248459  0.36228556  1
  N  N37  1  0.12641998  0.06757637  0.11466668  1
  N  N38  1  0.87237506  0.18912848  0.84370455  1
  N  N39  1  0.78366959  0.08656842  0.57442770  1
  N  N40  1  0.56082703  0.19711736  0.32976452  1
  N  N41  1  0.44768269  0.09678753  0.07739650  1
  N  N42  1  0.22058370  0.20889836  0.87173691  1
  N  N43  1  0.11597922  0.08626515  0.64465841  1
  N  N44  1  0.88694220  0.19881252  0.31745598  1
  N  N45  1  0.77100441  0.10020708  0.05478501  1
  N  N46  1  0.58380068  0.19100787  0.83437180  1
  N  N47  1  0.45272014  0.08729534  0.58423149  1
  N  N48  1  0.21899638  0.54197728  0.38169951  1
  N  N49  1  0.10629839  0.43577333  0.12712114  1
  N  N50  1  0.87965902  0.56043093  0.87326318  1
  N  N51  1  0.77704863  0.42777266  0.63465530  1
  N  N52  1  0.55594899  0.53963867  0.38247207  1
  N  N53  1  0.44175252  0.43414076  0.13308205  1
  N  N54  1  0.22611876  0.53658194  0.88355497  1
  N  N55  1  0.11223879  0.42885935  0.63338783  1
  N  N56  1  0.89265144  0.53017564  0.37895245  1
  N  N57  1  0.77226536  0.44005038  0.12321041  1
  N  N58  1  0.55459168  0.53934429  0.88455471  1
  N  N59  1  0.44354198  0.42887575  0.63075603  1
  N  N60  1  0.22000290  0.87140476  0.38714409  1
  N  N61  1  0.12689430  0.77422110  0.11851228  1
  N  N62  1  0.86383600  0.88268205  0.84664025  1
  N  N63  1  0.78025936  0.76256804  0.57569271  1
  N  N64  1  0.55946031  0.86937515  0.32353752  1
  N  N65  1  0.41562517  0.77438159  0.12305338  1
  N  N66  1  0.22676892  0.86816136  0.90474055  1
  N  N67  1  0.11393502  0.75991332  0.64372283  1
  N  N68  1  0.88402735  0.87204504  0.31361145  1
  N  N69  1  0.76796614  0.77764465  0.05876624  1
  N  N70  1  0.58398034  0.86139277  0.83886794  1
  N  N71  1  0.44214657  0.75944695  0.63892543  1
