# generated using pymatgen
data_Al11BN12
_symmetry_space_group_name_H-M   'P 1'
_cell_length_a   9.31666857
_cell_length_b   9.30847930
_cell_length_c   9.99697260
_cell_angle_alpha   89.94715631
_cell_angle_beta   89.90233860
_cell_angle_gamma   59.90965288
_symmetry_Int_Tables_number   1
_chemical_formula_structural   Al11BN12
_chemical_formula_sum   'Al33 B3 N36'
_cell_volume   750.13906640
_cell_formula_units_Z   3
loop_
 _symmetry_equiv_pos_site_id
 _symmetry_equiv_pos_as_xyz
  1  'x, y, z'
loop_
 _atom_site_type_symbol
 _atom_site_label
 _atom_site_symmetry_multiplicity
 _atom_site_fract_x
 _atom_site_fract_y
 _atom_site_fract_z
 _atom_site_occupancy
  Al  Al0  1  0.10418627  0.10273033  0.38812871  1
  Al  Al1  1  0.22314785  0.19895207  0.13786905  1
  Al  Al2  1  0.88615343  0.20260152  0.64193747  1
  Al  Al3  1  0.44572272  0.09276929  0.38729405  1
  Al  Al4  1  0.56105503  0.19795545  0.13004440  1
  Al  Al5  1  0.10717659  0.09189598  0.89184520  1
  Al  Al6  1  0.22120487  0.20662377  0.63857411  1
  Al  Al7  1  0.77970883  0.09068107  0.38450671  1
  Al  Al8  1  0.89344501  0.19705485  0.13194490  1
  Al  Al9  1  0.45504129  0.08908539  0.88779108  1
  Al  Al10  1  0.56155798  0.20142981  0.63981500  1
  Al  Al11  1  0.10481932  0.42797121  0.38546040  1
  Al  Al12  1  0.22322013  0.54560582  0.06846289  1
  Al  Al13  1  0.78184421  0.42505597  0.88889612  1
  Al  Al14  1  0.88616341  0.54504645  0.64055251  1
  Al  Al15  1  0.44298049  0.42819531  0.34094326  1
  Al  Al16  1  0.55702692  0.53949226  0.12510033  1
  Al  Al17  1  0.10411647  0.42841942  0.88708447  1
  Al  Al18  1  0.22174223  0.54563232  0.57264832  1
  Al  Al19  1  0.77421680  0.43039812  0.38743793  1
  Al  Al20  1  0.88833493  0.54032812  0.13292034  1
  Al  Al21  1  0.45426490  0.41793270  0.86685971  1
  Al  Al22  1  0.55722238  0.53641575  0.64232150  1
  Al  Al23  1  0.11525156  0.76590245  0.30848440  1
  Al  Al24  1  0.87813771  0.87804537  0.64685431  1
  Al  Al25  1  0.43071850  0.77165399  0.31247003  1
  Al  Al26  1  0.55511905  0.87515746  0.12442178  1
  Al  Al27  1  0.11036728  0.76100055  0.83027859  1
  Al  Al28  1  0.22343004  0.86853440  0.57342985  1
  Al  Al29  1  0.77763322  0.76383777  0.38271489  1
  Al  Al30  1  0.88874648  0.87517540  0.11468532  1
  Al  Al31  1  0.44753446  0.76253564  0.83610515  1
  Al  Al32  1  0.56334227  0.87334862  0.64179717  1
  B  B33  1  0.77308204  0.08922433  0.89352879  1
  B  B34  1  0.22735087  0.86608491  0.05819331  1
  B  B35  1  0.77256473  0.77038423  0.89415236  1
  N  N36  1  0.22270970  0.20514806  0.32827777  1
  N  N37  1  0.12151182  0.07387842  0.08324379  1
  N  N38  1  0.88048774  0.18766438  0.83434400  1
  N  N39  1  0.77973373  0.09135022  0.57363070  1
  N  N40  1  0.55892398  0.19953687  0.32248844  1
  N  N41  1  0.44267538  0.09636284  0.07443353  1
  N  N42  1  0.22386594  0.20120507  0.82927746  1
  N  N43  1  0.10507051  0.10251396  0.58169628  1
  N  N44  1  0.88527578  0.20651025  0.32355243  1
  N  N45  1  0.77728973  0.09539930  0.05379787  1
  N  N46  1  0.58507286  0.18622865  0.83512202  1
  N  N47  1  0.44590214  0.09398361  0.57983492  1
  N  N48  1  0.21769022  0.54766484  0.37293129  1
  N  N49  1  0.10961460  0.42364953  0.08064364  1
  N  N50  1  0.87806645  0.56317586  0.83266098  1
  N  N51  1  0.77762838  0.42862403  0.58068915  1
  N  N52  1  0.55736974  0.54087843  0.32252452  1
  N  N53  1  0.44859579  0.42312985  0.09479235  1
  N  N54  1  0.22398459  0.53776952  0.87607723  1
  N  N55  1  0.10612747  0.42794319  0.57950741  1
  N  N56  1  0.88501913  0.54182783  0.32374010  1
  N  N57  1  0.78332937  0.42368650  0.07666614  1
  N  N58  1  0.56364362  0.53291736  0.83833779  1
  N  N59  1  0.44469031  0.42583670  0.60813482  1
  N  N60  1  0.22099204  0.87001831  0.38317836  1
  N  N61  1  0.12855743  0.77361877  0.11526407  1
  N  N62  1  0.86497371  0.88324243  0.84478202  1
  N  N63  1  0.77891164  0.76361410  0.57276140  1
  N  N64  1  0.55808691  0.87456331  0.31949312  1
  N  N65  1  0.41633540  0.77705245  0.11300963  1
  N  N66  1  0.22907889  0.86026855  0.89719731  1
  N  N67  1  0.11076315  0.76389311  0.63876540  1
  N  N68  1  0.88244950  0.87530028  0.31094557  1
  N  N69  1  0.77820334  0.75972509  0.05494965  1
  N  N70  1  0.58568711  0.86127287  0.83870259  1
  N  N71  1  0.43808754  0.76913118  0.63805489  1
