# generated using pymatgen
data_Al11BN12
_symmetry_space_group_name_H-M   'P 1'
_cell_length_a   9.30363867
_cell_length_b   9.27809198
_cell_length_c   10.04415875
_cell_angle_alpha   89.99797591
_cell_angle_beta   90.04977124
_cell_angle_gamma   60.04365020
_symmetry_Int_Tables_number   1
_chemical_formula_structural   Al11BN12
_chemical_formula_sum   'Al33 B3 N36'
_cell_volume   751.18401349
_cell_formula_units_Z   3
loop_
 _symmetry_equiv_pos_site_id
 _symmetry_equiv_pos_as_xyz
  1  'x, y, z'
loop_
 _atom_site_type_symbol
 _atom_site_label
 _atom_site_symmetry_multiplicity
 _atom_site_fract_x
 _atom_site_fract_y
 _atom_site_fract_z
 _atom_site_occupancy
  Al  Al0  1  0.10580986  0.10168184  0.38921527  1
  Al  Al1  1  0.22537800  0.19525867  0.13540868  1
  Al  Al2  1  0.88699517  0.20267979  0.64323721  1
  Al  Al3  1  0.44701435  0.09142255  0.38779427  1
  Al  Al4  1  0.56089876  0.19982598  0.13303454  1
  Al  Al5  1  0.10799807  0.09059148  0.89365941  1
  Al  Al6  1  0.22245442  0.20421239  0.64018898  1
  Al  Al7  1  0.78055846  0.08990171  0.38480873  1
  Al  Al8  1  0.89268025  0.19792355  0.13255265  1
  Al  Al9  1  0.45719901  0.08891189  0.88865292  1
  Al  Al10  1  0.56463607  0.19660912  0.63728139  1
  Al  Al11  1  0.11045626  0.43056964  0.34571742  1
  Al  Al12  1  0.22738407  0.54193085  0.06787687  1
  Al  Al13  1  0.78321031  0.42335813  0.88771238  1
  Al  Al14  1  0.88445796  0.54558931  0.64185673  1
  Al  Al15  1  0.44322582  0.43273915  0.32018278  1
  Al  Al16  1  0.54660081  0.54520594  0.06833640  1
  Al  Al17  1  0.10711791  0.43038061  0.86352290  1
  Al  Al18  1  0.21868552  0.54311087  0.57196795  1
  Al  Al19  1  0.78252310  0.42607692  0.38751127  1
  Al  Al20  1  0.88456338  0.54278990  0.12913468  1
  Al  Al21  1  0.44930484  0.42696430  0.82027992  1
  Al  Al22  1  0.54851645  0.54458238  0.57193449  1
  Al  Al23  1  0.11577294  0.76607899  0.30816724  1
  Al  Al24  1  0.87925418  0.87693072  0.64813144  1
  Al  Al25  1  0.43423417  0.76423140  0.31346213  1
  Al  Al26  1  0.55467529  0.87477024  0.12733053  1
  Al  Al27  1  0.11019334  0.76164620  0.83262214  1
  Al  Al28  1  0.22192781  0.86811801  0.57357111  1
  Al  Al29  1  0.77769290  0.76420473  0.38324069  1
  Al  Al30  1  0.88783897  0.87589914  0.11393581  1
  Al  Al31  1  0.44808708  0.75779678  0.82822183  1
  Al  Al32  1  0.56395007  0.87210662  0.64190140  1
  B  B33  1  0.77065996  0.09195591  0.89312016  1
  B  B34  1  0.22696434  0.86501625  0.05994282  1
  B  B35  1  0.77032048  0.77002661  0.89400043  1
  N  N36  1  0.22549208  0.20107416  0.32695773  1
  N  N37  1  0.12105245  0.07249361  0.08364214  1
  N  N38  1  0.88062796  0.18811809  0.83447183  1
  N  N39  1  0.78164252  0.09035160  0.57327111  1
  N  N40  1  0.56003236  0.19884537  0.32664565  1
  N  N41  1  0.44467265  0.09621769  0.07460394  1
  N  N42  1  0.22664472  0.19674003  0.83214674  1
  N  N43  1  0.10576888  0.10129191  0.58199555  1
  N  N44  1  0.88695672  0.20526281  0.32324032  1
  N  N45  1  0.77481723  0.09786617  0.05350242  1
  N  N46  1  0.58463909  0.18825345  0.83309915  1
  N  N47  1  0.44588697  0.09254977  0.57924342  1
  N  N48  1  0.22059686  0.54666720  0.37797571  1
  N  N49  1  0.11213168  0.42650892  0.09786231  1
  N  N50  1  0.87369615  0.56645744  0.83515992  1
  N  N51  1  0.78201769  0.42562897  0.58300781  1
  N  N52  1  0.54939168  0.54588616  0.37951124  1
  N  N53  1  0.44371347  0.43221562  0.12993964  1
  N  N54  1  0.22913462  0.53587088  0.88022650  1
  N  N55  1  0.10881780  0.42929857  0.60668813  1
  N  N56  1  0.88248137  0.54406161  0.32145991  1
  N  N57  1  0.78337037  0.42275335  0.07844944  1
  N  N58  1  0.55396611  0.53836747  0.87927152  1
  N  N59  1  0.44228364  0.42966802  0.62926771  1
  N  N60  1  0.22196011  0.86921113  0.38392002  1
  N  N61  1  0.12779745  0.77300213  0.11481242  1
  N  N62  1  0.86446822  0.88370307  0.84511237  1
  N  N63  1  0.77872828  0.76349576  0.57252031  1
  N  N64  1  0.55849418  0.87281289  0.32021881  1
  N  N65  1  0.41661400  0.77398915  0.11928782  1
  N  N66  1  0.23151225  0.85911128  0.89813769  1
  N  N67  1  0.11169734  0.76237624  0.64109321  1
  N  N68  1  0.88321664  0.87458892  0.31020758  1
  N  N69  1  0.77520824  0.76185074  0.05417279  1
  N  N70  1  0.58411615  0.86100667  0.83687204  1
  N  N71  1  0.44002939  0.76339125  0.63734836  1
