# generated using pymatgen
data_Al11BN12
_symmetry_space_group_name_H-M   'P 1'
_cell_length_a   9.30087640
_cell_length_b   9.29833416
_cell_length_c   10.06781444
_cell_angle_alpha   90.09311837
_cell_angle_beta   90.05861827
_cell_angle_gamma   59.89575785
_symmetry_Int_Tables_number   1
_chemical_formula_structural   Al11BN12
_chemical_formula_sum   'Al33 B3 N36'
_cell_volume   753.24650129
_cell_formula_units_Z   3
loop_
 _symmetry_equiv_pos_site_id
 _symmetry_equiv_pos_as_xyz
  1  'x, y, z'
loop_
 _atom_site_type_symbol
 _atom_site_label
 _atom_site_symmetry_multiplicity
 _atom_site_fract_x
 _atom_site_fract_y
 _atom_site_fract_z
 _atom_site_occupancy
  Al  Al0  1  0.11311127  0.08866613  0.31759592  1
  Al  Al1  1  0.21643409  0.20401432  0.06890645  1
  Al  Al2  1  0.89508180  0.20576162  0.57231205  1
  Al  Al3  1  0.44105572  0.09400763  0.31754117  1
  Al  Al4  1  0.55968109  0.20617401  0.13002901  1
  Al  Al5  1  0.10724942  0.09106070  0.82509247  1
  Al  Al6  1  0.22871294  0.20089303  0.57379377  1
  Al  Al7  1  0.77814439  0.08711182  0.38959972  1
  Al  Al8  1  0.89393005  0.20091361  0.06439547  1
  Al  Al9  1  0.44970386  0.09375851  0.84416217  1
  Al  Al10  1  0.56884652  0.19899609  0.64591672  1
  Al  Al11  1  0.11069454  0.42806800  0.32202624  1
  Al  Al12  1  0.22274530  0.54237145  0.07086958  1
  Al  Al13  1  0.77748615  0.42772487  0.82067615  1
  Al  Al14  1  0.89308696  0.53291574  0.57201570  1
  Al  Al15  1  0.44242499  0.43302292  0.32346498  1
  Al  Al16  1  0.55062603  0.54281492  0.07102735  1
  Al  Al17  1  0.10628816  0.43389884  0.81941021  1
  Al  Al18  1  0.22107832  0.54228685  0.57552549  1
  Al  Al19  1  0.77948892  0.42662341  0.31936520  1
  Al  Al20  1  0.88995648  0.53737933  0.06402412  1
  Al  Al21  1  0.44765130  0.43048010  0.82713865  1
  Al  Al22  1  0.55497050  0.54082095  0.57357274  1
  Al  Al23  1  0.11781493  0.76121903  0.31499827  1
  Al  Al24  1  0.87957383  0.87648890  0.65420360  1
  Al  Al25  1  0.43689207  0.75942053  0.31666289  1
  Al  Al26  1  0.55368383  0.86956585  0.12258573  1
  Al  Al27  1  0.10851733  0.76452199  0.83957467  1
  Al  Al28  1  0.22219898  0.87056126  0.57690392  1
  Al  Al29  1  0.77548553  0.76682616  0.38811955  1
  Al  Al30  1  0.88779476  0.87637029  0.12523685  1
  Al  Al31  1  0.44487845  0.75877627  0.83634103  1
  Al  Al32  1  0.56795529  0.86464957  0.65056978  1
  B  B33  1  0.76744239  0.09167290  0.90212273  1
  B  B34  1  0.22262582  0.87046865  0.06721458  1
  B  B35  1  0.76887588  0.77648815  0.90321227  1
  N  N36  1  0.22409241  0.20230422  0.38089782  1
  N  N37  1  0.12054129  0.07033787  0.12524516  1
  N  N38  1  0.88024043  0.19558111  0.87466789  1
  N  N39  1  0.78083025  0.08724426  0.57834975  1
  N  N40  1  0.56264957  0.20145462  0.32715529  1
  N  N41  1  0.43763906  0.09947830  0.11410645  1
  N  N42  1  0.21532609  0.20924112  0.88164435  1
  N  N43  1  0.11422992  0.09229114  0.63557235  1
  N  N44  1  0.89372554  0.20567751  0.37824777  1
  N  N45  1  0.77148872  0.09203802  0.06041504  1
  N  N46  1  0.58530902  0.19381282  0.84459741  1
  N  N47  1  0.44364016  0.09451879  0.64064878  1
  N  N48  1  0.22029723  0.54221336  0.38341894  1
  N  N49  1  0.10876447  0.43073283  0.13200418  1
  N  N50  1  0.88085091  0.55669278  0.87427369  1
  N  N51  1  0.77790454  0.42738570  0.63199751  1
  N  N52  1  0.55604361  0.54036630  0.38262212  1
  N  N53  1  0.44031754  0.43637884  0.13161562  1
  N  N54  1  0.22398091  0.53616500  0.88412333  1
  N  N55  1  0.11366125  0.42625125  0.63081702  1
  N  N56  1  0.89188201  0.53296269  0.38045299  1
  N  N57  1  0.77807592  0.42762024  0.12885554  1
  N  N58  1  0.55880980  0.53726621  0.88552994  1
  N  N59  1  0.44398408  0.43084185  0.63443692  1
  N  N60  1  0.22186567  0.87089637  0.38765661  1
  N  N61  1  0.12672450  0.77286174  0.11969335  1
  N  N62  1  0.86221329  0.88530823  0.84950362  1
  N  N63  1  0.77782330  0.76655387  0.57837321  1
  N  N64  1  0.56239762  0.86381149  0.31969268  1
  N  N65  1  0.41495115  0.77198944  0.12120067  1
  N  N66  1  0.22253910  0.87397184  0.90492832  1
  N  N67  1  0.11323997  0.76152608  0.64570221  1
  N  N68  1  0.88492396  0.87245069  0.31682414  1
  N  N69  1  0.77358591  0.77053642  0.06126931  1
  N  N70  1  0.58436654  0.85697526  0.84917410  1
  N  N71  1  0.44172810  0.75953260  0.64230334  1
