# generated using pymatgen
data_Al11BN12
_symmetry_space_group_name_H-M   'P 1'
_cell_length_a   9.28960080
_cell_length_b   9.27313819
_cell_length_c   10.02554194
_cell_angle_alpha   89.82116912
_cell_angle_beta   89.69735479
_cell_angle_gamma   60.01530234
_symmetry_Int_Tables_number   1
_chemical_formula_structural   Al11BN12
_chemical_formula_sum   'Al33 B3 N36'
_cell_volume   748.03702400
_cell_formula_units_Z   3
loop_
 _symmetry_equiv_pos_site_id
 _symmetry_equiv_pos_as_xyz
  1  'x, y, z'
loop_
 _atom_site_type_symbol
 _atom_site_label
 _atom_site_symmetry_multiplicity
 _atom_site_fract_x
 _atom_site_fract_y
 _atom_site_fract_z
 _atom_site_occupancy
  Al  Al0  1  0.10604442  0.10135282  0.39522451  1
  Al  Al1  1  0.22322579  0.19831901  0.14640170  1
  Al  Al2  1  0.88547896  0.20330419  0.65071413  1
  Al  Al3  1  0.44602503  0.09379571  0.39685886  1
  Al  Al4  1  0.55818318  0.20289942  0.14301598  1
  Al  Al5  1  0.10462160  0.09452205  0.89788896  1
  Al  Al6  1  0.22138752  0.20671207  0.64810676  1
  Al  Al7  1  0.78174566  0.08914695  0.39242038  1
  Al  Al8  1  0.89188113  0.19821840  0.13899386  1
  Al  Al9  1  0.45433476  0.08903734  0.89766636  1
  Al  Al10  1  0.56060268  0.20303865  0.64913251  1
  Al  Al11  1  0.10621600  0.42847384  0.39234796  1
  Al  Al12  1  0.22347005  0.54462554  0.07750206  1
  Al  Al13  1  0.77695228  0.42779474  0.89676470  1
  Al  Al14  1  0.88579324  0.54484872  0.64940420  1
  Al  Al15  1  0.45105059  0.42412480  0.39451947  1
  Al  Al16  1  0.55095011  0.54323702  0.14773104  1
  Al  Al17  1  0.10376322  0.42900507  0.89553049  1
  Al  Al18  1  0.21625895  0.54850028  0.58112430  1
  Al  Al19  1  0.77887781  0.42728566  0.39603442  1
  Al  Al20  1  0.88579345  0.54140680  0.14053568  1
  Al  Al21  1  0.45935566  0.41770407  0.89616746  1
  Al  Al22  1  0.55612966  0.53896440  0.64796054  1
  Al  Al23  1  0.12077440  0.76459202  0.31296229  1
  Al  Al24  1  0.87587820  0.87903363  0.65653679  1
  Al  Al25  1  0.45097690  0.76012987  0.39665860  1
  Al  Al26  1  0.55063008  0.87305779  0.14201391  1
  Al  Al27  1  0.10943900  0.75933218  0.83833852  1
  Al  Al28  1  0.21683249  0.87124771  0.58182860  1
  Al  Al29  1  0.78129042  0.76364568  0.39188223  1
  Al  Al30  1  0.88680558  0.87588645  0.12214864  1
  Al  Al31  1  0.45546958  0.75578850  0.89888762  1
  Al  Al32  1  0.56125308  0.86995231  0.65101127  1
  B  B33  1  0.77089787  0.09160056  0.90190514  1
  B  B34  1  0.22312675  0.86843554  0.06150763  1
  B  B35  1  0.77047356  0.77042866  0.90227675  1
  N  N36  1  0.22352111  0.20531587  0.33632070  1
  N  N37  1  0.12153658  0.07318701  0.08924955  1
  N  N38  1  0.87692095  0.19042411  0.84286873  1
  N  N39  1  0.77961079  0.09161623  0.58190127  1
  N  N40  1  0.55864257  0.20310599  0.33329544  1
  N  N41  1  0.44405764  0.09505810  0.08541672  1
  N  N42  1  0.22295413  0.20253101  0.83804338  1
  N  N43  1  0.10492742  0.10297833  0.59089327  1
  N  N44  1  0.88721858  0.20559224  0.33059040  1
  N  N45  1  0.77485889  0.09682266  0.06199217  1
  N  N46  1  0.58199941  0.19023824  0.84204724  1
  N  N47  1  0.44594613  0.09391063  0.58987811  1
  N  N48  1  0.21860594  0.54808008  0.38057168  1
  N  N49  1  0.10839305  0.42384421  0.08874850  1
  N  N50  1  0.87658970  0.56408344  0.84157349  1
  N  N51  1  0.77931221  0.42714499  0.58876259  1
  N  N52  1  0.55710439  0.53964228  0.33674685  1
  N  N53  1  0.45312708  0.42323420  0.08819621  1
  N  N54  1  0.22640901  0.53554141  0.88203763  1
  N  N55  1  0.10580278  0.42736884  0.58772010  1
  N  N56  1  0.88584822  0.54189932  0.33136965  1
  N  N57  1  0.77698995  0.42707886  0.08534473  1
  N  N58  1  0.55834775  0.53754224  0.83603719  1
  N  N59  1  0.44975278  0.42426522  0.58902942  1
  N  N60  1  0.22005990  0.87110411  0.38966363  1
  N  N61  1  0.12933336  0.77381779  0.12010319  1
  N  N62  1  0.86204418  0.88366367  0.85321662  1
  N  N63  1  0.77944769  0.76351395  0.58172372  1
  N  N64  1  0.55812085  0.87229440  0.33243055  1
  N  N65  1  0.42652434  0.77001273  0.08953061  1
  N  N66  1  0.22280351  0.86474169  0.89696559  1
  N  N67  1  0.10950359  0.76366957  0.64850653  1
  N  N68  1  0.88503620  0.87461155  0.31738733  1
  N  N69  1  0.77406141  0.76138949  0.06357708  1
  N  N70  1  0.58061552  0.85975883  0.84419271  1
  N  N71  1  0.45039373  0.76067972  0.59221655  1
