# generated using pymatgen
data_Al11BN12
_symmetry_space_group_name_H-M   'P 1'
_cell_length_a   9.25891431
_cell_length_b   9.25919122
_cell_length_c   9.89683912
_cell_angle_alpha   89.99029492
_cell_angle_beta   89.93567690
_cell_angle_gamma   59.99522737
_symmetry_Int_Tables_number   1
_chemical_formula_structural   Al11BN12
_chemical_formula_sum   'Al33 B3 N36'
_cell_volume   734.74908472
_cell_formula_units_Z   3
loop_
 _symmetry_equiv_pos_site_id
 _symmetry_equiv_pos_as_xyz
  1  'x, y, z'
loop_
 _atom_site_type_symbol
 _atom_site_label
 _atom_site_symmetry_multiplicity
 _atom_site_fract_x
 _atom_site_fract_y
 _atom_site_fract_z
 _atom_site_occupancy
  Al  Al0  1  0.11196459  0.08961682  0.29582982  1
  Al  Al1  1  0.22358834  0.20063638  0.04949988  1
  Al  Al2  1  0.88861531  0.20335047  0.55715906  1
  Al  Al3  1  0.44599474  0.09352704  0.29991258  1
  Al  Al4  1  0.56198719  0.20211302  0.04553107  1
  Al  Al5  1  0.10896605  0.08983201  0.80547769  1
  Al  Al6  1  0.22099036  0.20481051  0.55011765  1
  Al  Al7  1  0.77877556  0.09239031  0.30238665  1
  Al  Al8  1  0.89044699  0.19668480  0.04545260  1
  Al  Al9  1  0.45460600  0.08920676  0.79904475  1
  Al  Al10  1  0.55704711  0.20463544  0.55504754  1
  Al  Al11  1  0.10907355  0.42914063  0.30002881  1
  Al  Al12  1  0.22414747  0.54230616  0.04984141  1
  Al  Al13  1  0.77585469  0.42833365  0.80058440  1
  Al  Al14  1  0.88696375  0.54198316  0.55683511  1
  Al  Al15  1  0.44539301  0.42633273  0.29993839  1
  Al  Al16  1  0.55138726  0.54201597  0.05029826  1
  Al  Al17  1  0.10831303  0.43316119  0.79934425  1
  Al  Al18  1  0.22136934  0.54124868  0.54966962  1
  Al  Al19  1  0.77981712  0.42691234  0.30023925  1
  Al  Al20  1  0.88707483  0.54455131  0.04495996  1
  Al  Al21  1  0.45011959  0.42410741  0.79878640  1
  Al  Al22  1  0.55476290  0.54071199  0.54904934  1
  Al  Al23  1  0.11004089  0.76576360  0.29639990  1
  Al  Al24  1  0.88755451  0.87300494  0.56471207  1
  Al  Al25  1  0.43979548  0.76472380  0.29540536  1
  Al  Al26  1  0.55714620  0.87086796  0.04588871  1
  Al  Al27  1  0.10618964  0.76505633  0.80653475  1
  Al  Al28  1  0.22204588  0.87191068  0.55132827  1
  Al  Al29  1  0.77852244  0.76222616  0.30228705  1
  Al  Al30  1  0.88692936  0.87620187  0.04129905  1
  Al  Al31  1  0.44755671  0.76043739  0.80567715  1
  Al  Al32  1  0.55596021  0.87090490  0.55533551  1
  B  B33  1  0.77180219  0.09328383  0.79389702  1
  B  B34  1  0.22170623  0.87313767  0.04482074  1
  B  B35  1  0.77161127  0.76832263  0.79425064  1
  N  N36  1  0.22100857  0.20442082  0.35622183  1
  N  N37  1  0.12205033  0.07012108  0.10012315  1
  N  N38  1  0.87650242  0.19101209  0.85234659  1
  N  N39  1  0.77576041  0.09543371  0.63070121  1
  N  N40  1  0.55703587  0.20447030  0.36298855  1
  N  N41  1  0.44716497  0.09355790  0.10610651  1
  N  N42  1  0.22283099  0.20545441  0.85824285  1
  N  N43  1  0.11208896  0.09229784  0.61382893  1
  N  N44  1  0.88984756  0.20377588  0.36239791  1
  N  N45  1  0.77884708  0.09179787  0.11276075  1
  N  N46  1  0.58071923  0.19287412  0.85114038  1
  N  N47  1  0.44334556  0.09468663  0.60911975  1
  N  N48  1  0.22080828  0.54171796  0.35630031  1
  N  N49  1  0.10989149  0.42854846  0.10716332  1
  N  N50  1  0.87709254  0.56498217  0.85153987  1
  N  N51  1  0.77674508  0.42796623  0.61003784  1
  N  N52  1  0.55505005  0.54110735  0.35580233  1
  N  N53  1  0.44664743  0.42424079  0.10813659  1
  N  N54  1  0.22529517  0.53739394  0.85939105  1
  N  N55  1  0.11168632  0.42802165  0.60836087  1
  N  N56  1  0.88741957  0.54106595  0.36377007  1
  N  N57  1  0.78126517  0.42552172  0.10539260  1
  N  N58  1  0.55601532  0.53809656  0.86066353  1
  N  N59  1  0.44422328  0.42879557  0.60788526  1
  N  N60  1  0.22203877  0.87193276  0.36173143  1
  N  N61  1  0.12006273  0.77544230  0.09908441  1
  N  N62  1  0.86623058  0.88355921  0.84646451  1
  N  N63  1  0.77526730  0.76253511  0.63080072  1
  N  N64  1  0.55577406  0.87064380  0.36142475  1
  N  N65  1  0.42094053  0.77482518  0.10017559  1
  N  N66  1  0.22411680  0.87105090  0.88013765  1
  N  N67  1  0.11278828  0.76158256  0.61526933  1
  N  N68  1  0.88915289  0.87202892  0.36859874  1
  N  N69  1  0.77914349  0.76288682  0.11168221  1
  N  N70  1  0.58079841  0.85976722  0.85248465  1
  N  N71  1  0.44252861  0.76156192  0.61376841  1
