# generated using pymatgen
data_Al11BN12
_symmetry_space_group_name_H-M   'P 1'
_cell_length_a   9.29409320
_cell_length_b   9.27367229
_cell_length_c   10.07572239
_cell_angle_alpha   90.09369762
_cell_angle_beta   90.07383621
_cell_angle_gamma   59.93892478
_symmetry_Int_Tables_number   1
_chemical_formula_structural   Al11BN12
_chemical_formula_sum   'Al33 B3 N36'
_cell_volume   751.61828985
_cell_formula_units_Z   3
loop_
 _symmetry_equiv_pos_site_id
 _symmetry_equiv_pos_as_xyz
  1  'x, y, z'
loop_
 _atom_site_type_symbol
 _atom_site_label
 _atom_site_symmetry_multiplicity
 _atom_site_fract_x
 _atom_site_fract_y
 _atom_site_fract_z
 _atom_site_occupancy
  Al  Al0  1  0.11339130  0.08918956  0.31663042  1
  Al  Al1  1  0.21456717  0.20498839  0.06946253  1
  Al  Al2  1  0.89405932  0.20578688  0.57209898  1
  Al  Al3  1  0.45201118  0.08801907  0.38628064  1
  Al  Al4  1  0.55740633  0.20187975  0.13576161  1
  Al  Al5  1  0.10735736  0.09092025  0.82504901  1
  Al  Al6  1  0.22043930  0.20497199  0.57387397  1
  Al  Al7  1  0.77902425  0.08690750  0.38896997  1
  Al  Al8  1  0.89266894  0.20100833  0.06408020  1
  Al  Al9  1  0.45772837  0.09014508  0.89014640  1
  Al  Al10  1  0.56693637  0.19631897  0.64472465  1
  Al  Al11  1  0.11100976  0.42743852  0.32091103  1
  Al  Al12  1  0.22379134  0.54188215  0.07064544  1
  Al  Al13  1  0.77709323  0.42794487  0.82048357  1
  Al  Al14  1  0.89225212  0.53368660  0.57182359  1
  Al  Al15  1  0.44221702  0.43255414  0.32326201  1
  Al  Al16  1  0.55047316  0.54284698  0.07115889  1
  Al  Al17  1  0.10642308  0.43393400  0.81942070  1
  Al  Al18  1  0.22114310  0.54244897  0.57511231  1
  Al  Al19  1  0.77935001  0.42661731  0.31891125  1
  Al  Al20  1  0.88891008  0.53839932  0.06373429  1
  Al  Al21  1  0.44766432  0.42962284  0.82577481  1
  Al  Al22  1  0.55471385  0.54100040  0.57352206  1
  Al  Al23  1  0.11802159  0.76115517  0.31444875  1
  Al  Al24  1  0.87988510  0.87630343  0.65389643  1
  Al  Al25  1  0.43651275  0.76039260  0.31678239  1
  Al  Al26  1  0.55148018  0.87595433  0.12969570  1
  Al  Al27  1  0.10919369  0.76429745  0.83945258  1
  Al  Al28  1  0.22223776  0.87032545  0.57654824  1
  Al  Al29  1  0.77673677  0.76599000  0.38762702  1
  Al  Al30  1  0.88741290  0.87650241  0.12399224  1
  Al  Al31  1  0.44512987  0.75962781  0.83495873  1
  Al  Al32  1  0.56604373  0.86924119  0.64907403  1
  B  B33  1  0.76785123  0.09095346  0.90061386  1
  B  B34  1  0.22313637  0.87062392  0.06720836  1
  B  B35  1  0.76893602  0.77623651  0.90161531  1
  N  N36  1  0.21938138  0.20466806  0.37920336  1
  N  N37  1  0.12040390  0.07043778  0.12462228  1
  N  N38  1  0.87952011  0.19496826  0.87428306  1
  N  N39  1  0.78064951  0.08721225  0.57781971  1
  N  N40  1  0.56100911  0.19862375  0.32687995  1
  N  N41  1  0.44441896  0.09662378  0.07887172  1
  N  N42  1  0.21521315  0.20922247  0.87790714  1
  N  N43  1  0.11317727  0.09197103  0.63598757  1
  N  N44  1  0.89348870  0.20563021  0.37773084  1
  N  N45  1  0.76881626  0.09338083  0.05991519  1
  N  N46  1  0.58402781  0.19087824  0.83883368  1
  N  N47  1  0.45252530  0.08914767  0.58650251  1
  N  N48  1  0.22027244  0.54199493  0.38331537  1
  N  N49  1  0.10860745  0.43105947  0.13119338  1
  N  N50  1  0.88012254  0.55806725  0.87397042  1
  N  N51  1  0.77773910  0.42747457  0.63198538  1
  N  N52  1  0.55600140  0.54054085  0.38250262  1
  N  N53  1  0.44121369  0.43440958  0.13224054  1
  N  N54  1  0.22458095  0.53580221  0.88413660  1
  N  N55  1  0.11277044  0.42752940  0.63131909  1
  N  N56  1  0.89176313  0.53304018  0.37989024  1
  N  N57  1  0.77812772  0.42758343  0.12860365  1
  N  N58  1  0.55843247  0.53737132  0.88541088  1
  N  N59  1  0.44382949  0.43008751  0.63393014  1
  N  N60  1  0.22170818  0.87128141  0.38757098  1
  N  N61  1  0.12696309  0.77283512  0.11945005  1
  N  N62  1  0.86309715  0.88502321  0.84952173  1
  N  N63  1  0.77811694  0.76642043  0.57793122  1
  N  N64  1  0.56007086  0.86948099  0.32082406  1
  N  N65  1  0.41572461  0.77300103  0.12211231  1
  N  N66  1  0.22333749  0.87374615  0.90503069  1
  N  N67  1  0.11340786  0.76144548  0.64576541  1
  N  N68  1  0.88524368  0.87225859  0.31580578  1
  N  N69  1  0.77065753  0.77182134  0.06084387  1
  N  N70  1  0.58373600  0.86042540  0.84274704  1
  N  N71  1  0.44146714  0.76048544  0.64181416  1
