# generated using pymatgen
data_Al11BN12
_symmetry_space_group_name_H-M   'P 1'
_cell_length_a   9.26304181
_cell_length_b   9.32441527
_cell_length_c   10.00209200
_cell_angle_alpha   90.21031286
_cell_angle_beta   89.74927731
_cell_angle_gamma   60.08366753
_symmetry_Int_Tables_number   1
_chemical_formula_structural   Al11BN12
_chemical_formula_sum   'Al33 B3 N36'
_cell_volume   748.76955781
_cell_formula_units_Z   3
loop_
 _symmetry_equiv_pos_site_id
 _symmetry_equiv_pos_as_xyz
  1  'x, y, z'
loop_
 _atom_site_type_symbol
 _atom_site_label
 _atom_site_symmetry_multiplicity
 _atom_site_fract_x
 _atom_site_fract_y
 _atom_site_fract_z
 _atom_site_occupancy
  Al  Al0  1  0.11284396  0.08868889  0.30738718  1
  Al  Al1  1  0.22434322  0.19878988  0.05879419  1
  Al  Al2  1  0.88928661  0.20612381  0.56519874  1
  Al  Al3  1  0.44574243  0.09454351  0.30701308  1
  Al  Al4  1  0.56207469  0.20459070  0.05530650  1
  Al  Al5  1  0.10958007  0.08912874  0.81404878  1
  Al  Al6  1  0.22135326  0.20620255  0.56136577  1
  Al  Al7  1  0.77773508  0.09732967  0.30851543  1
  Al  Al8  1  0.88982695  0.19695746  0.05490100  1
  Al  Al9  1  0.46115296  0.08560144  0.81006454  1
  Al  Al10  1  0.55386574  0.20773621  0.56405510  1
  Al  Al11  1  0.11226444  0.42626329  0.30969934  1
  Al  Al12  1  0.22770737  0.53730005  0.06177986  1
  Al  Al13  1  0.77190952  0.43707007  0.80962935  1
  Al  Al14  1  0.88971958  0.53851833  0.55936676  1
  Al  Al15  1  0.44649691  0.42591502  0.31240411  1
  Al  Al16  1  0.55085762  0.54219638  0.06109400  1
  Al  Al17  1  0.10837983  0.43086167  0.81179979  1
  Al  Al18  1  0.21548186  0.54751925  0.56304373  1
  Al  Al19  1  0.77920025  0.42525942  0.30904805  1
  Al  Al20  1  0.88929854  0.53622458  0.06482985  1
  Al  Al21  1  0.44603243  0.43045539  0.80707553  1
  Al  Al22  1  0.55304217  0.54431299  0.55919856  1
  Al  Al23  1  0.12189415  0.75938670  0.30568070  1
  Al  Al24  1  0.87518925  0.87041573  0.65546565  1
  Al  Al25  1  0.43952682  0.76466014  0.30433578  1
  Al  Al26  1  0.55402049  0.87144275  0.06198632  1
  Al  Al27  1  0.11309760  0.75407631  0.83090140  1
  Al  Al28  1  0.21771448  0.87284674  0.56415099  1
  Al  Al29  1  0.78190131  0.76344506  0.36306675  1
  Al  Al30  1  0.89118108  0.86810780  0.11561379  1
  Al  Al31  1  0.44755474  0.76258010  0.81643890  1
  Al  Al32  1  0.54836983  0.87612191  0.55746540  1
  B  B33  1  0.74913923  0.15293698  0.79783601  1
  B  B34  1  0.22431744  0.86943335  0.05572074  1
  B  B35  1  0.78318692  0.75256946  0.87247995  1
  N  N36  1  0.22218399  0.20406458  0.36832979  1
  N  N37  1  0.12124119  0.06993548  0.11110480  1
  N  N38  1  0.87048477  0.20183383  0.86096980  1
  N  N39  1  0.76931583  0.11028638  0.64882573  1
  N  N40  1  0.55803136  0.20380038  0.37443127  1
  N  N41  1  0.44720092  0.09597222  0.11442035  1
  N  N42  1  0.22519826  0.20218946  0.86853953  1
  N  N43  1  0.11099633  0.09427306  0.62437923  1
  N  N44  1  0.88934972  0.20387676  0.37406224  1
  N  N45  1  0.77542790  0.09872063  0.11858162  1
  N  N46  1  0.58052045  0.20184428  0.86132252  1
  N  N47  1  0.44444964  0.09529172  0.62182782  1
  N  N48  1  0.22171919  0.54053604  0.37050397  1
  N  N49  1  0.11402191  0.42433479  0.11906506  1
  N  N50  1  0.87780764  0.55420527  0.87104782  1
  N  N51  1  0.77569298  0.43113258  0.62073294  1
  N  N52  1  0.55451260  0.54248952  0.36748306  1
  N  N53  1  0.44809296  0.42368126  0.12173626  1
  N  N54  1  0.23035807  0.52808524  0.87389412  1
  N  N55  1  0.11016691  0.42913328  0.62182133  1
  N  N56  1  0.89274007  0.53023568  0.36815410  1
  N  N57  1  0.77941424  0.42147267  0.11744770  1
  N  N58  1  0.55288835  0.54163361  0.87148622  1
  N  N59  1  0.44172833  0.43211033  0.61810048  1
  N  N60  1  0.22254118  0.87229142  0.37503157  1
  N  N61  1  0.13216041  0.76813116  0.10769942  1
  N  N62  1  0.88166375  0.83296619  0.84382345  1
  N  N63  1  0.77836893  0.76877283  0.56573234  1
  N  N64  1  0.54643291  0.87640974  0.36462109  1
  N  N65  1  0.41965541  0.77420410  0.11097383  1
  N  N66  1  0.22261702  0.87279731  0.89187362  1
  N  N67  1  0.11036129  0.76505940  0.63504984  1
  N  N68  1  0.89489974  0.87023503  0.31721851  1
  N  N69  1  0.77562311  0.75603541  0.10330804  1
  N  N70  1  0.58382351  0.85688112  0.86828379  1
  N  N71  1  0.44099260  0.76472014  0.62546713  1
