# generated using pymatgen
data_Al11BN12
_symmetry_space_group_name_H-M   'P 1'
_cell_length_a   9.30874372
_cell_length_b   9.28721309
_cell_length_c   10.06156970
_cell_angle_alpha   89.93268245
_cell_angle_beta   89.98419214
_cell_angle_gamma   60.01487885
_symmetry_Int_Tables_number   1
_chemical_formula_structural   Al11BN12
_chemical_formula_sum   'Al33 B3 N36'
_cell_volume   753.42082879
_cell_formula_units_Z   3
loop_
 _symmetry_equiv_pos_site_id
 _symmetry_equiv_pos_as_xyz
  1  'x, y, z'
loop_
 _atom_site_type_symbol
 _atom_site_label
 _atom_site_symmetry_multiplicity
 _atom_site_fract_x
 _atom_site_fract_y
 _atom_site_fract_z
 _atom_site_occupancy
  Al  Al0  1  0.10403503  0.10335424  0.39029483  1
  Al  Al1  1  0.22767725  0.19201970  0.13606942  1
  Al  Al2  1  0.88676818  0.20097001  0.64687950  1
  Al  Al3  1  0.44567908  0.09186808  0.38839756  1
  Al  Al4  1  0.56052486  0.20033284  0.13384488  1
  Al  Al5  1  0.11025560  0.08937513  0.89452450  1
  Al  Al6  1  0.22373773  0.20025494  0.64033341  1
  Al  Al7  1  0.77978247  0.08961382  0.38556657  1
  Al  Al8  1  0.89463380  0.19351253  0.12750157  1
  Al  Al9  1  0.45769916  0.08877934  0.88897860  1
  Al  Al10  1  0.56433198  0.19727310  0.63760539  1
  Al  Al11  1  0.11269180  0.43287971  0.31668301  1
  Al  Al12  1  0.22773819  0.54071242  0.06711069  1
  Al  Al13  1  0.78105128  0.42518990  0.87168087  1
  Al  Al14  1  0.87949762  0.54912685  0.64433834  1
  Al  Al15  1  0.44076229  0.43255055  0.32201775  1
  Al  Al16  1  0.54630096  0.54525942  0.06779869  1
  Al  Al17  1  0.11183915  0.43381986  0.82843570  1
  Al  Al18  1  0.21759427  0.54253082  0.57197683  1
  Al  Al19  1  0.77441697  0.42957396  0.34227551  1
  Al  Al20  1  0.88594219  0.54572033  0.12086137  1
  Al  Al21  1  0.44974346  0.42714256  0.81996582  1
  Al  Al22  1  0.55455533  0.54104401  0.57322861  1
  Al  Al23  1  0.11527493  0.76559202  0.30949905  1
  Al  Al24  1  0.87923613  0.87713111  0.64892964  1
  Al  Al25  1  0.43245655  0.76588008  0.31433261  1
  Al  Al26  1  0.55482652  0.87479973  0.12842822  1
  Al  Al27  1  0.11044023  0.76184131  0.83364407  1
  Al  Al28  1  0.22190039  0.86744848  0.57391245  1
  Al  Al29  1  0.77730367  0.76380908  0.38375432  1
  Al  Al30  1  0.88789663  0.87607138  0.11587090  1
  Al  Al31  1  0.44837056  0.75777554  0.82761983  1
  Al  Al32  1  0.56340760  0.87238390  0.64218936  1
  B  B33  1  0.77265779  0.09043975  0.89365917  1
  B  B34  1  0.22830761  0.86350689  0.06055582  1
  B  B35  1  0.77208810  0.76995884  0.89448547  1
  N  N36  1  0.22475003  0.20052550  0.32891805  1
  N  N37  1  0.12286401  0.07143831  0.08363442  1
  N  N38  1  0.88297275  0.18224571  0.83887426  1
  N  N39  1  0.78160828  0.09028153  0.57358063  1
  N  N40  1  0.55928401  0.19891155  0.32739872  1
  N  N41  1  0.44543964  0.09592422  0.07497781  1
  N  N42  1  0.22802444  0.19474918  0.83306733  1
  N  N43  1  0.10425136  0.10173885  0.58206912  1
  N  N44  1  0.88762527  0.20133916  0.31967737  1
  N  N45  1  0.77402536  0.09672659  0.05402901  1
  N  N46  1  0.58499592  0.18848108  0.83308079  1
  N  N47  1  0.44571991  0.09292227  0.57927025  1
  N  N48  1  0.21780719  0.54522040  0.38065386  1
  N  N49  1  0.11723351  0.42858629  0.12037435  1
  N  N50  1  0.87508222  0.57101639  0.84119734  1
  N  N51  1  0.77619850  0.42765064  0.61727143  1
  N  N52  1  0.55035882  0.54465257  0.37997687  1
  N  N53  1  0.44353478  0.43291899  0.13174502  1
  N  N54  1  0.22941643  0.53475891  0.88181756  1
  N  N55  1  0.11043125  0.43191049  0.63191342  1
  N  N56  1  0.88160856  0.54724482  0.31912282  1
  N  N57  1  0.78126703  0.42400870  0.08708730  1
  N  N58  1  0.55268418  0.53906692  0.88146094  1
  N  N59  1  0.44140348  0.43036137  0.62856900  1
  N  N60  1  0.22063978  0.86947594  0.38475092  1
  N  N61  1  0.12825376  0.77235490  0.11581288  1
  N  N62  1  0.86476040  0.88397134  0.84542049  1
  N  N63  1  0.77864881  0.76392395  0.57271926  1
  N  N64  1  0.55770689  0.87303196  0.32117437  1
  N  N65  1  0.41689407  0.77371240  0.12062965  1
  N  N66  1  0.23278658  0.85769919  0.89907259  1
  N  N67  1  0.11169162  0.76196693  0.64190812  1
  N  N68  1  0.88281688  0.87450826  0.31132527  1
  N  N69  1  0.77425994  0.76510341  0.05451243  1
  N  N70  1  0.58438301  0.86100165  0.83669214  1
  N  N71  1  0.44002495  0.76312596  0.63663492  1
