# generated using pymatgen
data_Al11BN12
_symmetry_space_group_name_H-M   'P 1'
_cell_length_a   9.29600471
_cell_length_b   9.28154728
_cell_length_c   9.94371968
_cell_angle_alpha   89.70409894
_cell_angle_beta   89.67309293
_cell_angle_gamma   60.02663876
_symmetry_Int_Tables_number   1
_chemical_formula_structural   Al11BN12
_chemical_formula_sum   'Al33 B3 N36'
_cell_volume   743.19729075
_cell_formula_units_Z   3
loop_
 _symmetry_equiv_pos_site_id
 _symmetry_equiv_pos_as_xyz
  1  'x, y, z'
loop_
 _atom_site_type_symbol
 _atom_site_label
 _atom_site_symmetry_multiplicity
 _atom_site_fract_x
 _atom_site_fract_y
 _atom_site_fract_z
 _atom_site_occupancy
  Al  Al0  1  0.10786615  0.09643308  0.40177233  1
  Al  Al1  1  0.22448085  0.19695616  0.14718112  1
  Al  Al2  1  0.88550869  0.20326681  0.65270697  1
  Al  Al3  1  0.44536045  0.09224663  0.39729724  1
  Al  Al4  1  0.55903492  0.20191979  0.14442644  1
  Al  Al5  1  0.11082917  0.08734920  0.89225948  1
  Al  Al6  1  0.22078104  0.20760621  0.64954659  1
  Al  Al7  1  0.78126815  0.08970975  0.39349170  1
  Al  Al8  1  0.89166894  0.19741715  0.13923400  1
  Al  Al9  1  0.45429926  0.09067012  0.89752845  1
  Al  Al10  1  0.56047881  0.20334157  0.64938465  1
  Al  Al11  1  0.10923158  0.42841766  0.39115305  1
  Al  Al12  1  0.22737449  0.53786164  0.12396137  1
  Al  Al13  1  0.77730005  0.42870298  0.89689318  1
  Al  Al14  1  0.88589763  0.54544330  0.64914415  1
  Al  Al15  1  0.44590085  0.42629377  0.39259623  1
  Al  Al16  1  0.55114483  0.54263974  0.14794903  1
  Al  Al17  1  0.10569242  0.43298795  0.89876813  1
  Al  Al18  1  0.22141320  0.53786751  0.62892806  1
  Al  Al19  1  0.77924296  0.42591747  0.39629289  1
  Al  Al20  1  0.88582850  0.54112682  0.14211857  1
  Al  Al21  1  0.45532025  0.42079862  0.89889088  1
  Al  Al22  1  0.55756339  0.53825831  0.64866874  1
  Al  Al23  1  0.11617017  0.76700532  0.32611165  1
  Al  Al24  1  0.87433056  0.87916072  0.65503517  1
  Al  Al25  1  0.44733941  0.76030261  0.40185434  1
  Al  Al26  1  0.54990568  0.87361567  0.14188787  1
  Al  Al27  1  0.10841888  0.76420990  0.83782898  1
  Al  Al28  1  0.22237745  0.87371868  0.62213755  1
  Al  Al29  1  0.77900275  0.76279343  0.39253221  1
  Al  Al30  1  0.88659411  0.87657375  0.12311101  1
  Al  Al31  1  0.44622273  0.76154997  0.89264532  1
  Al  Al32  1  0.56187750  0.86953441  0.65279846  1
  B  B33  1  0.77097632  0.09316088  0.90286084  1
  B  B34  1  0.22372172  0.87169962  0.10351166  1
  B  B35  1  0.77026599  0.76999699  0.90345733  1
  N  N36  1  0.22246607  0.20299211  0.33750134  1
  N  N37  1  0.12701537  0.06315015  0.08875148  1
  N  N38  1  0.87782464  0.19078708  0.84652792  1
  N  N39  1  0.77836721  0.09340366  0.58347399  1
  N  N40  1  0.55855335  0.20216258  0.33532017  1
  N  N41  1  0.44428480  0.09522657  0.08658406  1
  N  N42  1  0.22208975  0.20654957  0.84124589  1
  N  N43  1  0.10382953  0.10566970  0.59340849  1
  N  N44  1  0.88929863  0.20361475  0.33115451  1
  N  N45  1  0.77448097  0.09721536  0.06407432  1
  N  N46  1  0.58163263  0.19254462  0.84332705  1
  N  N47  1  0.44553372  0.09393710  0.59199375  1
  N  N48  1  0.22373598  0.53646807  0.33546317  1
  N  N49  1  0.10907017  0.42380960  0.08935911  1
  N  N50  1  0.87734372  0.56544334  0.84293525  1
  N  N51  1  0.78017214  0.42622218  0.59051100  1
  N  N52  1  0.55671386  0.53970950  0.33757516  1
  N  N53  1  0.45276203  0.42299624  0.08856103  1
  N  N54  1  0.22849534  0.53449607  0.85969738  1
  N  N55  1  0.10792852  0.42833639  0.58549027  1
  N  N56  1  0.88633755  0.54094785  0.33335805  1
  N  N57  1  0.77741796  0.42706979  0.08676214  1
  N  N58  1  0.55781370  0.53832222  0.83895719  1
  N  N59  1  0.44681100  0.42620690  0.58695649  1
  N  N60  1  0.22120267  0.87037891  0.38919300  1
  N  N61  1  0.12944986  0.77825014  0.11800718  1
  N  N62  1  0.86239616  0.88616483  0.85479129  1
  N  N63  1  0.77734995  0.76396371  0.58261998  1
  N  N64  1  0.55649045  0.87065213  0.33257682  1
  N  N65  1  0.41563941  0.77522921  0.08884836  1
  N  N66  1  0.23049497  0.87401000  0.82903972  1
  N  N67  1  0.10158140  0.76277074  0.63813580  1
  N  N68  1  0.88354564  0.87426719  0.31929050  1
  N  N69  1  0.77412394  0.76104247  0.06564044  1
  N  N70  1  0.58099676  0.86004497  0.84740886  1
  N  N71  1  0.45508679  0.75819546  0.59330951  1
