# generated using pymatgen
data_Al11BN12
_symmetry_space_group_name_H-M   'P 1'
_cell_length_a   9.25190322
_cell_length_b   9.31676693
_cell_length_c   9.88624205
_cell_angle_alpha   90.23934216
_cell_angle_beta   89.96400565
_cell_angle_gamma   60.06496014
_symmetry_Int_Tables_number   1
_chemical_formula_structural   Al11BN12
_chemical_formula_sum   'Al33 B3 N36'
_cell_volume   738.47564241
_cell_formula_units_Z   3
loop_
 _symmetry_equiv_pos_site_id
 _symmetry_equiv_pos_as_xyz
  1  'x, y, z'
loop_
 _atom_site_type_symbol
 _atom_site_label
 _atom_site_symmetry_multiplicity
 _atom_site_fract_x
 _atom_site_fract_y
 _atom_site_fract_z
 _atom_site_occupancy
  Al  Al0  1  0.11258326  0.08891753  0.30663413  1
  Al  Al1  1  0.22448032  0.19927686  0.06002680  1
  Al  Al2  1  0.88958872  0.20710000  0.56382283  1
  Al  Al3  1  0.44693165  0.09285462  0.31061671  1
  Al  Al4  1  0.56316899  0.20288986  0.05822707  1
  Al  Al5  1  0.10896391  0.08901066  0.81575631  1
  Al  Al6  1  0.22233818  0.20464496  0.56186024  1
  Al  Al7  1  0.78085447  0.08847967  0.31292361  1
  Al  Al8  1  0.88887839  0.19700066  0.05827608  1
  Al  Al9  1  0.46011515  0.08628166  0.81066582  1
  Al  Al10  1  0.55399184  0.20810076  0.56351556  1
  Al  Al11  1  0.10970955  0.42806486  0.31177367  1
  Al  Al12  1  0.22507180  0.53991843  0.06338829  1
  Al  Al13  1  0.77307526  0.43454501  0.81001013  1
  Al  Al14  1  0.88744307  0.54255055  0.56689287  1
  Al  Al15  1  0.44529133  0.42712913  0.31186937  1
  Al  Al16  1  0.55036937  0.54304680  0.06173300  1
  Al  Al17  1  0.10954853  0.42937576  0.81165227  1
  Al  Al18  1  0.21851151  0.54399697  0.56110104  1
  Al  Al19  1  0.77888394  0.42755647  0.31115933  1
  Al  Al20  1  0.88733311  0.54194658  0.05809193  1
  Al  Al21  1  0.44695932  0.42910172  0.80870586  1
  Al  Al22  1  0.55313656  0.54338832  0.55980426  1
  Al  Al23  1  0.10762687  0.76680919  0.30941014  1
  Al  Al24  1  0.88490413  0.87615147  0.60086475  1
  Al  Al25  1  0.43916434  0.76517597  0.30713446  1
  Al  Al26  1  0.55786259  0.86982584  0.05879027  1
  Al  Al27  1  0.11133796  0.75508516  0.82349301  1
  Al  Al28  1  0.22052660  0.87258201  0.56315741  1
  Al  Al29  1  0.78005198  0.76259954  0.31629607  1
  Al  Al30  1  0.88847391  0.86903915  0.04981557  1
  Al  Al31  1  0.44639207  0.76317909  0.81750558  1
  Al  Al32  1  0.55683873  0.87045660  0.56667086  1
  B  B33  1  0.75341379  0.14413917  0.79804820  1
  B  B34  1  0.22139551  0.87210421  0.05655917  1
  B  B35  1  0.78074882  0.75718395  0.81137471  1
  N  N36  1  0.22161338  0.20400412  0.36752368  1
  N  N37  1  0.12131639  0.07019324  0.11027761  1
  N  N38  1  0.87071013  0.19961045  0.86232299  1
  N  N39  1  0.77133893  0.10838032  0.64553000  1
  N  N40  1  0.55733204  0.20521406  0.37250559  1
  N  N41  1  0.44845732  0.09346107  0.11604431  1
  N  N42  1  0.22563165  0.20190773  0.86843826  1
  N  N43  1  0.11123139  0.09338104  0.62425114  1
  N  N44  1  0.88908992  0.20451024  0.37092041  1
  N  N45  1  0.78134344  0.08680368  0.12116270  1
  N  N46  1  0.58186791  0.19991968  0.86186547  1
  N  N47  1  0.44608808  0.09428793  0.62046462  1
  N  N48  1  0.21989844  0.54253300  0.36769138  1
  N  N49  1  0.11100433  0.42586969  0.11893539  1
  N  N50  1  0.87879319  0.55461593  0.86477986  1
  N  N51  1  0.77592954  0.42951262  0.61937673  1
  N  N52  1  0.55399353  0.54272912  0.36702192  1
  N  N53  1  0.44814659  0.42362457  0.12038672  1
  N  N54  1  0.22977950  0.52937796  0.87312180  1
  N  N55  1  0.11222026  0.42752326  0.61985306  1
  N  N56  1  0.88753967  0.54063488  0.37441082  1
  N  N57  1  0.78008607  0.42421847  0.11708788  1
  N  N58  1  0.55349284  0.54143506  0.87115360  1
  N  N59  1  0.44271905  0.43087103  0.61777878  1
  N  N60  1  0.22086088  0.87285766  0.37331354  1
  N  N61  1  0.12166585  0.77338610  0.11093031  1
  N  N62  1  0.88308238  0.84102982  0.86111161  1
  N  N63  1  0.77446943  0.75875914  0.64452314  1
  N  N64  1  0.55510791  0.87147333  0.37259468  1
  N  N65  1  0.42025585  0.77508270  0.11188998  1
  N  N66  1  0.22132620  0.87169811  0.89198702  1
  N  N67  1  0.11493458  0.76141487  0.63140945  1
  N  N68  1  0.88822523  0.87366081  0.38541773  1
  N  N69  1  0.77915199  0.75956769  0.12544341  1
  N  N70  1  0.58173535  0.85887356  0.86626946  1
  N  N71  1  0.44142056  0.76341254  0.62507197  1
