# generated using pymatgen
data_Al11BN12
_symmetry_space_group_name_H-M   'P 1'
_cell_length_a   9.30006201
_cell_length_b   9.27677906
_cell_length_c   10.10297271
_cell_angle_alpha   89.76324039
_cell_angle_beta   90.04487052
_cell_angle_gamma   59.96321730
_symmetry_Int_Tables_number   1
_chemical_formula_structural   Al11BN12
_chemical_formula_sum   'Al33 B3 N36'
_cell_volume   754.56336551
_cell_formula_units_Z   3
loop_
 _symmetry_equiv_pos_site_id
 _symmetry_equiv_pos_as_xyz
  1  'x, y, z'
loop_
 _atom_site_type_symbol
 _atom_site_label
 _atom_site_symmetry_multiplicity
 _atom_site_fract_x
 _atom_site_fract_y
 _atom_site_fract_z
 _atom_site_occupancy
  Al  Al0  1  0.10378100  0.10443582  0.38926984  1
  Al  Al1  1  0.22657397  0.19323066  0.13747365  1
  Al  Al2  1  0.88973423  0.19495015  0.64557905  1
  Al  Al3  1  0.44598668  0.09148033  0.38824277  1
  Al  Al4  1  0.56000404  0.20055442  0.13426293  1
  Al  Al5  1  0.10868601  0.09054445  0.89539497  1
  Al  Al6  1  0.22531096  0.19921491  0.64100450  1
  Al  Al7  1  0.78042838  0.08961619  0.38555954  1
  Al  Al8  1  0.89418183  0.19303212  0.12973244  1
  Al  Al9  1  0.45668172  0.08934732  0.89000468  1
  Al  Al10  1  0.56378968  0.19768861  0.63835456  1
  Al  Al11  1  0.10733397  0.43550113  0.31636127  1
  Al  Al12  1  0.22651919  0.54146926  0.06826205  1
  Al  Al13  1  0.77424313  0.42953715  0.83066359  1
  Al  Al14  1  0.88803968  0.53954215  0.60084506  1
  Al  Al15  1  0.44216035  0.43199124  0.32222513  1
  Al  Al16  1  0.54803267  0.54448312  0.06892745  1
  Al  Al17  1  0.11014886  0.43429476  0.82564523  1
  Al  Al18  1  0.21936551  0.54344842  0.57099098  1
  Al  Al19  1  0.77403792  0.43400939  0.31319386  1
  Al  Al20  1  0.88935656  0.54034021  0.06666119  1
  Al  Al21  1  0.44901613  0.42752750  0.82149768  1
  Al  Al22  1  0.55615048  0.54035788  0.57110996  1
  Al  Al23  1  0.11628014  0.76490528  0.31037118  1
  Al  Al24  1  0.87890888  0.87716673  0.65031945  1
  Al  Al25  1  0.43380268  0.76378992  0.31533593  1
  Al  Al26  1  0.55376291  0.87547893  0.13063254  1
  Al  Al27  1  0.11042392  0.76172553  0.83412298  1
  Al  Al28  1  0.22296344  0.86728645  0.57364895  1
  Al  Al29  1  0.77795851  0.76314710  0.38522008  1
  Al  Al30  1  0.88732298  0.87730710  0.11913084  1
  Al  Al31  1  0.44794862  0.75782574  0.82921472  1
  Al  Al32  1  0.56351341  0.87247735  0.64412814  1
  B  B33  1  0.77232389  0.09210524  0.89394273  1
  B  B34  1  0.22818047  0.86335410  0.06142006  1
  B  B35  1  0.76868832  0.77846679  0.89686568  1
  N  N36  1  0.22589277  0.20025735  0.32782068  1
  N  N37  1  0.12129999  0.07383841  0.08303983  1
  N  N38  1  0.88223615  0.18054885  0.83789032  1
  N  N39  1  0.78068546  0.09063243  0.57344369  1
  N  N40  1  0.55992706  0.19786498  0.32696851  1
  N  N41  1  0.44384463  0.09716492  0.07505878  1
  N  N42  1  0.22789108  0.19412659  0.83226739  1
  N  N43  1  0.10466199  0.10291090  0.58090377  1
  N  N44  1  0.88873482  0.19872044  0.32071929  1
  N  N45  1  0.77363541  0.09817344  0.05370444  1
  N  N46  1  0.58441977  0.18855580  0.83322808  1
  N  N47  1  0.44575455  0.09320299  0.57911618  1
  N  N48  1  0.21938097  0.54384756  0.38061492  1
  N  N49  1  0.11065846  0.43287326  0.12293243  1
  N  N50  1  0.88056205  0.55973025  0.86765369  1
  N  N51  1  0.77354934  0.42962109  0.63930763  1
  N  N52  1  0.55524017  0.54125934  0.38114889  1
  N  N53  1  0.44260998  0.43339336  0.13203682  1
  N  N54  1  0.22859211  0.53424475  0.88294136  1
  N  N55  1  0.11231667  0.43280424  0.63432722  1
  N  N56  1  0.88927478  0.53603971  0.36511977  1
  N  N57  1  0.77400859  0.43300570  0.11953289  1
  N  N58  1  0.55563572  0.53717664  0.88441538  1
  N  N59  1  0.44236580  0.43132596  0.63006293  1
  N  N60  1  0.22186592  0.86887766  0.38568262  1
  N  N61  1  0.12767487  0.77323244  0.11681850  1
  N  N62  1  0.86418340  0.88277584  0.84554080  1
  N  N63  1  0.77655065  0.76814130  0.57589044  1
  N  N64  1  0.55869186  0.87163073  0.32167146  1
  N  N65  1  0.41598910  0.77403217  0.12135401  1
  N  N66  1  0.23234100  0.85781457  0.90012955  1
  N  N67  1  0.11180637  0.76276190  0.64268837  1
  N  N68  1  0.88345567  0.87332652  0.31247449  1
  N  N69  1  0.76992172  0.77352532  0.05592815  1
  N  N70  1  0.58450764  0.86105280  0.83718403  1
  N  N71  1  0.44106104  0.76197787  0.63811752  1
