# generated using pymatgen
data_Al11BN12
_symmetry_space_group_name_H-M   'P 1'
_cell_length_a   9.29722268
_cell_length_b   9.27138132
_cell_length_c   10.07525458
_cell_angle_alpha   90.03508312
_cell_angle_beta   90.07522644
_cell_angle_gamma   60.03882733
_symmetry_Int_Tables_number   1
_chemical_formula_structural   Al11BN12
_chemical_formula_sum   'Al33 B3 N36'
_cell_volume   752.40859223
_cell_formula_units_Z   3
loop_
 _symmetry_equiv_pos_site_id
 _symmetry_equiv_pos_as_xyz
  1  'x, y, z'
loop_
 _atom_site_type_symbol
 _atom_site_label
 _atom_site_symmetry_multiplicity
 _atom_site_fract_x
 _atom_site_fract_y
 _atom_site_fract_z
 _atom_site_occupancy
  Al  Al0  1  0.11730913  0.08629106  0.31293243  1
  Al  Al1  1  0.21731740  0.20658050  0.06875763  1
  Al  Al2  1  0.88493150  0.19702473  0.64669279  1
  Al  Al3  1  0.45240795  0.08718723  0.38988521  1
  Al  Al4  1  0.55993220  0.20123039  0.13785074  1
  Al  Al5  1  0.11452654  0.08762473  0.83410609  1
  Al  Al6  1  0.21657432  0.20438910  0.57298965  1
  Al  Al7  1  0.78349824  0.08995348  0.38749821  1
  Al  Al8  1  0.89007869  0.20033977  0.11063258  1
  Al  Al9  1  0.46071185  0.08929621  0.89094162  1
  Al  Al10  1  0.56394711  0.19557326  0.64090055  1
  Al  Al11  1  0.11086429  0.42642346  0.32040054  1
  Al  Al12  1  0.22505837  0.54221029  0.07083176  1
  Al  Al13  1  0.77333922  0.43680746  0.82745266  1
  Al  Al14  1  0.89188707  0.53019475  0.57063373  1
  Al  Al15  1  0.44237510  0.43136021  0.32453076  1
  Al  Al16  1  0.54778398  0.54583982  0.07043954  1
  Al  Al17  1  0.10721504  0.43441304  0.81871512  1
  Al  Al18  1  0.22008498  0.54200651  0.57385323  1
  Al  Al19  1  0.77657126  0.42976633  0.31452296  1
  Al  Al20  1  0.88918195  0.54311689  0.06250332  1
  Al  Al21  1  0.44758031  0.42862809  0.82370421  1
  Al  Al22  1  0.55545511  0.53946143  0.57313019  1
  Al  Al23  1  0.11691879  0.76126223  0.31371582  1
  Al  Al24  1  0.88006631  0.87270459  0.65223219  1
  Al  Al25  1  0.43629266  0.76015847  0.31792050  1
  Al  Al26  1  0.55170641  0.87715693  0.13234843  1
  Al  Al27  1  0.10938676  0.76388960  0.83892345  1
  Al  Al28  1  0.22063461  0.87093559  0.57650359  1
  Al  Al29  1  0.77749650  0.76487191  0.38673654  1
  Al  Al30  1  0.88719142  0.87921469  0.12245794  1
  Al  Al31  1  0.44523775  0.76000254  0.83244466  1
  Al  Al32  1  0.56566318  0.86831694  0.64646371  1
  B  B33  1  0.76959957  0.09447393  0.89645844  1
  B  B34  1  0.22598564  0.87077601  0.06647218  1
  B  B35  1  0.76883855  0.77951297  0.90008356  1
  N  N36  1  0.21814644  0.20376689  0.37908288  1
  N  N37  1  0.12909738  0.06745156  0.11850502  1
  N  N38  1  0.87566092  0.18969809  0.84756526  1
  N  N39  1  0.78224157  0.08767059  0.57621620  1
  N  N40  1  0.56112291  0.19754412  0.32971043  1
  N  N41  1  0.44721831  0.09684967  0.07905037  1
  N  N42  1  0.21832231  0.21044308  0.87839571  1
  N  N43  1  0.11602635  0.08919955  0.64117291  1
  N  N44  1  0.88735056  0.19928198  0.31967772  1
  N  N45  1  0.77107656  0.09805939  0.05498463  1
  N  N46  1  0.58381460  0.19025359  0.83496553  1
  N  N47  1  0.45112946  0.08779246  0.58292214  1
  N  N48  1  0.21956394  0.54176865  0.38261978  1
  N  N49  1  0.10859433  0.43202140  0.13086421  1
  N  N50  1  0.88143911  0.56108986  0.87365913  1
  N  N51  1  0.77578840  0.42918891  0.63605554  1
  N  N52  1  0.55653867  0.53977980  0.38266748  1
  N  N53  1  0.44228014  0.43398788  0.13350113  1
  N  N54  1  0.22552713  0.53565035  0.88394445  1
  N  N55  1  0.11213515  0.42658070  0.63064967  1
  N  N56  1  0.89167163  0.53072421  0.37933702  1
  N  N57  1  0.77365950  0.43876923  0.12204116  1
  N  N58  1  0.55481383  0.53922957  0.88514917  1
  N  N59  1  0.44294649  0.42920502  0.63175998  1
  N  N60  1  0.22066491  0.87158051  0.38759531  1
  N  N61  1  0.12716170  0.77379728  0.11906111  1
  N  N62  1  0.86321535  0.88449883  0.84763371  1
  N  N63  1  0.77823010  0.76406531  0.57652584  1
  N  N64  1  0.55966835  0.86938555  0.32280352  1
  N  N65  1  0.41621550  0.77376425  0.12329410  1
  N  N66  1  0.22633647  0.87032536  0.90513618  1
  N  N67  1  0.11298807  0.76046621  0.64507890  1
  N  N68  1  0.88447925  0.87210773  0.31536368  1
  N  N69  1  0.76914201  0.77630838  0.05979309  1
  N  N70  1  0.58388228  0.86110758  0.83994751  1
  N  N71  1  0.44100901  0.75966451  0.63985473  1
