# generated using pymatgen
data_Al11BN12
_symmetry_space_group_name_H-M   'P 1'
_cell_length_a   9.29954071
_cell_length_b   9.34194885
_cell_length_c   10.04120742
_cell_angle_alpha   90.11721877
_cell_angle_beta   89.99512809
_cell_angle_gamma   60.04868286
_symmetry_Int_Tables_number   1
_chemical_formula_structural   Al11BN12
_chemical_formula_sum   'Al33 B3 N36'
_cell_volume   755.83523018
_cell_formula_units_Z   3
loop_
 _symmetry_equiv_pos_site_id
 _symmetry_equiv_pos_as_xyz
  1  'x, y, z'
loop_
 _atom_site_type_symbol
 _atom_site_label
 _atom_site_symmetry_multiplicity
 _atom_site_fract_x
 _atom_site_fract_y
 _atom_site_fract_z
 _atom_site_occupancy
  Al  Al0  1  0.11428613  0.08810465  0.31696639  1
  Al  Al1  1  0.21868768  0.20320870  0.06868412  1
  Al  Al2  1  0.89594708  0.20540455  0.57066256  1
  Al  Al3  1  0.44224296  0.09540504  0.31858197  1
  Al  Al4  1  0.55423638  0.20943359  0.11100030  1
  Al  Al5  1  0.10781972  0.08930879  0.82696316  1
  Al  Al6  1  0.22703200  0.20102718  0.57149601  1
  Al  Al7  1  0.77977525  0.08668588  0.38725372  1
  Al  Al8  1  0.89433598  0.20350108  0.06733395  1
  Al  Al9  1  0.45026971  0.09874229  0.83279461  1
  Al  Al10  1  0.56134396  0.20557880  0.61739275  1
  Al  Al11  1  0.10979309  0.42800816  0.32204495  1
  Al  Al12  1  0.22193355  0.54169364  0.07126721  1
  Al  Al13  1  0.77911886  0.41645040  0.81965766  1
  Al  Al14  1  0.89365402  0.53153767  0.57654168  1
  Al  Al15  1  0.44270296  0.43156414  0.32436837  1
  Al  Al16  1  0.55091944  0.54239915  0.07133929  1
  Al  Al17  1  0.11255563  0.42184504  0.81937920  1
  Al  Al18  1  0.21800203  0.54448346  0.57560426  1
  Al  Al19  1  0.77932348  0.42762238  0.32013916  1
  Al  Al20  1  0.88984417  0.53571257  0.05491674  1
  Al  Al21  1  0.44775206  0.42894537  0.82580104  1
  Al  Al22  1  0.55486296  0.54236001  0.57329591  1
  Al  Al23  1  0.11876323  0.76033674  0.31583864  1
  Al  Al24  1  0.87763784  0.87947449  0.65513630  1
  Al  Al25  1  0.43723447  0.75913100  0.31794690  1
  Al  Al26  1  0.55321545  0.87013068  0.12656373  1
  Al  Al27  1  0.10889359  0.76180426  0.84155838  1
  Al  Al28  1  0.22167912  0.87111586  0.57858956  1
  Al  Al29  1  0.77725800  0.76456309  0.39007492  1
  Al  Al30  1  0.88944847  0.87710766  0.12769572  1
  Al  Al31  1  0.44735797  0.75826928  0.83832052  1
  Al  Al32  1  0.56878620  0.86481471  0.64755820  1
  B  B33  1  0.76824847  0.09913103  0.90489395  1
  B  B34  1  0.22322206  0.87003029  0.06672501  1
  B  B35  1  0.74854192  0.82230905  0.90892596  1
  N  N36  1  0.22340324  0.20219146  0.38009723  1
  N  N37  1  0.12188512  0.06996196  0.12425892  1
  N  N38  1  0.87825812  0.18819610  0.87558978  1
  N  N39  1  0.78294075  0.08675639  0.57840089  1
  N  N40  1  0.55803022  0.20491080  0.34510802  1
  N  N41  1  0.43736672  0.09928596  0.12275105  1
  N  N42  1  0.22621038  0.19846851  0.88104673  1
  N  N43  1  0.11417939  0.09228154  0.63633964  1
  N  N44  1  0.89436273  0.20553519  0.37620082  1
  N  N45  1  0.77487988  0.09208769  0.06641058  1
  N  N46  1  0.57979968  0.19911268  0.85939813  1
  N  N47  1  0.44494763  0.09477883  0.63585853  1
  N  N48  1  0.21906602  0.54336471  0.38335732  1
  N  N49  1  0.10743367  0.43122222  0.13163664  1
  N  N50  1  0.89921683  0.51202373  0.87375788  1
  N  N51  1  0.77667338  0.42480420  0.63005029  1
  N  N52  1  0.55493396  0.54149759  0.38247140  1
  N  N53  1  0.44007623  0.43569960  0.13300920  1
  N  N54  1  0.22306360  0.53416493  0.88372187  1
  N  N55  1  0.11661758  0.42346055  0.62989571  1
  N  N56  1  0.89203152  0.53254311  0.38323378  1
  N  N57  1  0.77667578  0.43018520  0.13008638  1
  N  N58  1  0.55854516  0.53676026  0.88477094  1
  N  N59  1  0.44199229  0.43347688  0.63312469  1
  N  N60  1  0.22164520  0.87122338  0.38848805  1
  N  N61  1  0.12755826  0.77210067  0.11958280  1
  N  N62  1  0.85610837  0.89274418  0.85111111  1
  N  N63  1  0.78013748  0.76524152  0.58054409  1
  N  N64  1  0.56325354  0.86348295  0.32244892  1
  N  N65  1  0.41576619  0.77179052  0.12106537  1
  N  N66  1  0.22322539  0.87183254  0.90494699  1
  N  N67  1  0.11132417  0.76278234  0.64788928  1
  N  N68  1  0.88548087  0.87120317  0.31799073  1
  N  N69  1  0.77229313  0.77503075  0.05585543  1
  N  N70  1  0.58421920  0.86409032  0.84741972  1
  N  N71  1  0.44251886  0.76052691  0.64360624  1
