# generated using pymatgen
data_Al11BN12
_symmetry_space_group_name_H-M   'P 1'
_cell_length_a   9.28956183
_cell_length_b   9.31994091
_cell_length_c   10.06182096
_cell_angle_alpha   90.08314646
_cell_angle_beta   89.82617957
_cell_angle_gamma   60.09066470
_symmetry_Int_Tables_number   1
_chemical_formula_structural   Al11BN12
_chemical_formula_sum   'Al33 B3 N36'
_cell_volume   755.10459709
_cell_formula_units_Z   3
loop_
 _symmetry_equiv_pos_site_id
 _symmetry_equiv_pos_as_xyz
  1  'x, y, z'
loop_
 _atom_site_type_symbol
 _atom_site_label
 _atom_site_symmetry_multiplicity
 _atom_site_fract_x
 _atom_site_fract_y
 _atom_site_fract_z
 _atom_site_occupancy
  Al  Al0  1  0.11492891  0.08824689  0.31725859  1
  Al  Al1  1  0.22170058  0.20220879  0.06924304  1
  Al  Al2  1  0.89390705  0.20542895  0.57270368  1
  Al  Al3  1  0.44293918  0.09830026  0.31856093  1
  Al  Al4  1  0.54920551  0.21165861  0.07067207  1
  Al  Al5  1  0.10921196  0.08895589  0.82816444  1
  Al  Al6  1  0.22390728  0.20232644  0.57134777  1
  Al  Al7  1  0.78356887  0.08463463  0.38816354  1
  Al  Al8  1  0.89587358  0.20323066  0.06913724  1
  Al  Al9  1  0.45233341  0.09904151  0.82516299  1
  Al  Al10  1  0.54968177  0.21007255  0.57213264  1
  Al  Al11  1  0.10977127  0.42804497  0.32215395  1
  Al  Al12  1  0.22437255  0.54032607  0.07203744  1
  Al  Al13  1  0.77938571  0.41589647  0.82033561  1
  Al  Al14  1  0.89271135  0.53220403  0.57728247  1
  Al  Al15  1  0.44407611  0.42813470  0.32319933  1
  Al  Al16  1  0.55181742  0.54076670  0.07147247  1
  Al  Al17  1  0.11369827  0.42116025  0.82014002  1
  Al  Al18  1  0.21666445  0.54564586  0.57597208  1
  Al  Al19  1  0.77926792  0.42790763  0.32014280  1
  Al  Al20  1  0.89127554  0.53477839  0.05559094  1
  Al  Al21  1  0.44968017  0.42555589  0.82112913  1
  Al  Al22  1  0.55434707  0.54112054  0.57290037  1
  Al  Al23  1  0.12028648  0.75953068  0.31624228  1
  Al  Al24  1  0.87350398  0.88313927  0.65779833  1
  Al  Al25  1  0.43782546  0.75936889  0.31836956  1
  Al  Al26  1  0.55278993  0.87208257  0.12484482  1
  Al  Al27  1  0.11027571  0.76116874  0.84201130  1
  Al  Al28  1  0.21921219  0.87163642  0.57894053  1
  Al  Al29  1  0.77787737  0.76427317  0.39015456  1
  Al  Al30  1  0.89113191  0.87619577  0.12966295  1
  Al  Al31  1  0.44954263  0.75839210  0.83771299  1
  Al  Al32  1  0.56383182  0.86745239  0.63691262  1
  B  B33  1  0.77426484  0.09442247  0.90833455  1
  B  B34  1  0.22491469  0.86930966  0.06724391  1
  B  B35  1  0.74691041  0.82419710  0.91154275  1
  N  N36  1  0.22286551  0.20269461  0.38043885  1
  N  N37  1  0.12418118  0.06939045  0.12468199  1
  N  N38  1  0.87891668  0.18710852  0.87709096  1
  N  N39  1  0.78099917  0.08803934  0.58032735  1
  N  N40  1  0.55019368  0.20827486  0.37982327  1
  N  N41  1  0.44001628  0.10270134  0.12793079  1
  N  N42  1  0.22979662  0.19698970  0.88131568  1
  N  N43  1  0.11286975  0.09277578  0.63750304  1
  N  N44  1  0.89436395  0.20583455  0.37649320  1
  N  N45  1  0.77869543  0.09061584  0.07141644  1
  N  N46  1  0.57376062  0.20130724  0.88001574  1
  N  N47  1  0.44391272  0.09722149  0.63377249  1
  N  N48  1  0.21946826  0.54304900  0.38342832  1
  N  N49  1  0.10853362  0.43067487  0.13205635  1
  N  N50  1  0.90056671  0.51006960  0.87502180  1
  N  N51  1  0.77570436  0.42557762  0.63094076  1
  N  N52  1  0.55473529  0.54063789  0.38194378  1
  N  N53  1  0.44445621  0.42850050  0.13454255  1
  N  N54  1  0.22504609  0.53307796  0.88427882  1
  N  N55  1  0.11534852  0.42431353  0.63069017  1
  N  N56  1  0.89201541  0.53249730  0.38389571  1
  N  N57  1  0.77734497  0.43019598  0.13059696  1
  N  N58  1  0.55811280  0.53574772  0.88430715  1
  N  N59  1  0.44203899  0.43065734  0.63200433  1
  N  N60  1  0.22155914  0.87144793  0.38920380  1
  N  N61  1  0.12986029  0.77068630  0.12058988  1
  N  N62  1  0.85447456  0.89582580  0.85356023  1
  N  N63  1  0.77942413  0.76610787  0.58079766  1
  N  N64  1  0.56218773  0.86560993  0.32569297  1
  N  N65  1  0.41721724  0.77104167  0.12197552  1
  N  N66  1  0.22488287  0.87103361  0.90549507  1
  N  N67  1  0.10881223  0.76365868  0.64926934  1
  N  N68  1  0.88641042  0.87073904  0.31867806  1
  N  N69  1  0.77405054  0.77426144  0.05769715  1
  N  N70  1  0.58233343  0.86633397  0.85179913  1
  N  N71  1  0.44104095  0.76052963  0.64267338  1
