# generated using pymatgen
data_Al11BN12
_symmetry_space_group_name_H-M   'P 1'
_cell_length_a   9.25695664
_cell_length_b   9.32594545
_cell_length_c   9.94172646
_cell_angle_alpha   90.17847690
_cell_angle_beta   89.79509004
_cell_angle_gamma   60.06728573
_symmetry_Int_Tables_number   1
_chemical_formula_structural   Al11BN12
_chemical_formula_sum   'Al33 B3 N36'
_cell_volume   743.76867338
_cell_formula_units_Z   3
loop_
 _symmetry_equiv_pos_site_id
 _symmetry_equiv_pos_as_xyz
  1  'x, y, z'
loop_
 _atom_site_type_symbol
 _atom_site_label
 _atom_site_symmetry_multiplicity
 _atom_site_fract_x
 _atom_site_fract_y
 _atom_site_fract_z
 _atom_site_occupancy
  Al  Al0  1  0.11238248  0.08815424  0.30715961  1
  Al  Al1  1  0.22442419  0.19884116  0.05938778  1
  Al  Al2  1  0.88950011  0.20646349  0.56337983  1
  Al  Al3  1  0.44670798  0.09359302  0.30891615  1
  Al  Al4  1  0.56208301  0.20456056  0.05664908  1
  Al  Al5  1  0.10959140  0.08965836  0.81407283  1
  Al  Al6  1  0.22174809  0.20556149  0.56117016  1
  Al  Al7  1  0.78094756  0.08929628  0.30872698  1
  Al  Al8  1  0.88941453  0.19766143  0.05649013  1
  Al  Al9  1  0.46116289  0.08590753  0.80958671  1
  Al  Al10  1  0.55403808  0.20754055  0.56274791  1
  Al  Al11  1  0.11093002  0.42740367  0.31108216  1
  Al  Al12  1  0.22759125  0.53701345  0.06298624  1
  Al  Al13  1  0.77215668  0.43729424  0.80812449  1
  Al  Al14  1  0.88697046  0.54385022  0.56103769  1
  Al  Al15  1  0.44598692  0.42628580  0.31262826  1
  Al  Al16  1  0.55046979  0.54264206  0.06121865  1
  Al  Al17  1  0.10943715  0.42993002  0.81067251  1
  Al  Al18  1  0.21525340  0.54730133  0.56166355  1
  Al  Al19  1  0.77901839  0.42547026  0.31024695  1
  Al  Al20  1  0.88766655  0.53915692  0.06187905  1
  Al  Al21  1  0.44663066  0.43019514  0.80671999  1
  Al  Al22  1  0.55306738  0.54432574  0.55893949  1
  Al  Al23  1  0.11195023  0.76411308  0.30515930  1
  Al  Al24  1  0.87941834  0.87532645  0.65230442  1
  Al  Al25  1  0.43850108  0.76477450  0.30629347  1
  Al  Al26  1  0.55596215  0.86998289  0.06105041  1
  Al  Al27  1  0.11841871  0.75175586  0.83118795  1
  Al  Al28  1  0.21784614  0.87268790  0.56351479  1
  Al  Al29  1  0.77988261  0.76084424  0.31521282  1
  Al  Al30  1  0.88992987  0.86851233  0.06589848  1
  Al  Al31  1  0.44812987  0.76309466  0.81537812  1
  Al  Al32  1  0.55546357  0.87204425  0.56024470  1
  B  B33  1  0.74863997  0.15545980  0.79838348  1
  B  B34  1  0.22408023  0.87067173  0.05576899  1
  B  B35  1  0.78130529  0.75121364  0.83406490  1
  N  N36  1  0.22174248  0.20378191  0.36746733  1
  N  N37  1  0.12143989  0.06987012  0.11045501  1
  N  N38  1  0.87047899  0.20291181  0.86162970  1
  N  N39  1  0.76948406  0.11146296  0.64946316  1
  N  N40  1  0.55802057  0.20437573  0.37270349  1
  N  N41  1  0.44806519  0.09445683  0.11467222  1
  N  N42  1  0.22555449  0.20228240  0.86820387  1
  N  N43  1  0.11082700  0.09393592  0.62388411  1
  N  N44  1  0.88873778  0.20391313  0.37163513  1
  N  N45  1  0.77848567  0.09253471  0.11714279  1
  N  N46  1  0.58082419  0.20214166  0.86166623  1
  N  N47  1  0.44537384  0.09449238  0.62057647  1
  N  N48  1  0.22099280  0.54156794  0.36868489  1
  N  N49  1  0.11213557  0.42513402  0.11867640  1
  N  N50  1  0.87720266  0.55681699  0.86809296  1
  N  N51  1  0.77623170  0.43011396  0.61887516  1
  N  N52  1  0.55424122  0.54249611  0.36682161  1
  N  N53  1  0.44852375  0.42355236  0.12128908  1
  N  N54  1  0.23144649  0.52668145  0.87392354  1
  N  N55  1  0.11041664  0.42865371  0.62013665  1
  N  N56  1  0.88875763  0.53680322  0.37011699  1
  N  N57  1  0.77957351  0.42280650  0.11689349  1
  N  N58  1  0.55309939  0.54208818  0.87078063  1
  N  N59  1  0.44174487  0.43182686  0.61714603  1
  N  N60  1  0.22120911  0.87184353  0.37392406  1
  N  N61  1  0.12794786  0.76993290  0.10623070  1
  N  N62  1  0.88487477  0.83713585  0.86154968  1
  N  N63  1  0.77233765  0.76011183  0.62412499  1
  N  N64  1  0.55217462  0.87273658  0.36782749  1
  N  N65  1  0.41989522  0.77453834  0.11146947  1
  N  N66  1  0.22375725  0.87317724  0.89179171  1
  N  N67  1  0.11215142  0.76357386  0.63754875  1
  N  N68  1  0.89199069  0.87096862  0.34873112  1
  N  N69  1  0.77581468  0.75630941  0.12316586  1
  N  N70  1  0.58511178  0.85689007  0.86857907  1
  N  N71  1  0.44045058  0.76483907  0.62425202  1
