# generated using pymatgen
data_Al11BN12
_symmetry_space_group_name_H-M   'P 1'
_cell_length_a   9.28577940
_cell_length_b   9.26058360
_cell_length_c   10.10151521
_cell_angle_alpha   90.10958718
_cell_angle_beta   90.13160083
_cell_angle_gamma   59.95998890
_symmetry_Int_Tables_number   1
_chemical_formula_structural   Al11BN12
_chemical_formula_sum   'Al33 B3 N36'
_cell_volume   751.96446662
_cell_formula_units_Z   3
loop_
 _symmetry_equiv_pos_site_id
 _symmetry_equiv_pos_as_xyz
  1  'x, y, z'
loop_
 _atom_site_type_symbol
 _atom_site_label
 _atom_site_symmetry_multiplicity
 _atom_site_fract_x
 _atom_site_fract_y
 _atom_site_fract_z
 _atom_site_occupancy
  Al  Al0  1  0.11379244  0.08940553  0.31633373  1
  Al  Al1  1  0.21410576  0.20513602  0.06902035  1
  Al  Al2  1  0.89427865  0.20592881  0.57142960  1
  Al  Al3  1  0.45298162  0.08759835  0.39036361  1
  Al  Al4  1  0.55704410  0.20130873  0.13774509  1
  Al  Al5  1  0.10729045  0.09090839  0.82506438  1
  Al  Al6  1  0.21966200  0.20548549  0.57357054  1
  Al  Al7  1  0.77973448  0.08647600  0.38869321  1
  Al  Al8  1  0.89181968  0.20113971  0.06375666  1
  Al  Al9  1  0.45844906  0.08969856  0.89130426  1
  Al  Al10  1  0.56735448  0.19601539  0.64381484  1
  Al  Al11  1  0.11139950  0.42696653  0.32051137  1
  Al  Al12  1  0.22408310  0.54142850  0.07056579  1
  Al  Al13  1  0.77683370  0.42793122  0.82030045  1
  Al  Al14  1  0.89253230  0.53353090  0.57149801  1
  Al  Al15  1  0.44218194  0.43248427  0.32379815  1
  Al  Al16  1  0.54983457  0.54319433  0.07126243  1
  Al  Al17  1  0.10640174  0.43392880  0.81954340  1
  Al  Al18  1  0.22099758  0.54268921  0.57489789  1
  Al  Al19  1  0.77934179  0.42666831  0.31857771  1
  Al  Al20  1  0.88806331  0.53887439  0.06336444  1
  Al  Al21  1  0.44776283  0.42921178  0.82508903  1
  Al  Al22  1  0.55486081  0.54095378  0.57324774  1
  Al  Al23  1  0.11811314  0.76109086  0.31356894  1
  Al  Al24  1  0.88045614  0.87621344  0.65417119  1
  Al  Al25  1  0.43646660  0.76048047  0.31759810  1
  Al  Al26  1  0.55096021  0.87686982  0.13213735  1
  Al  Al27  1  0.10974162  0.76409237  0.83979125  1
  Al  Al28  1  0.22204238  0.87044557  0.57633011  1
  Al  Al29  1  0.77754871  0.76566880  0.38754642  1
  Al  Al30  1  0.88696514  0.87653948  0.12317648  1
  Al  Al31  1  0.44530419  0.75992713  0.83414503  1
  Al  Al32  1  0.56648590  0.86924832  0.64809939  1
  B  B33  1  0.76738361  0.09074261  0.90005989  1
  B  B34  1  0.22324871  0.87085056  0.06752367  1
  B  B35  1  0.76825902  0.77660299  0.90104905  1
  N  N36  1  0.21974393  0.20458591  0.37966898  1
  N  N37  1  0.11988918  0.07069379  0.12460065  1
  N  N38  1  0.87932135  0.19483806  0.87438699  1
  N  N39  1  0.78129043  0.08677402  0.57717793  1
  N  N40  1  0.56098432  0.19828340  0.32803579  1
  N  N41  1  0.44413893  0.09668561  0.07884765  1
  N  N42  1  0.21566043  0.20895946  0.87783589  1
  N  N43  1  0.11314063  0.09206136  0.63627722  1
  N  N44  1  0.89389360  0.20563523  0.37762871  1
  N  N45  1  0.76733234  0.09383327  0.05937964  1
  N  N46  1  0.58404111  0.19011407  0.83723272  1
  N  N47  1  0.45315943  0.08882541  0.58390259  1
  N  N48  1  0.22007390  0.54217834  0.38348590  1
  N  N49  1  0.10804141  0.43127963  0.13108759  1
  N  N50  1  0.87989738  0.55822288  0.87404454  1
  N  N51  1  0.77783944  0.42748303  0.63210206  1
  N  N52  1  0.55628479  0.54039154  0.38287023  1
  N  N53  1  0.44117541  0.43414691  0.13326069  1
  N  N54  1  0.22506783  0.53537077  0.88444252  1
  N  N55  1  0.11285451  0.42766713  0.63180678  1
  N  N56  1  0.89226873  0.53260640  0.37998922  1
  N  N57  1  0.77765522  0.42774313  0.12870993  1
  N  N58  1  0.55808445  0.53754936  0.88560127  1
  N  N59  1  0.44385656  0.43001845  0.63363273  1
  N  N60  1  0.22135315  0.87143123  0.38769627  1
  N  N61  1  0.12684497  0.77278596  0.11906836  1
  N  N62  1  0.86331351  0.88496099  0.84950305  1
  N  N63  1  0.77886202  0.76640668  0.57742371  1
  N  N64  1  0.55999187  0.86991126  0.32235311  1
  N  N65  1  0.41552906  0.77339124  0.12325505  1
  N  N66  1  0.22392991  0.87373083  0.90534054  1
  N  N67  1  0.11394440  0.76128677  0.64643952  1
  N  N68  1  0.88523802  0.87220982  0.31467118  1
  N  N69  1  0.76896858  0.77261039  0.06031012  1
  N  N70  1  0.58383451  0.86102545  0.84095781  1
  N  N71  1  0.44152328  0.76063948  0.64134080  1
