# generated using pymatgen
data_Al11BN12
_symmetry_space_group_name_H-M   'P 1'
_cell_length_a   9.31028172
_cell_length_b   9.29140899
_cell_length_c   9.99203481
_cell_angle_alpha   89.89004780
_cell_angle_beta   89.77969901
_cell_angle_gamma   59.94120588
_symmetry_Int_Tables_number   1
_chemical_formula_structural   Al11BN12
_chemical_formula_sum   'Al33 B3 N36'
_cell_volume   748.11464656
_cell_formula_units_Z   3
loop_
 _symmetry_equiv_pos_site_id
 _symmetry_equiv_pos_as_xyz
  1  'x, y, z'
loop_
 _atom_site_type_symbol
 _atom_site_label
 _atom_site_symmetry_multiplicity
 _atom_site_fract_x
 _atom_site_fract_y
 _atom_site_fract_z
 _atom_site_occupancy
  Al  Al0  1  0.10417023  0.10299015  0.38681493  1
  Al  Al1  1  0.22346997  0.19853249  0.13727399  1
  Al  Al2  1  0.88566397  0.20309180  0.64127494  1
  Al  Al3  1  0.44538641  0.09448183  0.38773647  1
  Al  Al4  1  0.55856050  0.20255578  0.13426936  1
  Al  Al5  1  0.10603107  0.09277041  0.88997395  1
  Al  Al6  1  0.22109534  0.20601222  0.63850026  1
  Al  Al7  1  0.78048975  0.09014448  0.38371020  1
  Al  Al8  1  0.89297205  0.19729784  0.13059384  1
  Al  Al9  1  0.45470000  0.09027750  0.88772555  1
  Al  Al10  1  0.56058014  0.20370628  0.63939025  1
  Al  Al11  1  0.10548950  0.42860552  0.38410117  1
  Al  Al12  1  0.22335670  0.54456169  0.06860373  1
  Al  Al13  1  0.77991080  0.42550156  0.88766117  1
  Al  Al14  1  0.88471565  0.54548824  0.64025385  1
  Al  Al15  1  0.44986998  0.42524402  0.38541308  1
  Al  Al16  1  0.55451580  0.53797919  0.13248132  1
  Al  Al17  1  0.10432373  0.42846776  0.88560481  1
  Al  Al18  1  0.21592070  0.54881653  0.57358771  1
  Al  Al19  1  0.77676727  0.42915562  0.38723095  1
  Al  Al20  1  0.88720567  0.54070010  0.13161251  1
  Al  Al21  1  0.45951150  0.41584844  0.88694442  1
  Al  Al22  1  0.55511377  0.53982179  0.64082448  1
  Al  Al23  1  0.11723691  0.76411067  0.30601295  1
  Al  Al24  1  0.87597678  0.87930294  0.64691998  1
  Al  Al25  1  0.44009145  0.76617957  0.34301982  1
  Al  Al26  1  0.55388420  0.87458208  0.12598038  1
  Al  Al27  1  0.11008857  0.75938718  0.82879171  1
  Al  Al28  1  0.22178323  0.86957189  0.57296179  1
  Al  Al29  1  0.77911852  0.76406030  0.38294090  1
  Al  Al30  1  0.88784719  0.87594140  0.11337519  1
  Al  Al31  1  0.45376450  0.75694179  0.87271824  1
  Al  Al32  1  0.56062459  0.87158839  0.64298712  1
  B  B33  1  0.77209802  0.09087930  0.89272580  1
  B  B34  1  0.22481412  0.86672618  0.05461555  1
  B  B35  1  0.77199391  0.77108615  0.89394701  1
  N  N36  1  0.22286619  0.20533050  0.32772349  1
  N  N37  1  0.12212826  0.07284829  0.08195805  1
  N  N38  1  0.87912508  0.18824745  0.83397054  1
  N  N39  1  0.77917260  0.09211591  0.57308459  1
  N  N40  1  0.55763561  0.20392630  0.32475694  1
  N  N41  1  0.44358856  0.09701551  0.07540358  1
  N  N42  1  0.22345415  0.20112299  0.82908398  1
  N  N43  1  0.10442921  0.10291901  0.58087463  1
  N  N44  1  0.88572333  0.20650739  0.32231168  1
  N  N45  1  0.77527613  0.09675656  0.05349482  1
  N  N46  1  0.58311155  0.18946210  0.83242103  1
  N  N47  1  0.44577182  0.09493117  0.58065005  1
  N  N48  1  0.21768910  0.54787707  0.37206166  1
  N  N49  1  0.10916558  0.42365771  0.07966088  1
  N  N50  1  0.87731195  0.56323664  0.83255037  1
  N  N51  1  0.77782878  0.42808923  0.58004613  1
  N  N52  1  0.55681787  0.53809983  0.32410329  1
  N  N53  1  0.45252666  0.42168227  0.07862466  1
  N  N54  1  0.22655155  0.53517902  0.87191031  1
  N  N55  1  0.10535388  0.42766981  0.57965328  1
  N  N56  1  0.88502090  0.54224309  0.32282536  1
  N  N57  1  0.78034144  0.42506053  0.07626088  1
  N  N58  1  0.56181248  0.53190253  0.83105877  1
  N  N59  1  0.44943996  0.42522157  0.58011538  1
  N  N60  1  0.21880875  0.87146216  0.37995900  1
  N  N61  1  0.12936134  0.77301294  0.11298170  1
  N  N62  1  0.86354776  0.88336927  0.84452195  1
  N  N63  1  0.77806436  0.76439750  0.57284230  1
  N  N64  1  0.55817861  0.87493877  0.31921227  1
  N  N65  1  0.42475406  0.77092254  0.09012657  1
  N  N66  1  0.22411464  0.86251166  0.89240531  1
  N  N67  1  0.10885773  0.76532561  0.63817603  1
  N  N68  1  0.88313114  0.87529746  0.30942438  1
  N  N69  1  0.77729847  0.76031967  0.05473909  1
  N  N70  1  0.58383688  0.86091651  0.83846602  1
  N  N71  1  0.44279709  0.76575815  0.61302487  1
