# generated using pymatgen
data_Al11BN12
_symmetry_space_group_name_H-M   'P 1'
_cell_length_a   9.29020141
_cell_length_b   9.32087936
_cell_length_c   10.05368433
_cell_angle_alpha   90.06677219
_cell_angle_beta   89.78760207
_cell_angle_gamma   60.10404617
_symmetry_Int_Tables_number   1
_chemical_formula_structural   Al11BN12
_chemical_formula_sum   'Al33 B3 N36'
_cell_volume   754.72139652
_cell_formula_units_Z   3
loop_
 _symmetry_equiv_pos_site_id
 _symmetry_equiv_pos_as_xyz
  1  'x, y, z'
loop_
 _atom_site_type_symbol
 _atom_site_label
 _atom_site_symmetry_multiplicity
 _atom_site_fract_x
 _atom_site_fract_y
 _atom_site_fract_z
 _atom_site_occupancy
  Al  Al0  1  0.11500145  0.08822856  0.31734986  1
  Al  Al1  1  0.22184191  0.20222295  0.06924895  1
  Al  Al2  1  0.89385542  0.20529458  0.57283933  1
  Al  Al3  1  0.44328268  0.09764406  0.31858595  1
  Al  Al4  1  0.54913799  0.21162775  0.07066797  1
  Al  Al5  1  0.10939906  0.08889878  0.82834602  1
  Al  Al6  1  0.22318504  0.20292571  0.57126646  1
  Al  Al7  1  0.78347622  0.08474768  0.38823228  1
  Al  Al8  1  0.89586947  0.20313143  0.06915676  1
  Al  Al9  1  0.45344150  0.09696449  0.82489135  1
  Al  Al10  1  0.54972553  0.21048471  0.57208504  1
  Al  Al11  1  0.11005032  0.42780325  0.32220946  1
  Al  Al12  1  0.22440762  0.54034747  0.07206372  1
  Al  Al13  1  0.77936910  0.41596839  0.82048436  1
  Al  Al14  1  0.89265751  0.53211489  0.57758313  1
  Al  Al15  1  0.44412245  0.42816255  0.32315736  1
  Al  Al16  1  0.55193054  0.54071802  0.07138380  1
  Al  Al17  1  0.11383229  0.42106636  0.82037746  1
  Al  Al18  1  0.21651436  0.54579027  0.57602946  1
  Al  Al19  1  0.77925097  0.42786187  0.32016242  1
  Al  Al20  1  0.89198304  0.53416334  0.05604092  1
  Al  Al21  1  0.44969722  0.42554818  0.82134387  1
  Al  Al22  1  0.55450746  0.54061781  0.57267976  1
  Al  Al23  1  0.12065718  0.75948164  0.31636686  1
  Al  Al24  1  0.87277163  0.88317312  0.65852246  1
  Al  Al25  1  0.43823907  0.75988921  0.31815748  1
  Al  Al26  1  0.55121114  0.87296779  0.11580701  1
  Al  Al27  1  0.11048147  0.76118880  0.84222182  1
  Al  Al28  1  0.21838336  0.87175287  0.57879190  1
  Al  Al29  1  0.77912828  0.76365720  0.38951349  1
  Al  Al30  1  0.89171706  0.87636173  0.13024243  1
  Al  Al31  1  0.45085254  0.75918068  0.83697654  1
  Al  Al32  1  0.55950226  0.86945204  0.62180125  1
  B  B33  1  0.77409751  0.09438742  0.90835235  1
  B  B34  1  0.22499298  0.86926578  0.06722973  1
  B  B35  1  0.74758377  0.82380871  0.91374768  1
  N  N36  1  0.22278309  0.20282741  0.38047610  1
  N  N37  1  0.12426542  0.06932251  0.12460913  1
  N  N38  1  0.87894076  0.18702429  0.87703373  1
  N  N39  1  0.78084257  0.08794085  0.58059378  1
  N  N40  1  0.55014807  0.20841980  0.37979722  1
  N  N41  1  0.44016325  0.10245224  0.12858030  1
  N  N42  1  0.23016622  0.19687235  0.88110748  1
  N  N43  1  0.11288840  0.09272927  0.63750014  1
  N  N44  1  0.89437050  0.20582736  0.37656669  1
  N  N45  1  0.77856572  0.09060793  0.07157948  1
  N  N46  1  0.57368489  0.20116333  0.87976062  1
  N  N47  1  0.44384967  0.09716177  0.63344450  1
  N  N48  1  0.21948589  0.54305591  0.38343310  1
  N  N49  1  0.10914270  0.43012011  0.13211402  1
  N  N50  1  0.90056553  0.51011381  0.87517959  1
  N  N51  1  0.77565723  0.42544594  0.63092739  1
  N  N52  1  0.55470041  0.54069747  0.38177261  1
  N  N53  1  0.44446755  0.42849155  0.13438627  1
  N  N54  1  0.22501190  0.53315059  0.88428449  1
  N  N55  1  0.11528331  0.42441308  0.63077881  1
  N  N56  1  0.89224220  0.53227243  0.38387701  1
  N  N57  1  0.77744847  0.42992300  0.13054483  1
  N  N58  1  0.55793279  0.53623760  0.88396973  1
  N  N59  1  0.44182252  0.43079450  0.63205878  1
  N  N60  1  0.22156625  0.87145144  0.38918554  1
  N  N61  1  0.13022408  0.77072849  0.12057721  1
  N  N62  1  0.85420098  0.89573411  0.85405608  1
  N  N63  1  0.77974644  0.76567507  0.58133068  1
  N  N64  1  0.56059231  0.86680630  0.33237054  1
  N  N65  1  0.41748679  0.77091126  0.12261627  1
  N  N66  1  0.22550525  0.87083752  0.90529374  1
  N  N67  1  0.10840220  0.76376721  0.64938834  1
  N  N68  1  0.88691634  0.87089664  0.31907689  1
  N  N69  1  0.77720955  0.77242620  0.05994372  1
  N  N70  1  0.57946030  0.86815646  0.86246274  1
  N  N71  1  0.44099276  0.76068894  0.64202914  1
