# generated using pymatgen
data_Al11BN12
_symmetry_space_group_name_H-M   'P 1'
_cell_length_a   9.31661966
_cell_length_b   9.30707879
_cell_length_c   9.99681760
_cell_angle_alpha   89.95387954
_cell_angle_beta   89.90917537
_cell_angle_gamma   59.90555111
_symmetry_Int_Tables_number   1
_chemical_formula_structural   Al11BN12
_chemical_formula_sum   'Al33 B3 N36'
_cell_volume   749.97967327
_cell_formula_units_Z   3
loop_
 _symmetry_equiv_pos_site_id
 _symmetry_equiv_pos_as_xyz
  1  'x, y, z'
loop_
 _atom_site_type_symbol
 _atom_site_label
 _atom_site_symmetry_multiplicity
 _atom_site_fract_x
 _atom_site_fract_y
 _atom_site_fract_z
 _atom_site_occupancy
  Al  Al0  1  0.10418473  0.10271490  0.38812537  1
  Al  Al1  1  0.22318127  0.19892208  0.13785679  1
  Al  Al2  1  0.88613684  0.20261359  0.64191223  1
  Al  Al3  1  0.44570052  0.09278820  0.38726282  1
  Al  Al4  1  0.56080455  0.19846801  0.13027226  1
  Al  Al5  1  0.10718926  0.09187346  0.89183335  1
  Al  Al6  1  0.22121731  0.20658090  0.63858476  1
  Al  Al7  1  0.77972484  0.09065883  0.38448016  1
  Al  Al8  1  0.89341585  0.19706811  0.13188747  1
  Al  Al9  1  0.45503095  0.08915187  0.88773879  1
  Al  Al10  1  0.56134456  0.20192351  0.63991061  1
  Al  Al11  1  0.10475886  0.42798157  0.38536345  1
  Al  Al12  1  0.22298643  0.54568916  0.06866078  1
  Al  Al13  1  0.78174643  0.42513228  0.88879275  1
  Al  Al14  1  0.88608672  0.54505294  0.64055225  1
  Al  Al15  1  0.44389527  0.42784452  0.34767959  1
  Al  Al16  1  0.55686572  0.53914360  0.12552551  1
  Al  Al17  1  0.10417079  0.42843746  0.88698560  1
  Al  Al18  1  0.22118753  0.54592313  0.57278163  1
  Al  Al19  1  0.77428576  0.43039137  0.38740953  1
  Al  Al20  1  0.88827939  0.54033969  0.13287004  1
  Al  Al21  1  0.45516462  0.41755128  0.87229560  1
  Al  Al22  1  0.55707005  0.53619435  0.64232721  1
  Al  Al23  1  0.11523652  0.76589858  0.30839415  1
  Al  Al24  1  0.87805195  0.87813400  0.64687320  1
  Al  Al25  1  0.43066644  0.77166467  0.31238197  1
  Al  Al26  1  0.55512334  0.87515347  0.12436819  1
  Al  Al27  1  0.11044582  0.76089461  0.83026433  1
  Al  Al28  1  0.22345784  0.86854135  0.57341892  1
  Al  Al29  1  0.77764330  0.76385063  0.38271440  1
  Al  Al30  1  0.88867160  0.87523516  0.11464287  1
  Al  Al31  1  0.44755620  0.76239312  0.83598847  1
  Al  Al32  1  0.56332497  0.87336779  0.64178694  1
  B  B33  1  0.77309318  0.08925902  0.89344047  1
  B  B34  1  0.22738062  0.86607185  0.05817109  1
  B  B35  1  0.77255813  0.77037119  0.89414143  1
  N  N36  1  0.22269459  0.20511068  0.32827065  1
  N  N37  1  0.12151315  0.07387237  0.08324093  1
  N  N38  1  0.88050152  0.18763233  0.83433331  1
  N  N39  1  0.77965242  0.09140181  0.57361708  1
  N  N40  1  0.55870087  0.19997056  0.32229167  1
  N  N41  1  0.44271880  0.09643527  0.07445165  1
  N  N42  1  0.22383803  0.20115523  0.82927135  1
  N  N43  1  0.10505278  0.10252457  0.58167614  1
  N  N44  1  0.88527366  0.20650054  0.32352422  1
  N  N45  1  0.77719520  0.09544363  0.05377294  1
  N  N46  1  0.58478303  0.18667704  0.83482929  1
  N  N47  1  0.44591440  0.09407634  0.57984531  1
  N  N48  1  0.21722147  0.54782814  0.37249786  1
  N  N49  1  0.10960863  0.42365321  0.08062960  1
  N  N50  1  0.87801735  0.56318861  0.83265869  1
  N  N51  1  0.77760655  0.42865845  0.58063994  1
  N  N52  1  0.55725580  0.54062011  0.32221713  1
  N  N53  1  0.44943618  0.42269955  0.09061435  1
  N  N54  1  0.22407972  0.53761922  0.87560383  1
  N  N55  1  0.10608272  0.42792998  0.57950863  1
  N  N56  1  0.88493797  0.54183778  0.32369892  1
  N  N57  1  0.78319417  0.42377592  0.07661301  1
  N  N58  1  0.56352202  0.53254122  0.83764789  1
  N  N59  1  0.44550653  0.42563906  0.60297680  1
  N  N60  1  0.22101366  0.86996037  0.38317012  1
  N  N61  1  0.12855408  0.77364313  0.11523222  1
  N  N62  1  0.86493031  0.88329733  0.84476474  1
  N  N63  1  0.77891288  0.76362495  0.57275039  1
  N  N64  1  0.55808786  0.87454731  0.31948840  1
  N  N65  1  0.41637714  0.77694684  0.11302650  1
  N  N66  1  0.22913379  0.86021142  0.89719520  1
  N  N67  1  0.11071053  0.76400805  0.63875887  1
  N  N68  1  0.88238515  0.87535314  0.31089805  1
  N  N69  1  0.77820991  0.75972509  0.05493370  1
  N  N70  1  0.58567433  0.86125167  0.83871085  1
  N  N71  1  0.43810055  0.76910266  0.63800787  1
