# generated using pymatgen
data_Al11BN12
_symmetry_space_group_name_H-M   'P 1'
_cell_length_a   9.26191092
_cell_length_b   9.32844914
_cell_length_c   9.96358063
_cell_angle_alpha   90.15145005
_cell_angle_beta   89.73108090
_cell_angle_gamma   60.06053486
_symmetry_Int_Tables_number   1
_chemical_formula_structural   Al11BN12
_chemical_formula_sum   'Al33 B3 N36'
_cell_volume   745.94831720
_cell_formula_units_Z   3
loop_
 _symmetry_equiv_pos_site_id
 _symmetry_equiv_pos_as_xyz
  1  'x, y, z'
loop_
 _atom_site_type_symbol
 _atom_site_label
 _atom_site_symmetry_multiplicity
 _atom_site_fract_x
 _atom_site_fract_y
 _atom_site_fract_z
 _atom_site_occupancy
  Al  Al0  1  0.11242689  0.08821234  0.30732122  1
  Al  Al1  1  0.22436969  0.19877433  0.05905208  1
  Al  Al2  1  0.88949458  0.20659216  0.56420984  1
  Al  Al3  1  0.44603515  0.09409908  0.30812886  1
  Al  Al4  1  0.56177383  0.20492149  0.05565932  1
  Al  Al5  1  0.10974109  0.08961115  0.81377734  1
  Al  Al6  1  0.22156611  0.20594472  0.56126582  1
  Al  Al7  1  0.77940322  0.09268539  0.30831905  1
  Al  Al8  1  0.88962246  0.19757290  0.05540501  1
  Al  Al9  1  0.46168511  0.08579877  0.80936436  1
  Al  Al10  1  0.55407142  0.20733871  0.56331437  1
  Al  Al11  1  0.11145940  0.42677413  0.31057307  1
  Al  Al12  1  0.22816042  0.53658486  0.06230496  1
  Al  Al13  1  0.77184284  0.43784099  0.80809490  1
  Al  Al14  1  0.88707872  0.54396493  0.55882658  1
  Al  Al15  1  0.44617267  0.42597973  0.31271966  1
  Al  Al16  1  0.55054037  0.54232860  0.06105622  1
  Al  Al17  1  0.10933947  0.43047926  0.81065840  1
  Al  Al18  1  0.21478279  0.54777771  0.56245955  1
  Al  Al19  1  0.77913598  0.42458396  0.30966753  1
  Al  Al20  1  0.88782928  0.53812002  0.06381910  1
  Al  Al21  1  0.44647202  0.43048172  0.80641360  1
  Al  Al22  1  0.55324775  0.54460807  0.55894632  1
  Al  Al23  1  0.11663555  0.76160642  0.30519052  1
  Al  Al24  1  0.87705904  0.87322223  0.65664309  1
  Al  Al25  1  0.43817625  0.76478624  0.30554811  1
  Al  Al26  1  0.55530805  0.87012340  0.06220090  1
  Al  Al27  1  0.11676236  0.75275538  0.83231634  1
  Al  Al28  1  0.21778616  0.87276914  0.56418596  1
  Al  Al29  1  0.77838831  0.75925351  0.31996869  1
  Al  Al30  1  0.89138993  0.86827233  0.09061100  1
  Al  Al31  1  0.44845763  0.76272532  0.81521478  1
  Al  Al32  1  0.55430593  0.87314598  0.55755210  1
  B  B33  1  0.74869853  0.15535723  0.79804735  1
  B  B34  1  0.22484941  0.86995414  0.05544407  1
  B  B35  1  0.78305607  0.75150597  0.85017768  1
  N  N36  1  0.22173945  0.20382995  0.36761028  1
  N  N37  1  0.12135082  0.06982788  0.11064220  1
  N  N38  1  0.87058115  0.20312246  0.86113332  1
  N  N39  1  0.76963365  0.11104575  0.64953068  1
  N  N40  1  0.55795054  0.20397056  0.37335165  1
  N  N41  1  0.44788976  0.09490202  0.11413999  1
  N  N42  1  0.22549285  0.20237252  0.86822308  1
  N  N43  1  0.11092182  0.09416818  0.62395954  1
  N  N44  1  0.88887878  0.20350318  0.37265098  1
  N  N45  1  0.77634123  0.09660880  0.11725457  1
  N  N46  1  0.58065617  0.20237225  0.86129551  1
  N  N47  1  0.44488260  0.09470333  0.62089232  1
  N  N48  1  0.22128002  0.54092508  0.36947758  1
  N  N49  1  0.11266369  0.42506706  0.11848534  1
  N  N50  1  0.87650375  0.55787689  0.86964627  1
  N  N51  1  0.77632154  0.43072101  0.61924045  1
  N  N52  1  0.55427851  0.54242057  0.36678343  1
  N  N53  1  0.44836490  0.42349196  0.12150129  1
  N  N54  1  0.23130301  0.52701614  0.87379997  1
  N  N55  1  0.10984649  0.42899813  0.62057295  1
  N  N56  1  0.89024361  0.53349911  0.36824699  1
  N  N57  1  0.77946261  0.42204485  0.11670831  1
  N  N58  1  0.55304796  0.54201360  0.87088670  1
  N  N59  1  0.44172818  0.43208329  0.61719048  1
  N  N60  1  0.22136294  0.87191144  0.37459650  1
  N  N61  1  0.13139485  0.76824014  0.10634661  1
  N  N62  1  0.88397896  0.83589007  0.85830495  1
  N  N63  1  0.77433973  0.76409982  0.60017241  1
  N  N64  1  0.54901557  0.87433657  0.36556871  1
  N  N65  1  0.41974510  0.77436004  0.11102138  1
  N  N66  1  0.22392546  0.87326031  0.89168318  1
  N  N67  1  0.11091484  0.76462197  0.63754534  1
  N  N68  1  0.89346082  0.87020430  0.32895300  1
  N  N69  1  0.77353287  0.75437641  0.12446222  1
  N  N70  1  0.58694435  0.85573557  0.86906540  1
  N  N71  1  0.44071866  0.76517387  0.62445751  1
