# generated using pymatgen
data_Al11BN12
_symmetry_space_group_name_H-M   'P 1'
_cell_length_a   9.28147378
_cell_length_b   9.30931545
_cell_length_c   10.06132989
_cell_angle_alpha   90.03236976
_cell_angle_beta   89.73417083
_cell_angle_gamma   60.13528732
_symmetry_Int_Tables_number   1
_chemical_formula_structural   Al11BN12
_chemical_formula_sum   'Al33 B3 N36'
_cell_volume   753.88323486
_cell_formula_units_Z   3
loop_
 _symmetry_equiv_pos_site_id
 _symmetry_equiv_pos_as_xyz
  1  'x, y, z'
loop_
 _atom_site_type_symbol
 _atom_site_label
 _atom_site_symmetry_multiplicity
 _atom_site_fract_x
 _atom_site_fract_y
 _atom_site_fract_z
 _atom_site_occupancy
  Al  Al0  1  0.11482699  0.08834721  0.31772802  1
  Al  Al1  1  0.22261905  0.20191141  0.07021800  1
  Al  Al2  1  0.89383437  0.20504737  0.57310281  1
  Al  Al3  1  0.44413282  0.09503179  0.32036440  1
  Al  Al4  1  0.54896508  0.21062307  0.07144647  1
  Al  Al5  1  0.10995508  0.08866680  0.82844004  1
  Al  Al6  1  0.22289358  0.20349859  0.57162946  1
  Al  Al7  1  0.78305327  0.08516606  0.38884782  1
  Al  Al8  1  0.89593355  0.20289386  0.06904907  1
  Al  Al9  1  0.45513508  0.09337424  0.82128771  1
  Al  Al10  1  0.54941051  0.21045080  0.57226720  1
  Al  Al11  1  0.11052633  0.42735514  0.32241967  1
  Al  Al12  1  0.22462417  0.54052147  0.07195455  1
  Al  Al13  1  0.77928369  0.41636118  0.82045510  1
  Al  Al14  1  0.89192499  0.53305378  0.57884583  1
  Al  Al15  1  0.44416283  0.42837251  0.32317366  1
  Al  Al16  1  0.55231303  0.54101145  0.07153755  1
  Al  Al17  1  0.11403040  0.42115291  0.82072233  1
  Al  Al18  1  0.21619919  0.54612607  0.57629845  1
  Al  Al19  1  0.77917754  0.42753588  0.32009964  1
  Al  Al20  1  0.89311286  0.53315865  0.05725028  1
  Al  Al21  1  0.44984968  0.42533247  0.82160569  1
  Al  Al22  1  0.55451167  0.54083849  0.57251595  1
  Al  Al23  1  0.12121424  0.75948925  0.31655964  1
  Al  Al24  1  0.87086338  0.88242394  0.65931343  1
  Al  Al25  1  0.43959679  0.76228225  0.31903219  1
  Al  Al26  1  0.54446286  0.87676117  0.07848239  1
  Al  Al27  1  0.11120309  0.76117679  0.84201526  1
  Al  Al28  1  0.21794344  0.87159370  0.57881989  1
  Al  Al29  1  0.78390390  0.76184214  0.39120412  1
  Al  Al30  1  0.89234689  0.87662256  0.13113411  1
  Al  Al31  1  0.45261446  0.75984632  0.83084788  1
  Al  Al32  1  0.54989042  0.87398695  0.57578968  1
  B  B33  1  0.77349358  0.09446946  0.90871281  1
  B  B34  1  0.22476149  0.87022338  0.06790933  1
  B  B35  1  0.75241326  0.82015016  0.91667759  1
  N  N36  1  0.22218113  0.20337442  0.38059558  1
  N  N37  1  0.12445560  0.06902465  0.12467118  1
  N  N38  1  0.87907836  0.18695359  0.87716276  1
  N  N39  1  0.78066510  0.08763916  0.58093777  1
  N  N40  1  0.54988341  0.20867394  0.37959518  1
  N  N41  1  0.44279422  0.09717595  0.13209448  1
  N  N42  1  0.23124431  0.19651502  0.88171990  1
  N  N43  1  0.11281394  0.09277391  0.63778132  1
  N  N44  1  0.89427066  0.20580401  0.37676952  1
  N  N45  1  0.77843326  0.09043571  0.07151958  1
  N  N46  1  0.57321011  0.20029442  0.88001572  1
  N  N47  1  0.44495062  0.09467524  0.63294960  1
  N  N48  1  0.21931438  0.54321374  0.38363748  1
  N  N49  1  0.11057528  0.42898520  0.13236770  1
  N  N50  1  0.89972843  0.51209515  0.87575067  1
  N  N51  1  0.77568094  0.42504947  0.63116911  1
  N  N52  1  0.55467712  0.54118859  0.38122539  1
  N  N53  1  0.44459083  0.42826522  0.13422172  1
  N  N54  1  0.22504647  0.53332994  0.88455360  1
  N  N55  1  0.11517134  0.42442784  0.63128939  1
  N  N56  1  0.89233063  0.53195458  0.38338644  1
  N  N57  1  0.77797849  0.42904585  0.13049372  1
  N  N58  1  0.55752318  0.53762203  0.88369226  1
  N  N59  1  0.44169019  0.43091596  0.63232048  1
  N  N60  1  0.22117113  0.87162329  0.38909352  1
  N  N61  1  0.13129124  0.77093324  0.12092616  1
  N  N62  1  0.85415546  0.89474680  0.85479453  1
  N  N63  1  0.78034027  0.76455053  0.58367818  1
  N  N64  1  0.55170398  0.87245703  0.37351927  1
  N  N65  1  0.42077547  0.77203377  0.12549384  1
  N  N66  1  0.22750518  0.87024153  0.90553971  1
  N  N67  1  0.10796146  0.76408121  0.64990793  1
  N  N68  1  0.88678527  0.87152179  0.31900208  1
  N  N69  1  0.78175475  0.76956521  0.06387272  1
  N  N70  1  0.57381607  0.87177920  0.88313734  1
  N  N71  1  0.44215787  0.76237839  0.63997950  1
