# generated using pymatgen
data_Al11BN12
_symmetry_space_group_name_H-M   'P 1'
_cell_length_a   9.27525778
_cell_length_b   9.26730653
_cell_length_c   9.94551883
_cell_angle_alpha   89.73244093
_cell_angle_beta   89.76133355
_cell_angle_gamma   60.05650398
_symmetry_Int_Tables_number   1
_chemical_formula_structural   Al11BN12
_chemical_formula_sum   'Al33 B3 N36'
_cell_volume   740.76230916
_cell_formula_units_Z   3
loop_
 _symmetry_equiv_pos_site_id
 _symmetry_equiv_pos_as_xyz
  1  'x, y, z'
loop_
 _atom_site_type_symbol
 _atom_site_label
 _atom_site_symmetry_multiplicity
 _atom_site_fract_x
 _atom_site_fract_y
 _atom_site_fract_z
 _atom_site_occupancy
  Al  Al0  1  0.10944049  0.09568028  0.39963589  1
  Al  Al1  1  0.22389525  0.19794348  0.14866964  1
  Al  Al2  1  0.88668426  0.20217979  0.65272707  1
  Al  Al3  1  0.44525335  0.09327653  0.39846457  1
  Al  Al4  1  0.55788350  0.20309315  0.14475600  1
  Al  Al5  1  0.11041932  0.08755411  0.89691829  1
  Al  Al6  1  0.22088526  0.20670790  0.64973263  1
  Al  Al7  1  0.77945756  0.09226153  0.39487251  1
  Al  Al8  1  0.89157685  0.19743225  0.14118868  1
  Al  Al9  1  0.45450507  0.08957108  0.89870914  1
  Al  Al10  1  0.56112062  0.20277598  0.65077541  1
  Al  Al11  1  0.10968796  0.42984365  0.39658595  1
  Al  Al12  1  0.22689026  0.53818558  0.14099975  1
  Al  Al13  1  0.77717927  0.42836659  0.89786143  1
  Al  Al14  1  0.88700566  0.54524644  0.65075050  1
  Al  Al15  1  0.44491742  0.42756920  0.39758917  1
  Al  Al16  1  0.55040148  0.54231334  0.14908810  1
  Al  Al17  1  0.10725785  0.43201179  0.89958104  1
  Al  Al18  1  0.22337467  0.53607584  0.64940674  1
  Al  Al19  1  0.77942054  0.42676814  0.39725768  1
  Al  Al20  1  0.88680341  0.54117734  0.14274160  1
  Al  Al21  1  0.45358562  0.42102167  0.89923721  1
  Al  Al22  1  0.55696919  0.53858046  0.64878819  1
  Al  Al23  1  0.11124610  0.76717808  0.35110362  1
  Al  Al24  1  0.87874070  0.87705908  0.65616070  1
  Al  Al25  1  0.44567458  0.76203642  0.39972507  1
  Al  Al26  1  0.54989916  0.87333556  0.14360680  1
  Al  Al27  1  0.10731762  0.76485701  0.86149809  1
  Al  Al28  1  0.22323060  0.87353052  0.63875244  1
  Al  Al29  1  0.77858661  0.76320859  0.39420828  1
  Al  Al30  1  0.88871757  0.87531131  0.12452023  1
  Al  Al31  1  0.44706479  0.76061952  0.89710026  1
  Al  Al32  1  0.56162879  0.86912072  0.65299764  1
  B  B33  1  0.77048542  0.09384960  0.90403732  1
  B  B34  1  0.22270547  0.87023234  0.11449433  1
  B  B35  1  0.77040440  0.76897085  0.90449661  1
  N  N36  1  0.22204550  0.20629622  0.33912892  1
  N  N37  1  0.12594993  0.06389708  0.09105856  1
  N  N38  1  0.87830385  0.19019695  0.84699515  1
  N  N39  1  0.77856823  0.09286390  0.58459385  1
  N  N40  1  0.55693270  0.20470769  0.33605653  1
  N  N41  1  0.44387098  0.09498495  0.08761401  1
  N  N42  1  0.22180404  0.20513450  0.84196155  1
  N  N43  1  0.10672044  0.10047663  0.59149602  1
  N  N44  1  0.88863981  0.20485150  0.33280454  1
  N  N45  1  0.77409010  0.09728921  0.06530766  1
  N  N46  1  0.58167524  0.19208422  0.84477542  1
  N  N47  1  0.44583165  0.09357407  0.59301764  1
  N  N48  1  0.22353394  0.53769789  0.33426538  1
  N  N49  1  0.11111030  0.42570493  0.08925139  1
  N  N50  1  0.87782907  0.56496113  0.84467246  1
  N  N51  1  0.78085897  0.42624801  0.59165097  1
  N  N52  1  0.55638271  0.53948163  0.33912835  1
  N  N53  1  0.44833461  0.42509080  0.08811379  1
  N  N54  1  0.22977275  0.53045216  0.84306582  1
  N  N55  1  0.10975910  0.42886276  0.58886627  1
  N  N56  1  0.88769070  0.54141597  0.33449941  1
  N  N57  1  0.77739521  0.42693893  0.08789066  1
  N  N58  1  0.55698396  0.53862223  0.83954438  1
  N  N59  1  0.44592542  0.42599937  0.58962769  1
  N  N60  1  0.22500046  0.87506925  0.35739610  1
  N  N61  1  0.12744290  0.77423793  0.10020449  1
  N  N62  1  0.86289237  0.88471149  0.85500821  1
  N  N63  1  0.77770857  0.76368789  0.58412604  1
  N  N64  1  0.55721931  0.87171624  0.33402846  1
  N  N65  1  0.41649575  0.77416383  0.09097436  1
  N  N66  1  0.22984688  0.87303094  0.83257214  1
  N  N67  1  0.10423122  0.76285022  0.62502369  1
  N  N68  1  0.88343507  0.87558973  0.32097152  1
  N  N69  1  0.77381210  0.76128432  0.06683354  1
  N  N70  1  0.58070042  0.85909649  0.84792291  1
  N  N71  1  0.45061393  0.76017742  0.59149521  1
