# generated using pymatgen
data_Al11BN12
_symmetry_space_group_name_H-M   'P 1'
_cell_length_a   9.29611902
_cell_length_b   9.27465647
_cell_length_c   10.11415793
_cell_angle_alpha   89.73373167
_cell_angle_beta   90.02038005
_cell_angle_gamma   59.98954078
_symmetry_Int_Tables_number   1
_chemical_formula_structural   Al11BN12
_chemical_formula_sum   'Al33 B3 N36'
_cell_volume   755.10495280
_cell_formula_units_Z   3
loop_
 _symmetry_equiv_pos_site_id
 _symmetry_equiv_pos_as_xyz
  1  'x, y, z'
loop_
 _atom_site_type_symbol
 _atom_site_label
 _atom_site_symmetry_multiplicity
 _atom_site_fract_x
 _atom_site_fract_y
 _atom_site_fract_z
 _atom_site_occupancy
  Al  Al0  1  0.10894710  0.09416855  0.36219871  1
  Al  Al1  1  0.22543829  0.20013157  0.13159553  1
  Al  Al2  1  0.89048114  0.19246776  0.64764786  1
  Al  Al3  1  0.44639120  0.08977829  0.38970469  1
  Al  Al4  1  0.55953084  0.20171955  0.13574584  1
  Al  Al5  1  0.10769557  0.09311926  0.89105029  1
  Al  Al6  1  0.22729258  0.19629999  0.64438364  1
  Al  Al7  1  0.78117021  0.08786981  0.38692258  1
  Al  Al8  1  0.88917072  0.20008361  0.12410227  1
  Al  Al9  1  0.45688903  0.09135712  0.89067326  1
  Al  Al10  1  0.56481862  0.19591245  0.63966293  1
  Al  Al11  1  0.10807005  0.43352381  0.31824239  1
  Al  Al12  1  0.22471136  0.54371669  0.06863762  1
  Al  Al13  1  0.77360658  0.43509521  0.82462957  1
  Al  Al14  1  0.89439622  0.52666023  0.57085793  1
  Al  Al15  1  0.44260351  0.43059947  0.32338697  1
  Al  Al16  1  0.54778765  0.54638545  0.06933774  1
  Al  Al17  1  0.10521047  0.43941853  0.82055766  1
  Al  Al18  1  0.22031775  0.54160615  0.57253432  1
  Al  Al19  1  0.77462899  0.43224924  0.31512590  1
  Al  Al20  1  0.88774045  0.54346275  0.06001869  1
  Al  Al21  1  0.44816770  0.42874039  0.82238058  1
  Al  Al22  1  0.55639896  0.53892161  0.57252573  1
  Al  Al23  1  0.11708394  0.76101696  0.31091880  1
  Al  Al24  1  0.88006571  0.87243432  0.65031263  1
  Al  Al25  1  0.43636645  0.76013768  0.31560135  1
  Al  Al26  1  0.55224858  0.87744095  0.13112522  1
  Al  Al27  1  0.10993605  0.76323291  0.83436949  1
  Al  Al28  1  0.22224573  0.86882311  0.57492918  1
  Al  Al29  1  0.77731698  0.76413614  0.38638186  1
  Al  Al30  1  0.88698878  0.87973366  0.11965016  1
  Al  Al31  1  0.44667691  0.75951267  0.82976246  1
  Al  Al32  1  0.56716855  0.86795379  0.64452930  1
  B  B33  1  0.76952852  0.09774239  0.89499399  1
  B  B34  1  0.22706135  0.86558477  0.06251498  1
  B  B35  1  0.76653399  0.78435849  0.89851124  1
  N  N36  1  0.22842178  0.19856130  0.32384014  1
  N  N37  1  0.12000719  0.07663380  0.08589002  1
  N  N38  1  0.87758065  0.18596668  0.84139868  1
  N  N39  1  0.78182481  0.08773712  0.57450323  1
  N  N40  1  0.56040067  0.19645886  0.32803466  1
  N  N41  1  0.44421762  0.09893587  0.07529183  1
  N  N42  1  0.22801899  0.19973809  0.83704531  1
  N  N43  1  0.10839762  0.09607667  0.59690250  1
  N  N44  1  0.88690324  0.19724151  0.31672311  1
  N  N45  1  0.77156220  0.10085437  0.05408965  1
  N  N46  1  0.58395747  0.19029449  0.83414250  1
  N  N47  1  0.44750861  0.09034001  0.58030597  1
  N  N48  1  0.22005742  0.54159810  0.38206076  1
  N  N49  1  0.10473781  0.44041984  0.12762024  1
  N  N50  1  0.88141190  0.55706417  0.87324800  1
  N  N51  1  0.77603582  0.42764487  0.63549043  1
  N  N52  1  0.55612057  0.53925414  0.38248874  1
  N  N53  1  0.44174364  0.43484095  0.13296767  1
  N  N54  1  0.22658152  0.53573320  0.88325385  1
  N  N55  1  0.11181436  0.43034620  0.63138083  1
  N  N56  1  0.89277439  0.52836922  0.38076708  1
  N  N57  1  0.77223745  0.44061801  0.12468853  1
  N  N58  1  0.55612599  0.53833338  0.88462719  1
  N  N59  1  0.44302332  0.42962415  0.63116370  1
  N  N60  1  0.22346152  0.86540952  0.38527261  1
  N  N61  1  0.12716659  0.77501962  0.11796860  1
  N  N62  1  0.86374995  0.88309179  0.84593915  1
  N  N63  1  0.77922855  0.76281207  0.57503273  1
  N  N64  1  0.55982700  0.86937039  0.32186976  1
  N  N65  1  0.41491971  0.77559503  0.12217715  1
  N  N66  1  0.23082105  0.86072146  0.90185943  1
  N  N67  1  0.11309376  0.76044195  0.64302996  1
  N  N68  1  0.88436418  0.87102333  0.31292984  1
  N  N69  1  0.76800567  0.77798967  0.05693777  1
  N  N70  1  0.58399676  0.86265000  0.83787281  1
  N  N71  1  0.44207178  0.75989974  0.63869750  1
