# generated using pymatgen
data_Al11BN12
_symmetry_space_group_name_H-M   'P 1'
_cell_length_a   9.31107695
_cell_length_b   9.29272070
_cell_length_c   9.99612333
_cell_angle_alpha   89.89135459
_cell_angle_beta   89.80850457
_cell_angle_gamma   59.93770291
_symmetry_Int_Tables_number   1
_chemical_formula_structural   Al11BN12
_chemical_formula_sum   'Al33 B3 N36'
_cell_volume   748.56519105
_cell_formula_units_Z   3
loop_
 _symmetry_equiv_pos_site_id
 _symmetry_equiv_pos_as_xyz
  1  'x, y, z'
loop_
 _atom_site_type_symbol
 _atom_site_label
 _atom_site_symmetry_multiplicity
 _atom_site_fract_x
 _atom_site_fract_y
 _atom_site_fract_z
 _atom_site_occupancy
  Al  Al0  1  0.10441932  0.10265090  0.38711571  1
  Al  Al1  1  0.22337496  0.19863077  0.13736449  1
  Al  Al2  1  0.88594141  0.20286879  0.64138408  1
  Al  Al3  1  0.44562287  0.09396457  0.38735223  1
  Al  Al4  1  0.55860882  0.20248374  0.13449243  1
  Al  Al5  1  0.10660399  0.09205835  0.89079437  1
  Al  Al6  1  0.22097559  0.20603678  0.63854471  1
  Al  Al7  1  0.78032170  0.09030097  0.38376458  1
  Al  Al8  1  0.89311064  0.19717542  0.13085990  1
  Al  Al9  1  0.45475494  0.09041610  0.88788782  1
  Al  Al10  1  0.56061126  0.20379780  0.63941441  1
  Al  Al11  1  0.10552129  0.42846447  0.38410819  1
  Al  Al12  1  0.22317108  0.54473747  0.06875589  1
  Al  Al13  1  0.78032678  0.42536801  0.88810127  1
  Al  Al14  1  0.88489012  0.54538523  0.64039760  1
  Al  Al15  1  0.44994279  0.42571895  0.38514648  1
  Al  Al16  1  0.55536543  0.53642984  0.13152513  1
  Al  Al17  1  0.10439608  0.42835218  0.88566705  1
  Al  Al18  1  0.21574441  0.54896495  0.57356601  1
  Al  Al19  1  0.77619846  0.42968250  0.38692141  1
  Al  Al20  1  0.88739881  0.54062785  0.13178377  1
  Al  Al21  1  0.45946159  0.41549032  0.88731328  1
  Al  Al22  1  0.55606813  0.53784104  0.64090391  1
  Al  Al23  1  0.11687698  0.76413229  0.30682601  1
  Al  Al24  1  0.87632987  0.87929621  0.64704089  1
  Al  Al25  1  0.43460035  0.76900126  0.32056328  1
  Al  Al26  1  0.55469592  0.87506441  0.12453959  1
  Al  Al27  1  0.11037294  0.75960010  0.82950351  1
  Al  Al28  1  0.22315397  0.86899382  0.57300861  1
  Al  Al29  1  0.77846916  0.76410936  0.38267778  1
  Al  Al30  1  0.88798575  0.87597742  0.11373748  1
  Al  Al31  1  0.45049249  0.75904398  0.84866373  1
  Al  Al32  1  0.56165921  0.87300499  0.64268055  1
  B  B33  1  0.77228990  0.09076794  0.89273457  1
  B  B34  1  0.22654402  0.86571980  0.05640474  1
  B  B35  1  0.77213145  0.77120330  0.89425790  1
  N  N36  1  0.22287905  0.20516665  0.32776349  1
  N  N37  1  0.12184760  0.07321938  0.08235439  1
  N  N38  1  0.87979692  0.18764152  0.83402050  1
  N  N39  1  0.77911693  0.09217320  0.57317669  1
  N  N40  1  0.55748076  0.20409591  0.32486036  1
  N  N41  1  0.44338922  0.09743861  0.07521764  1
  N  N42  1  0.22361199  0.20075090  0.82906006  1
  N  N43  1  0.10461799  0.10271391  0.58087313  1
  N  N44  1  0.88591933  0.20632551  0.32253876  1
  N  N45  1  0.77524092  0.09677065  0.05355776  1
  N  N46  1  0.58314823  0.18937337  0.83230808  1
  N  N47  1  0.44562737  0.09512401  0.58037528  1
  N  N48  1  0.21757806  0.54780888  0.37234943  1
  N  N49  1  0.10921795  0.42363767  0.07962245  1
  N  N50  1  0.87741155  0.56308735  0.83251377  1
  N  N51  1  0.77769173  0.42839029  0.57991554  1
  N  N52  1  0.55693136  0.53811880  0.32438583  1
  N  N53  1  0.45229538  0.42139745  0.07857025  1
  N  N54  1  0.22649787  0.53519416  0.87197205  1
  N  N55  1  0.10535947  0.42765600  0.57972885  1
  N  N56  1  0.88518710  0.54217181  0.32285761  1
  N  N57  1  0.78085193  0.42476015  0.07637592  1
  N  N58  1  0.56308124  0.52959297  0.83203910  1
  N  N59  1  0.44928098  0.42543675  0.57996475  1
  N  N60  1  0.22074084  0.87012517  0.38164578  1
  N  N61  1  0.12892381  0.77294980  0.11363763  1
  N  N62  1  0.86393534  0.88346940  0.84457947  1
  N  N63  1  0.77807167  0.76427858  0.57278423  1
  N  N64  1  0.55839260  0.87499152  0.31937546  1
  N  N65  1  0.42042781  0.77325350  0.10527013  1
  N  N66  1  0.22693181  0.86075036  0.89530044  1
  N  N67  1  0.10919951  0.76548310  0.63854257  1
  N  N68  1  0.88302422  0.87540721  0.30980795  1
  N  N69  1  0.77788746  0.76011272  0.05473309  1
  N  N70  1  0.58489747  0.86139944  0.83928469  1
  N  N71  1  0.43910997  0.76811525  0.63189681  1
