# generated using pymatgen
data_Al11BN12
_symmetry_space_group_name_H-M   'P 1'
_cell_length_a   9.25446940
_cell_length_b   9.32350202
_cell_length_c   9.90718754
_cell_angle_alpha   90.21501650
_cell_angle_beta   89.89254325
_cell_angle_gamma   60.06675363
_symmetry_Int_Tables_number   1
_chemical_formula_structural   Al11BN12
_chemical_formula_sum   'Al33 B3 N36'
_cell_volume   740.79190174
_cell_formula_units_Z   3
loop_
 _symmetry_equiv_pos_site_id
 _symmetry_equiv_pos_as_xyz
  1  'x, y, z'
loop_
 _atom_site_type_symbol
 _atom_site_label
 _atom_site_symmetry_multiplicity
 _atom_site_fract_x
 _atom_site_fract_y
 _atom_site_fract_z
 _atom_site_occupancy
  Al  Al0  1  0.11249915  0.08842054  0.30679249  1
  Al  Al1  1  0.22445870  0.19905008  0.05983481  1
  Al  Al2  1  0.88956102  0.20673462  0.56294359  1
  Al  Al3  1  0.44724232  0.09288299  0.30999007  1
  Al  Al4  1  0.56260248  0.20375231  0.05781359  1
  Al  Al5  1  0.10923986  0.08949634  0.81488850  1
  Al  Al6  1  0.22214785  0.20500450  0.56136170  1
  Al  Al7  1  0.78168785  0.08730583  0.31066751  1
  Al  Al8  1  0.88907098  0.19748230  0.05776791  1
  Al  Al9  1  0.46027907  0.08622877  0.81021682  1
  Al  Al10  1  0.55399444  0.20795113  0.56258767  1
  Al  Al11  1  0.11009828  0.42800498  0.31162541  1
  Al  Al12  1  0.22633898  0.53824913  0.06362817  1
  Al  Al13  1  0.77265421  0.43582781  0.80893380  1
  Al  Al14  1  0.88723348  0.54310927  0.56458509  1
  Al  Al15  1  0.44570045  0.42673545  0.31222697  1
  Al  Al16  1  0.55039423  0.54297590  0.06150516  1
  Al  Al17  1  0.10941871  0.42945036  0.81109507  1
  Al  Al18  1  0.21679258  0.54588554  0.56087832  1
  Al  Al19  1  0.77890941  0.42683225  0.31084744  1
  Al  Al20  1  0.88734744  0.54079997  0.05901293  1
  Al  Al21  1  0.44678996  0.42964217  0.80761865  1
  Al  Al22  1  0.55293907  0.54379368  0.55922946  1
  Al  Al23  1  0.10808590  0.76629650  0.30701596  1
  Al  Al24  1  0.88263405  0.87670106  0.63792801  1
  Al  Al25  1  0.43906895  0.76492493  0.30696273  1
  Al  Al26  1  0.55708626  0.86979567  0.05915380  1
  Al  Al27  1  0.11749617  0.75192115  0.82802986  1
  Al  Al28  1  0.21898982  0.87264632  0.56284485  1
  Al  Al29  1  0.78084618  0.76243641  0.31413461  1
  Al  Al30  1  0.88860692  0.86907932  0.05207509  1
  Al  Al31  1  0.44707430  0.76341294  0.81630048  1
  Al  Al32  1  0.55656369  0.87086254  0.56436564  1
  B  B33  1  0.74989259  0.15223675  0.79857795  1
  B  B34  1  0.22268325  0.87154420  0.05616241  1
  B  B35  1  0.77941996  0.75256398  0.81480933  1
  N  N36  1  0.22174761  0.20382653  0.36739020  1
  N  N37  1  0.12141505  0.07002167  0.11024696  1
  N  N38  1  0.87042825  0.20166458  0.86221874  1
  N  N39  1  0.76953484  0.11171904  0.64804038  1
  N  N40  1  0.55786541  0.20483503  0.37220564  1
  N  N41  1  0.44835153  0.09373385  0.11542541  1
  N  N42  1  0.22553672  0.20215000  0.86824637  1
  N  N43  1  0.11093224  0.09364218  0.62392628  1
  N  N44  1  0.88882448  0.20432931  0.37073377  1
  N  N45  1  0.78045539  0.08862282  0.11836224  1
  N  N46  1  0.58116560  0.20133824  0.86203418  1
  N  N47  1  0.44612907  0.09424913  0.62036111  1
  N  N48  1  0.22048220  0.54220463  0.36777964  1
  N  N49  1  0.11127292  0.42549665  0.11886077  1
  N  N50  1  0.87819916  0.55502422  0.86572609  1
  N  N51  1  0.77602661  0.42968300  0.61882924  1
  N  N52  1  0.55412963  0.54260741  0.36688176  1
  N  N53  1  0.44846883  0.42361456  0.12083461  1
  N  N54  1  0.23102582  0.52721147  0.87385183  1
  N  N55  1  0.11147066  0.42814781  0.61974725  1
  N  N56  1  0.88753106  0.53991884  0.37291419  1
  N  N57  1  0.77983430  0.42381101  0.11703102  1
  N  N58  1  0.55317936  0.54191282  0.87078598  1
  N  N59  1  0.44208167  0.43131926  0.61728776  1
  N  N60  1  0.22103630  0.87221142  0.37319487  1
  N  N61  1  0.12393234  0.77200166  0.10755147  1
  N  N62  1  0.88479004  0.83912936  0.85750598  1
  N  N63  1  0.77209489  0.75715011  0.64427630  1
  N  N64  1  0.55494356  0.87138714  0.37102243  1
  N  N65  1  0.42017014  0.77485056  0.11181589  1
  N  N66  1  0.22275813  0.87265752  0.89191586  1
  N  N67  1  0.11487130  0.76183006  0.63511627  1
  N  N68  1  0.89000619  0.87206979  0.36957058  1
  N  N69  1  0.77813711  0.75843066  0.12277329  1
  N  N70  1  0.58233283  0.85842380  0.86700646  1
  N  N71  1  0.44081418  0.76408183  0.62437518  1
