# generated using pymatgen
data_Al11BN12
_symmetry_space_group_name_H-M   'P 1'
_cell_length_a   9.26836536
_cell_length_b   9.27992698
_cell_length_c   10.09057088
_cell_angle_alpha   89.99831178
_cell_angle_beta   89.68942642
_cell_angle_gamma   60.12273396
_symmetry_Int_Tables_number   1
_chemical_formula_structural   Al11BN12
_chemical_formula_sum   'Al33 B3 N36'
_cell_volume   752.52584305
_cell_formula_units_Z   3
loop_
 _symmetry_equiv_pos_site_id
 _symmetry_equiv_pos_as_xyz
  1  'x, y, z'
loop_
 _atom_site_type_symbol
 _atom_site_label
 _atom_site_symmetry_multiplicity
 _atom_site_fract_x
 _atom_site_fract_y
 _atom_site_fract_z
 _atom_site_occupancy
  Al  Al0  1  0.11426469  0.08882635  0.31816575  1
  Al  Al1  1  0.22317169  0.20124835  0.07079277  1
  Al  Al2  1  0.89332822  0.20540009  0.57439260  1
  Al  Al3  1  0.44394352  0.09455240  0.32057697  1
  Al  Al4  1  0.54944389  0.20923876  0.07109990  1
  Al  Al5  1  0.11041974  0.08841079  0.82818794  1
  Al  Al6  1  0.22204247  0.20428779  0.57209547  1
  Al  Al7  1  0.78306381  0.08510066  0.39012542  1
  Al  Al8  1  0.89675555  0.20134751  0.06854831  1
  Al  Al9  1  0.45573739  0.09124878  0.82099056  1
  Al  Al10  1  0.54888045  0.21003806  0.57239133  1
  Al  Al11  1  0.11074777  0.42755035  0.32240692  1
  Al  Al12  1  0.22562319  0.54056682  0.07179483  1
  Al  Al13  1  0.77900887  0.42164856  0.82136081  1
  Al  Al14  1  0.89142513  0.53393583  0.57738964  1
  Al  Al15  1  0.44442163  0.42816208  0.32290531  1
  Al  Al16  1  0.55249708  0.54134789  0.07135852  1
  Al  Al17  1  0.11153553  0.42621588  0.82139543  1
  Al  Al18  1  0.21638756  0.54620368  0.57626446  1
  Al  Al19  1  0.77922591  0.42720897  0.31967529  1
  Al  Al20  1  0.89315845  0.53422293  0.06114101  1
  Al  Al21  1  0.45133759  0.42385668  0.82147296  1
  Al  Al22  1  0.55464746  0.54068725  0.57203335  1
  Al  Al23  1  0.12088139  0.75978689  0.31622582  1
  Al  Al24  1  0.87079036  0.88147976  0.66032374  1
  Al  Al25  1  0.43963006  0.76317445  0.31904026  1
  Al  Al26  1  0.54444766  0.87675898  0.07276155  1
  Al  Al27  1  0.11156358  0.76167515  0.84145984  1
  Al  Al28  1  0.21738642  0.87160390  0.57802139  1
  Al  Al29  1  0.78321469  0.76300728  0.39167890  1
  Al  Al30  1  0.89154365  0.87559960  0.13088089  1
  Al  Al31  1  0.45217248  0.75952520  0.82832279  1
  Al  Al32  1  0.54804810  0.87488146  0.57311799  1
  B  B33  1  0.77375593  0.09161127  0.90885746  1
  B  B34  1  0.22538686  0.87010199  0.06871617  1
  B  B35  1  0.76235527  0.80011605  0.91299273  1
  N  N36  1  0.22171364  0.20391322  0.38124026  1
  N  N37  1  0.12461376  0.06876460  0.12547168  1
  N  N38  1  0.88006634  0.18970545  0.87756838  1
  N  N39  1  0.78033895  0.08744995  0.58168966  1
  N  N40  1  0.54974872  0.20834763  0.38013286  1
  N  N41  1  0.44336698  0.09559177  0.13253008  1
  N  N42  1  0.22801356  0.20010100  0.88226757  1
  N  N43  1  0.11260507  0.09279882  0.63817067  1
  N  N44  1  0.89400062  0.20621919  0.37822305  1
  N  N45  1  0.77912471  0.08914193  0.07009229  1
  N  N46  1  0.57393628  0.19816101  0.88003519  1
  N  N47  1  0.44375991  0.09492550  0.63345577  1
  N  N48  1  0.21947335  0.54312030  0.38397978  1
  N  N49  1  0.11151303  0.42842305  0.13257881  1
  N  N50  1  0.89098655  0.53370895  0.87603494  1
  N  N51  1  0.77590723  0.42623008  0.63260372  1
  N  N52  1  0.55505652  0.54108507  0.38105652  1
  N  N53  1  0.44558643  0.42738385  0.13432131  1
  N  N54  1  0.22653066  0.53347760  0.88498172  1
  N  N55  1  0.11364581  0.42572296  0.63242444  1
  N  N56  1  0.89197734  0.53244757  0.38270080  1
  N  N57  1  0.77915050  0.42753723  0.13007702  1
  N  N58  1  0.55763857  0.53768532  0.88389343  1
  N  N59  1  0.44195769  0.43060022  0.63265115  1
  N  N60  1  0.22076552  0.87184340  0.38898242  1
  N  N61  1  0.13160132  0.77068003  0.12155643  1
  N  N62  1  0.85751298  0.89002532  0.85485894  1
  N  N63  1  0.77935667  0.76521228  0.58334084  1
  N  N64  1  0.54960093  0.87373559  0.37828236  1
  N  N65  1  0.42157643  0.77237261  0.12612571  1
  N  N66  1  0.22814733  0.87039969  0.90587121  1
  N  N67  1  0.10827675  0.76383725  0.64970407  1
  N  N68  1  0.88615622  0.87216773  0.31856959  1
  N  N69  1  0.78097279  0.76820735  0.06635168  1
  N  N70  1  0.57466875  0.86804417  0.88178793  1
  N  N71  1  0.44141406  0.76230727  0.63856761  1
