# generated using pymatgen
data_Al11BN12
_symmetry_space_group_name_H-M   'P 1'
_cell_length_a   9.25980858
_cell_length_b   9.25939435
_cell_length_c   9.89632150
_cell_angle_alpha   90.00327238
_cell_angle_beta   90.11580054
_cell_angle_gamma   59.98662493
_symmetry_Int_Tables_number   1
_chemical_formula_structural   Al11BN12
_chemical_formula_sum   'Al33 B3 N36'
_cell_volume   734.73261422
_cell_formula_units_Z   3
loop_
 _symmetry_equiv_pos_site_id
 _symmetry_equiv_pos_as_xyz
  1  'x, y, z'
loop_
 _atom_site_type_symbol
 _atom_site_label
 _atom_site_symmetry_multiplicity
 _atom_site_fract_x
 _atom_site_fract_y
 _atom_site_fract_z
 _atom_site_occupancy
  Al  Al0  1  0.11099644  0.09216401  0.39192755  1
  Al  Al1  1  0.22363284  0.20063259  0.14902584  1
  Al  Al2  1  0.88905720  0.20059145  0.65311568  1
  Al  Al3  1  0.44635364  0.09336256  0.39987014  1
  Al  Al4  1  0.55744566  0.20441671  0.14457072  1
  Al  Al5  1  0.11085375  0.08674060  0.90406204  1
  Al  Al6  1  0.22118224  0.20462418  0.64912362  1
  Al  Al7  1  0.77895389  0.09216062  0.39737174  1
  Al  Al8  1  0.89090719  0.19917873  0.14245651  1
  Al  Al9  1  0.45497360  0.08898805  0.89942373  1
  Al  Al10  1  0.56248426  0.20170650  0.65345831  1
  Al  Al11  1  0.10995380  0.42863077  0.39883795  1
  Al  Al12  1  0.22406658  0.54294408  0.14939440  1
  Al  Al13  1  0.77621579  0.42876606  0.89872826  1
  Al  Al14  1  0.88694901  0.54473083  0.65351645  1
  Al  Al15  1  0.44580309  0.42579760  0.39977803  1
  Al  Al16  1  0.55097913  0.54224969  0.15016417  1
  Al  Al17  1  0.10767808  0.43369127  0.89984809  1
  Al  Al18  1  0.22178294  0.54055507  0.64866557  1
  Al  Al19  1  0.77979915  0.42640630  0.39891143  1
  Al  Al20  1  0.88728846  0.54164319  0.14346196  1
  Al  Al21  1  0.45036805  0.42406940  0.89941174  1
  Al  Al22  1  0.55571000  0.54004345  0.64856142  1
  Al  Al23  1  0.10920653  0.76406732  0.39138600  1
  Al  Al24  1  0.88604033  0.87381576  0.65747478  1
  Al  Al25  1  0.44298959  0.76292717  0.39247983  1
  Al  Al26  1  0.55173322  0.87312704  0.14431014  1
  Al  Al27  1  0.10867923  0.76667820  0.90292349  1
  Al  Al28  1  0.22252952  0.87205546  0.64691455  1
  Al  Al29  1  0.77855579  0.76245132  0.39709474  1
  Al  Al30  1  0.89011792  0.87465209  0.13537289  1
  Al  Al31  1  0.44444856  0.76170508  0.90384518  1
  Al  Al32  1  0.56102161  0.86839451  0.65311784  1
  B  B33  1  0.77257590  0.09259291  0.90584476  1
  B  B34  1  0.22216633  0.87194585  0.15234128  1
  B  B35  1  0.77208766  0.76642905  0.90600474  1
  N  N36  1  0.22310341  0.20536578  0.34066607  1
  N  N37  1  0.12406640  0.06862386  0.09734668  1
  N  N38  1  0.87958081  0.19038434  0.84855468  1
  N  N39  1  0.77998431  0.09135539  0.58755331  1
  N  N40  1  0.55723762  0.20419126  0.33703323  1
  N  N41  1  0.44405180  0.09521524  0.08862346  1
  N  N42  1  0.22087642  0.20458746  0.84258418  1
  N  N43  1  0.11021311  0.09353191  0.58591961  1
  N  N44  1  0.88712272  0.20475340  0.33476093  1
  N  N45  1  0.77552525  0.09554664  0.06791044  1
  N  N46  1  0.58163860  0.19241238  0.84727010  1
  N  N47  1  0.44663868  0.09309651  0.59459027  1
  N  N48  1  0.22290741  0.53860879  0.34065662  1
  N  N49  1  0.11206760  0.42799398  0.09067905  1
  N  N50  1  0.87684214  0.56537872  0.84742737  1
  N  N51  1  0.78121745  0.42582377  0.59391974  1
  N  N52  1  0.55642869  0.53786788  0.34122802  1
  N  N53  1  0.44504113  0.42757208  0.08960308  1
  N  N54  1  0.22337840  0.54059521  0.84130437  1
  N  N55  1  0.10956553  0.42864865  0.59193424  1
  N  N56  1  0.88768392  0.54077177  0.33621472  1
  N  N57  1  0.77693676  0.42766865  0.08918289  1
  N  N58  1  0.55488471  0.54109104  0.84023243  1
  N  N59  1  0.44625653  0.42502373  0.59245292  1
  N  N60  1  0.22244032  0.87171822  0.31890670  1
  N  N61  1  0.12451246  0.77354386  0.09587566  1
  N  N62  1  0.86927760  0.88217788  0.85485805  1
  N  N63  1  0.77914707  0.76285349  0.58760396  1
  N  N64  1  0.55727149  0.87213865  0.33583752  1
  N  N65  1  0.41970508  0.77310992  0.09715332  1
  N  N66  1  0.22481958  0.87066596  0.83601498  1
  N  N67  1  0.10817669  0.76384598  0.58697889  1
  N  N68  1  0.88654609  0.87333510  0.32877734  1
  N  N69  1  0.77542673  0.76232048  0.06904072  1
  N  N70  1  0.57989796  0.85810995  0.84903822  1
  N  N71  1  0.44459888  0.76290608  0.58639393  1
