# generated using pymatgen
data_Al11BN12
_symmetry_space_group_name_H-M   'P 1'
_cell_length_a   9.30046872
_cell_length_b   9.27517220
_cell_length_c   10.06111808
_cell_angle_alpha   89.99551726
_cell_angle_beta   90.03742569
_cell_angle_gamma   60.05827229
_symmetry_Int_Tables_number   1
_chemical_formula_structural   Al11BN12
_chemical_formula_sum   'Al33 B3 N36'
_cell_volume   752.07000843
_cell_formula_units_Z   3
loop_
 _symmetry_equiv_pos_site_id
 _symmetry_equiv_pos_as_xyz
  1  'x, y, z'
loop_
 _atom_site_type_symbol
 _atom_site_label
 _atom_site_symmetry_multiplicity
 _atom_site_fract_x
 _atom_site_fract_y
 _atom_site_fract_z
 _atom_site_occupancy
  Al  Al0  1  0.10579239  0.10186348  0.38921647  1
  Al  Al1  1  0.22660738  0.19317701  0.13568333  1
  Al  Al2  1  0.88692361  0.20262480  0.64352067  1
  Al  Al3  1  0.44675607  0.09155609  0.38779562  1
  Al  Al4  1  0.56094933  0.20003206  0.13327441  1
  Al  Al5  1  0.10815149  0.09077530  0.89411530  1
  Al  Al6  1  0.22417064  0.20088925  0.64023503  1
  Al  Al7  1  0.78052938  0.08987791  0.38482021  1
  Al  Al8  1  0.89263142  0.19787729  0.13279636  1
  Al  Al9  1  0.45711360  0.08889661  0.88902587  1
  Al  Al10  1  0.56473473  0.19672296  0.63757998  1
  Al  Al11  1  0.11246506  0.43212578  0.32158160  1
  Al  Al12  1  0.22656287  0.54089349  0.06743344  1
  Al  Al13  1  0.78368186  0.42355612  0.88810375  1
  Al  Al14  1  0.88081322  0.54748623  0.64160194  1
  Al  Al15  1  0.44276239  0.43281879  0.32054202  1
  Al  Al16  1  0.54640489  0.54524932  0.06834329  1
  Al  Al17  1  0.10933818  0.43281055  0.83444287  1
  Al  Al18  1  0.21784818  0.54236113  0.57152769  1
  Al  Al19  1  0.78264489  0.42614874  0.38741589  1
  Al  Al20  1  0.88296908  0.54395953  0.12885149  1
  Al  Al21  1  0.44932154  0.42699048  0.82068734  1
  Al  Al22  1  0.54808973  0.54460453  0.57176238  1
  Al  Al23  1  0.11585368  0.76553728  0.30855187  1
  Al  Al24  1  0.87938561  0.87713315  0.64843140  1
  Al  Al25  1  0.43422177  0.76424219  0.31352453  1
  Al  Al26  1  0.55483377  0.87476761  0.12770180  1
  Al  Al27  1  0.11017135  0.76174602  0.83312224  1
  Al  Al28  1  0.22189520  0.86778243  0.57343497  1
  Al  Al29  1  0.77778459  0.76390147  0.38319511  1
  Al  Al30  1  0.88800132  0.87589488  0.11412109  1
  Al  Al31  1  0.44805578  0.75785953  0.82829226  1
  Al  Al32  1  0.56386824  0.87232499  0.64221852  1
  B  B33  1  0.77074175  0.09181413  0.89314164  1
  B  B34  1  0.22705820  0.86454365  0.06010801  1
  B  B35  1  0.77035135  0.76925542  0.89394129  1
  N  N36  1  0.22592084  0.20000597  0.32834752  1
  N  N37  1  0.12082855  0.07255975  0.08369029  1
  N  N38  1  0.88081777  0.18830558  0.83444157  1
  N  N39  1  0.78163903  0.09040193  0.57324252  1
  N  N40  1  0.56002792  0.19886133  0.32663427  1
  N  N41  1  0.44503171  0.09612032  0.07466049  1
  N  N42  1  0.22777659  0.19486353  0.83298891  1
  N  N43  1  0.10546188  0.10139567  0.58170599  1
  N  N44  1  0.88687867  0.20522924  0.32321179  1
  N  N45  1  0.77484371  0.09788102  0.05344905  1
  N  N46  1  0.58467069  0.18825217  0.83311788  1
  N  N47  1  0.44619191  0.09256416  0.57907873  1
  N  N48  1  0.21926912  0.54521317  0.37976815  1
  N  N49  1  0.11426324  0.42886013  0.11744507  1
  N  N50  1  0.87200204  0.56792758  0.83592251  1
  N  N51  1  0.78205036  0.42542037  0.58273149  1
  N  N52  1  0.54901823  0.54585560  0.37983056  1
  N  N53  1  0.44340913  0.43254048  0.13022467  1
  N  N54  1  0.22829533  0.53498726  0.88159600  1
  N  N55  1  0.11033499  0.43097894  0.62769613  1
  N  N56  1  0.88112067  0.54459945  0.32257608  1
  N  N57  1  0.78371401  0.42254862  0.07826325  1
  N  N58  1  0.55397690  0.53836688  0.87953093  1
  N  N59  1  0.44181843  0.42983155  0.62963654  1
  N  N60  1  0.22186461  0.86889215  0.38416443  1
  N  N61  1  0.12808665  0.77256374  0.11504737  1
  N  N62  1  0.86453417  0.88395745  0.84506085  1
  N  N63  1  0.77864129  0.76395264  0.57239843  1
  N  N64  1  0.55847126  0.87289931  0.32026895  1
  N  N65  1  0.41666791  0.77403260  0.11949000  1
  N  N66  1  0.23154134  0.85891192  0.89850020  1
  N  N67  1  0.11191688  0.76194632  0.64142003  1
  N  N68  1  0.88322439  0.87454134  0.31018003  1
  N  N69  1  0.77511798  0.76212050  0.05407490  1
  N  N70  1  0.58399155  0.86116435  0.83682240  1
  N  N71  1  0.44001338  0.76343340  0.63749911  1
