# generated using pymatgen
data_Al11BN12
_symmetry_space_group_name_H-M   'P 1'
_cell_length_a   9.30290915
_cell_length_b   9.27745835
_cell_length_c   10.05010266
_cell_angle_alpha   90.00036118
_cell_angle_beta   90.04725507
_cell_angle_gamma   60.05132988
_symmetry_Int_Tables_number   1
_chemical_formula_structural   Al11BN12
_chemical_formula_sum   'Al33 B3 N36'
_cell_volume   751.57638718
_cell_formula_units_Z   3
loop_
 _symmetry_equiv_pos_site_id
 _symmetry_equiv_pos_as_xyz
  1  'x, y, z'
loop_
 _atom_site_type_symbol
 _atom_site_label
 _atom_site_symmetry_multiplicity
 _atom_site_fract_x
 _atom_site_fract_y
 _atom_site_fract_z
 _atom_site_occupancy
  Al  Al0  1  0.10580816  0.10179589  0.38925747  1
  Al  Al1  1  0.22615705  0.19391447  0.13545618  1
  Al  Al2  1  0.88695871  0.20264523  0.64337040  1
  Al  Al3  1  0.44688014  0.09148409  0.38783148  1
  Al  Al4  1  0.56091526  0.19994729  0.13315047  1
  Al  Al5  1  0.10804599  0.09062406  0.89392028  1
  Al  Al6  1  0.22342627  0.20235925  0.64022094  1
  Al  Al7  1  0.78055005  0.08988975  0.38480001  1
  Al  Al8  1  0.89265076  0.19789640  0.13268889  1
  Al  Al9  1  0.45722018  0.08883875  0.88887304  1
  Al  Al10  1  0.56467949  0.19668288  0.63739948  1
  Al  Al11  1  0.11182930  0.43161803  0.32875113  1
  Al  Al12  1  0.22687434  0.54131396  0.06770183  1
  Al  Al13  1  0.78338711  0.42343202  0.88793981  1
  Al  Al14  1  0.88241950  0.54666456  0.64171722  1
  Al  Al15  1  0.44304121  0.43276795  0.32041357  1
  Al  Al16  1  0.54647354  0.54523380  0.06836519  1
  Al  Al17  1  0.10840871  0.43183192  0.84479361  1
  Al  Al18  1  0.21811009  0.54257954  0.57174403  1
  Al  Al19  1  0.78261422  0.42611912  0.38750495  1
  Al  Al20  1  0.88346867  0.54354460  0.12885945  1
  Al  Al21  1  0.44935211  0.42695609  0.82047363  1
  Al  Al22  1  0.54829699  0.54459870  0.57186441  1
  Al  Al23  1  0.11580593  0.76585055  0.30839715  1
  Al  Al24  1  0.87934336  0.87702003  0.64826354  1
  Al  Al25  1  0.43424201  0.76425197  0.31351782  1
  Al  Al26  1  0.55474938  0.87477238  0.12753681  1
  Al  Al27  1  0.11016183  0.76175290  0.83287858  1
  Al  Al28  1  0.22191842  0.86793855  0.57352382  1
  Al  Al29  1  0.77774234  0.76403794  0.38325042  1
  Al  Al30  1  0.88793144  0.87589401  0.11401726  1
  Al  Al31  1  0.44807187  0.75783819  0.82826779  1
  Al  Al32  1  0.56390981  0.87220604  0.64205273  1
  B  B33  1  0.77068696  0.09188934  0.89315010  1
  B  B34  1  0.22700380  0.86475430  0.06002878  1
  B  B35  1  0.77026836  0.76962900  0.89404230  1
  N  N36  1  0.22583458  0.20026234  0.32788362  1
  N  N37  1  0.12090819  0.07249787  0.08369353  1
  N  N38  1  0.88071055  0.18821271  0.83447273  1
  N  N39  1  0.78164128  0.09037053  0.57326855  1
  N  N40  1  0.56002419  0.19885644  0.32667016  1
  N  N41  1  0.44491383  0.09613202  0.07465854  1
  N  N42  1  0.22740231  0.19537304  0.83290527  1
  N  N43  1  0.10561884  0.10134301  0.58191166  1
  N  N44  1  0.88692337  0.20524853  0.32326084  1
  N  N45  1  0.77482787  0.09787445  0.05349466  1
  N  N46  1  0.58463979  0.18825774  0.83312186  1
  N  N47  1  0.44605323  0.09254274  0.57921889  1
  N  N48  1  0.21980529  0.54579216  0.37905018  1
  N  N49  1  0.11347207  0.42797284  0.11091228  1
  N  N50  1  0.87243392  0.56741500  0.83586290  1
  N  N51  1  0.78203846  0.42552688  0.58292645  1
  N  N52  1  0.54921031  0.54587511  0.37966086  1
  N  N53  1  0.44357719  0.43238442  0.13007596  1
  N  N54  1  0.22869899  0.53540981  0.88118248  1
  N  N55  1  0.10984013  0.43040065  0.62083330  1
  N  N56  1  0.88148280  0.54447064  0.32221712  1
  N  N57  1  0.78351404  0.42262188  0.07836405  1
  N  N58  1  0.55393493  0.53837715  0.87937668  1
  N  N59  1  0.44205825  0.42976022  0.62941403  1
  N  N60  1  0.22191999  0.86905219  0.38404082  1
  N  N61  1  0.12795497  0.77278626  0.11492426  1
  N  N62  1  0.86450592  0.88380828  0.84510437  1
  N  N63  1  0.77867970  0.76373088  0.57250505  1
  N  N64  1  0.55848428  0.87286256  0.32028008  1
  N  N65  1  0.41664056  0.77402218  0.11936777  1
  N  N66  1  0.23152437  0.85898518  0.89829008  1
  N  N67  1  0.11182125  0.76216926  0.64123201  1
  N  N68  1  0.88323562  0.87454769  0.31021598  1
  N  N69  1  0.77510812  0.76206502  0.05416689  1
  N  N70  1  0.58404137  0.86108519  0.83686636  1
  N  N71  1  0.44003380  0.76342028  0.63740399  1
