# generated using pymatgen
data_Al11BN12
_symmetry_space_group_name_H-M   'P 1'
_cell_length_a   9.30976666
_cell_length_b   9.28988965
_cell_length_c   10.06244890
_cell_angle_alpha   89.93444905
_cell_angle_beta   89.99929261
_cell_angle_gamma   60.00123850
_symmetry_Int_Tables_number   1
_chemical_formula_structural   Al11BN12
_chemical_formula_sum   'Al33 B3 N36'
_cell_volume   753.68299329
_cell_formula_units_Z   3
loop_
 _symmetry_equiv_pos_site_id
 _symmetry_equiv_pos_as_xyz
  1  'x, y, z'
loop_
 _atom_site_type_symbol
 _atom_site_label
 _atom_site_symmetry_multiplicity
 _atom_site_fract_x
 _atom_site_fract_y
 _atom_site_fract_z
 _atom_site_occupancy
  Al  Al0  1  0.10372170  0.10363542  0.39017714  1
  Al  Al1  1  0.22773004  0.19202665  0.13621172  1
  Al  Al2  1  0.88766945  0.19903321  0.64694250  1
  Al  Al3  1  0.44571971  0.09181980  0.38832342  1
  Al  Al4  1  0.56033928  0.20046661  0.13395770  1
  Al  Al5  1  0.11021473  0.08945819  0.89476462  1
  Al  Al6  1  0.22380099  0.20027595  0.64038829  1
  Al  Al7  1  0.77992803  0.08971430  0.38550043  1
  Al  Al8  1  0.89507734  0.19206548  0.12726029  1
  Al  Al9  1  0.45774539  0.08874624  0.88903405  1
  Al  Al10  1  0.56415205  0.19737924  0.63767282  1
  Al  Al11  1  0.11257392  0.43299247  0.31690194  1
  Al  Al12  1  0.22780290  0.54077438  0.06724161  1
  Al  Al13  1  0.77820097  0.42673230  0.85372760  1
  Al  Al14  1  0.88041326  0.54991309  0.64402518  1
  Al  Al15  1  0.44103934  0.43254845  0.32237468  1
  Al  Al16  1  0.54683817  0.54489230  0.06785087  1
  Al  Al17  1  0.11198919  0.43376463  0.82896542  1
  Al  Al18  1  0.21787455  0.54261222  0.57193167  1
  Al  Al19  1  0.77176246  0.43080512  0.32277419  1
  Al  Al20  1  0.88643279  0.54647952  0.11988698  1
  Al  Al21  1  0.44964619  0.42717074  0.82018057  1
  Al  Al22  1  0.55631092  0.54011570  0.57306522  1
  Al  Al23  1  0.11525915  0.76566394  0.30961273  1
  Al  Al24  1  0.87916771  0.87715936  0.64903444  1
  Al  Al25  1  0.43277230  0.76552542  0.31470229  1
  Al  Al26  1  0.55464875  0.87482319  0.12856791  1
  Al  Al27  1  0.11037858  0.76192819  0.83372379  1
  Al  Al28  1  0.22214535  0.86724128  0.57384036  1
  Al  Al29  1  0.77751332  0.76345169  0.38372963  1
  Al  Al30  1  0.88776491  0.87613695  0.11622484  1
  Al  Al31  1  0.44825413  0.75787964  0.82788589  1
  Al  Al32  1  0.56320894  0.87245349  0.64229808  1
  B  B33  1  0.77291375  0.09026737  0.89381913  1
  B  B34  1  0.22849625  0.86332139  0.06067420  1
  B  B35  1  0.77230489  0.77003711  0.89469071  1
  N  N36  1  0.22482207  0.20052282  0.32892286  1
  N  N37  1  0.12296447  0.07157763  0.08357275  1
  N  N38  1  0.88327124  0.18099410  0.83965363  1
  N  N39  1  0.78142201  0.09032592  0.57361993  1
  N  N40  1  0.55927350  0.19887948  0.32747816  1
  N  N41  1  0.44540625  0.09592104  0.07497877  1
  N  N42  1  0.22793690  0.19477092  0.83301488  1
  N  N43  1  0.10423509  0.10188293  0.58203101  1
  N  N44  1  0.88826420  0.20004895  0.32017429  1
  N  N45  1  0.77380424  0.09659109  0.05401850  1
  N  N46  1  0.58493317  0.18854899  0.83307293  1
  N  N47  1  0.44568610  0.09293397  0.57929108  1
  N  N48  1  0.21810159  0.54520134  0.38071578  1
  N  N49  1  0.11733532  0.42842806  0.12003871  1
  N  N50  1  0.87562986  0.57160497  0.84234546  1
  N  N51  1  0.77424640  0.42856301  0.63226443  1
  N  N52  1  0.55272146  0.54335706  0.38064121  1
  N  N53  1  0.44333257  0.43305165  0.13193549  1
  N  N54  1  0.22952924  0.53484850  0.88185925  1
  N  N55  1  0.11062502  0.43194032  0.63194955  1
  N  N56  1  0.88253499  0.54744127  0.32031159  1
  N  N57  1  0.77768993  0.42596693  0.10102096  1
  N  N58  1  0.55303737  0.53886288  0.88269640  1
  N  N59  1  0.44170287  0.43051078  0.62860528  1
  N  N60  1  0.22088851  0.86933972  0.38488170  1
  N  N61  1  0.12813920  0.77246460  0.11584849  1
  N  N62  1  0.86472198  0.88394306  0.84541711  1
  N  N63  1  0.77841782  0.76411001  0.57283153  1
  N  N64  1  0.55773707  0.87295923  0.32124177  1
  N  N65  1  0.41674938  0.77366579  0.12075914  1
  N  N66  1  0.23282138  0.85766862  0.89912631  1
  N  N67  1  0.11163021  0.76207636  0.64193787  1
  N  N68  1  0.88280160  0.87448344  0.31150550  1
  N  N69  1  0.77397117  0.76565507  0.05454855  1
  N  N70  1  0.58437049  0.86095442  0.83670124  1
  N  N71  1  0.44031288  0.76269265  0.63669600  1
