# generated using pymatgen
data_Al11BN12
_symmetry_space_group_name_H-M   'P 1'
_cell_length_a   9.26154832
_cell_length_b   9.25760676
_cell_length_c   9.91750418
_cell_angle_alpha   89.82486930
_cell_angle_beta   89.88237288
_cell_angle_gamma   60.04053068
_symmetry_Int_Tables_number   1
_chemical_formula_structural   Al11BN12
_chemical_formula_sum   'Al33 B3 N36'
_cell_volume   736.69965736
_cell_formula_units_Z   3
loop_
 _symmetry_equiv_pos_site_id
 _symmetry_equiv_pos_as_xyz
  1  'x, y, z'
loop_
 _atom_site_type_symbol
 _atom_site_label
 _atom_site_symmetry_multiplicity
 _atom_site_fract_x
 _atom_site_fract_y
 _atom_site_fract_z
 _atom_site_occupancy
  Al  Al0  1  0.11067064  0.09303285  0.39464743  1
  Al  Al1  1  0.22347844  0.19906124  0.14780788  1
  Al  Al2  1  0.88730628  0.20169259  0.65181597  1
  Al  Al3  1  0.44566301  0.09340020  0.39810244  1
  Al  Al4  1  0.55751449  0.20372007  0.14382715  1
  Al  Al5  1  0.11056066  0.08689192  0.89858174  1
  Al  Al6  1  0.22109392  0.20599504  0.64843995  1
  Al  Al7  1  0.77941256  0.09204062  0.39470291  1
  Al  Al8  1  0.89168025  0.19787500  0.14088668  1
  Al  Al9  1  0.45491004  0.08917434  0.89837471  1
  Al  Al10  1  0.56171963  0.20230425  0.65085896  1
  Al  Al11  1  0.10998750  0.42938412  0.39630351  1
  Al  Al12  1  0.22442660  0.54256806  0.14511585  1
  Al  Al13  1  0.77680588  0.42852527  0.89757976  1
  Al  Al14  1  0.88687313  0.54507135  0.65088735  1
  Al  Al15  1  0.44502266  0.42704381  0.39730012  1
  Al  Al16  1  0.55040250  0.54259861  0.14859779  1
  Al  Al17  1  0.10738214  0.43291599  0.89869283  1
  Al  Al18  1  0.22209563  0.53928910  0.64777191  1
  Al  Al19  1  0.77959572  0.42674011  0.39694930  1
  Al  Al20  1  0.88707650  0.54140245  0.14221057  1
  Al  Al21  1  0.45186762  0.42250509  0.89836528  1
  Al  Al22  1  0.55646034  0.53903289  0.64767009  1
  Al  Al23  1  0.10916980  0.76486984  0.38888892  1
  Al  Al24  1  0.88374972  0.87471384  0.65569209  1
  Al  Al25  1  0.44337509  0.76302671  0.39494036  1
  Al  Al26  1  0.55057351  0.87295246  0.14283080  1
  Al  Al27  1  0.10891542  0.76562209  0.89351593  1
  Al  Al28  1  0.22251670  0.87244812  0.64270067  1
  Al  Al29  1  0.77854853  0.76321353  0.39415232  1
  Al  Al30  1  0.89063915  0.87437542  0.13002833  1
  Al  Al31  1  0.44565360  0.76104621  0.89855906  1
  Al  Al32  1  0.56151155  0.86906291  0.65199825  1
  B  B33  1  0.77158518  0.09385912  0.90380719  1
  B  B34  1  0.22246361  0.87117334  0.13512711  1
  B  B35  1  0.77164277  0.76724713  0.90402368  1
  N  N36  1  0.22243345  0.20581232  0.33898571  1
  N  N37  1  0.12500193  0.06610322  0.09198185  1
  N  N38  1  0.87858963  0.19042991  0.84657857  1
  N  N39  1  0.77940664  0.09188371  0.58497592  1
  N  N40  1  0.55711756  0.20453147  0.33564537  1
  N  N41  1  0.44387041  0.09499518  0.08729161  1
  N  N42  1  0.22157638  0.20482750  0.84117452  1
  N  N43  1  0.10865046  0.09655435  0.58789546  1
  N  N44  1  0.88814102  0.20496024  0.33289588  1
  N  N45  1  0.77488203  0.09609827  0.06550992  1
  N  N46  1  0.58170399  0.19219269  0.84490918  1
  N  N47  1  0.44610315  0.09346403  0.59271844  1
  N  N48  1  0.22260437  0.53956783  0.33651157  1
  N  N49  1  0.11176016  0.42693372  0.08894773  1
  N  N50  1  0.87731956  0.56502022  0.84489489  1
  N  N51  1  0.78101249  0.42613330  0.59167949  1
  N  N52  1  0.55643680  0.53901775  0.33923424  1
  N  N53  1  0.44619439  0.42651667  0.08794535  1
  N  N54  1  0.22561463  0.53717557  0.83996966  1
  N  N55  1  0.10962545  0.42896428  0.58932318  1
  N  N56  1  0.88768915  0.54127291  0.33437254  1
  N  N57  1  0.77721565  0.42711208  0.08771175  1
  N  N58  1  0.55623406  0.53948206  0.83875678  1
  N  N59  1  0.44592521  0.42568476  0.58994906  1
  N  N60  1  0.22319335  0.87283530  0.32969726  1
  N  N61  1  0.12584260  0.77366634  0.08854320  1
  N  N62  1  0.86775705  0.88215640  0.85280592  1
  N  N63  1  0.77854813  0.76341153  0.58467686  1
  N  N64  1  0.55709023  0.87198778  0.33392309  1
  N  N65  1  0.41796366  0.77359855  0.09185135  1
  N  N66  1  0.22619447  0.87078430  0.83170717  1
  N  N67  1  0.10651816  0.76318281  0.58999866  1
  N  N68  1  0.88693482  0.87368187  0.32407676  1
  N  N69  1  0.77471952  0.76187872  0.06678600  1
  N  N70  1  0.58041939  0.85870301  0.84723052  1
  N  N71  1  0.44708407  0.76189790  0.58806309  1
