# generated using pymatgen
data_Al11BN12
_symmetry_space_group_name_H-M   'P 1'
_cell_length_a   9.26839079
_cell_length_b   9.27962733
_cell_length_c   10.09061454
_cell_angle_alpha   89.99934559
_cell_angle_beta   89.69013303
_cell_angle_gamma   60.12090598
_symmetry_Int_Tables_number   1
_chemical_formula_structural   Al11BN12
_chemical_formula_sum   'Al33 B3 N36'
_cell_volume   752.49308896
_cell_formula_units_Z   3
loop_
 _symmetry_equiv_pos_site_id
 _symmetry_equiv_pos_as_xyz
  1  'x, y, z'
loop_
 _atom_site_type_symbol
 _atom_site_label
 _atom_site_symmetry_multiplicity
 _atom_site_fract_x
 _atom_site_fract_y
 _atom_site_fract_z
 _atom_site_occupancy
  Al  Al0  1  0.11426091  0.08882909  0.31802919  1
  Al  Al1  1  0.22316899  0.20124188  0.07065554  1
  Al  Al2  1  0.89332393  0.20540449  0.57426381  1
  Al  Al3  1  0.44394055  0.09455020  0.32043168  1
  Al  Al4  1  0.54944543  0.20923068  0.07095431  1
  Al  Al5  1  0.11041358  0.08841500  0.82804116  1
  Al  Al6  1  0.22203855  0.20429025  0.57196300  1
  Al  Al7  1  0.78306342  0.08510091  0.38999293  1
  Al  Al8  1  0.89675921  0.20132877  0.06840187  1
  Al  Al9  1  0.45574499  0.09121466  0.82086566  1
  Al  Al10  1  0.54887777  0.21002907  0.57225541  1
  Al  Al11  1  0.11075157  0.42754887  0.32226673  1
  Al  Al12  1  0.22562592  0.54057137  0.07165409  1
  Al  Al13  1  0.77898354  0.42173687  0.82123214  1
  Al  Al14  1  0.89142058  0.53394469  0.57722078  1
  Al  Al15  1  0.44442114  0.42815944  0.32276512  1
  Al  Al16  1  0.55248731  0.54135494  0.07121808  1
  Al  Al17  1  0.11148531  0.42630619  0.82126286  1
  Al  Al18  1  0.21638713  0.54620543  0.57612261  1
  Al  Al19  1  0.77922195  0.42720510  0.31953139  1
  Al  Al20  1  0.89314889  0.53424279  0.06107793  1
  Al  Al21  1  0.45134662  0.42384069  0.82132986  1
  Al  Al22  1  0.55464497  0.54068666  0.57189235  1
  Al  Al23  1  0.12087454  0.75979267  0.31608191  1
  Al  Al24  1  0.87079539  0.88147377  0.66019285  1
  Al  Al25  1  0.43962679  0.76317889  0.31889392  1
  Al  Al26  1  0.54446769  0.87675322  0.07259285  1
  Al  Al27  1  0.11155311  0.76169235  0.84131499  1
  Al  Al28  1  0.21738628  0.87160038  0.57787304  1
  Al  Al29  1  0.78320302  0.76302132  0.39152761  1
  Al  Al30  1  0.89152873  0.87558629  0.13072946  1
  Al  Al31  1  0.45215013  0.75953181  0.82817709  1
  Al  Al32  1  0.54804375  0.87487858  0.57298053  1
  B  B33  1  0.77374951  0.09155628  0.90871689  1
  B  B34  1  0.22538670  0.87010431  0.06858099  1
  B  B35  1  0.76252675  0.79972488  0.91278325  1
  N  N36  1  0.22171127  0.20391512  0.38110609  1
  N  N37  1  0.12461086  0.06876617  0.12533809  1
  N  N38  1  0.88007393  0.18975826  0.87743028  1
  N  N39  1  0.78033708  0.08745441  0.58155642  1
  N  N40  1  0.54974658  0.20834172  0.37999650  1
  N  N41  1  0.44336132  0.09559437  0.13238371  1
  N  N42  1  0.22794172  0.20016980  0.88212766  1
  N  N43  1  0.11260376  0.09280074  0.63802925  1
  N  N44  1  0.89399699  0.20622202  0.37809252  1
  N  N45  1  0.77912774  0.08913199  0.06993753  1
  N  N46  1  0.57393959  0.19813732  0.87989207  1
  N  N47  1  0.44375063  0.09492776  0.63332804  1
  N  N48  1  0.21947205  0.54311694  0.38384019  1
  N  N49  1  0.11151903  0.42841722  0.13243663  1
  N  N50  1  0.89081443  0.53410354  0.87590143  1
  N  N51  1  0.77591285  0.42625045  0.63247996  1
  N  N52  1  0.55505932  0.54107956  0.38091584  1
  N  N53  1  0.44558918  0.42738165  0.13418231  1
  N  N54  1  0.22653968  0.53348452  0.88484362  1
  N  N55  1  0.11362310  0.42574102  0.63229702  1
  N  N56  1  0.89197430  0.53244768  0.38254640  1
  N  N57  1  0.77915647  0.42752338  0.12992704  1
  N  N58  1  0.55762926  0.53768504  0.88375604  1
  N  N59  1  0.44195882  0.43059810  0.63251120  1
  N  N60  1  0.22076434  0.87184252  0.38883952  1
  N  N61  1  0.13159763  0.77068160  0.12141930  1
  N  N62  1  0.85755508  0.88995968  0.85471820  1
  N  N63  1  0.77935385  0.76521986  0.58319071  1
  N  N64  1  0.54959224  0.87373691  0.37814785  1
  N  N65  1  0.42157401  0.77237925  0.12598570  1
  N  N66  1  0.22813646  0.87041099  0.90573283  1
  N  N67  1  0.10828430  0.76383625  0.64955504  1
  N  N68  1  0.88615298  0.87217195  0.31842545  1
  N  N69  1  0.78096299  0.76818151  0.06626297  1
  N  N70  1  0.57466752  0.86798484  0.88163919  1
  N  N71  1  0.44140699  0.76230500  0.63842106  1
