# generated using pymatgen
data_Al11BN12
_symmetry_space_group_name_H-M   'P 1'
_cell_length_a   9.25980941
_cell_length_b   9.25939414
_cell_length_c   9.89631893
_cell_angle_alpha   90.00327808
_cell_angle_beta   90.11579300
_cell_angle_gamma   59.98662105
_symmetry_Int_Tables_number   1
_chemical_formula_structural   Al11BN12
_chemical_formula_sum   'Al33 B3 N36'
_cell_volume   734.73244469
_cell_formula_units_Z   3
loop_
 _symmetry_equiv_pos_site_id
 _symmetry_equiv_pos_as_xyz
  1  'x, y, z'
loop_
 _atom_site_type_symbol
 _atom_site_label
 _atom_site_symmetry_multiplicity
 _atom_site_fract_x
 _atom_site_fract_y
 _atom_site_fract_z
 _atom_site_occupancy
  Al  Al0  1  0.11104319  0.09213735  0.39890788  1
  Al  Al1  1  0.22367921  0.20060549  0.15600657  1
  Al  Al2  1  0.88910297  0.20056481  0.66009175  1
  Al  Al3  1  0.44639999  0.09333601  0.40684972  1
  Al  Al4  1  0.55749212  0.20439009  0.15154826  1
  Al  Al5  1  0.11089967  0.08671403  0.91103823  1
  Al  Al6  1  0.22122871  0.20459798  0.65610516  1
  Al  Al7  1  0.77900013  0.09213351  0.40434728  1
  Al  Al8  1  0.89095422  0.19915198  0.14943653  1
  Al  Al9  1  0.45502062  0.08896117  0.90640287  1
  Al  Al10  1  0.56253104  0.20167976  0.66043534  1
  Al  Al11  1  0.11000037  0.42860410  0.40581928  1
  Al  Al12  1  0.22411287  0.54291827  0.15637628  1
  Al  Al13  1  0.77626243  0.42873928  0.90570742  1
  Al  Al14  1  0.88699533  0.54470495  0.66049340  1
  Al  Al15  1  0.44584945  0.42577098  0.40675938  1
  Al  Al16  1  0.55102551  0.54222346  0.15714526  1
  Al  Al17  1  0.10772411  0.43366521  0.90683010  1
  Al  Al18  1  0.22182940  0.54052825  0.65564710  1
  Al  Al19  1  0.77984535  0.42638002  0.40589212  1
  Al  Al20  1  0.88733464  0.54161646  0.15044144  1
  Al  Al21  1  0.45041481  0.42404268  0.90639301  1
  Al  Al22  1  0.55575638  0.54001683  0.65554171  1
  Al  Al23  1  0.10925238  0.76404119  0.39836643  1
  Al  Al24  1  0.88608603  0.87378961  0.66445378  1
  Al  Al25  1  0.44303587  0.76290087  0.39945872  1
  Al  Al26  1  0.55177917  0.87310031  0.15128688  1
  Al  Al27  1  0.10872650  0.76665159  0.90990019  1
  Al  Al28  1  0.22257600  0.87202896  0.65389033  1
  Al  Al29  1  0.77860217  0.76242527  0.40406988  1
  Al  Al30  1  0.89016485  0.87462537  0.14234838  1
  Al  Al31  1  0.44449496  0.76167873  0.91082125  1
  Al  Al32  1  0.56106860  0.86836795  0.66009361  1
  B  B33  1  0.77262229  0.09256745  0.91282223  1
  B  B34  1  0.22221235  0.87191946  0.15931864  1
  B  B35  1  0.77213413  0.76640140  0.91298215  1
  N  N36  1  0.22314971  0.20533919  0.34764657  1
  N  N37  1  0.12411267  0.06859726  0.10432411  1
  N  N38  1  0.87962664  0.19035795  0.85553129  1
  N  N39  1  0.78003071  0.09132826  0.59452942  1
  N  N40  1  0.55728326  0.20416519  0.34401136  1
  N  N41  1  0.44409794  0.09518888  0.09560230  1
  N  N42  1  0.22092281  0.20456152  0.84956456  1
  N  N43  1  0.11025968  0.09350609  0.59289886  1
  N  N44  1  0.88716963  0.20472706  0.34174057  1
  N  N45  1  0.77557176  0.09552085  0.07488818  1
  N  N46  1  0.58168501  0.19238608  0.85424800  1
  N  N47  1  0.44668448  0.09307040  0.60156914  1
  N  N48  1  0.22295371  0.53858259  0.34763819  1
  N  N49  1  0.11211415  0.42796758  0.09766064  1
  N  N50  1  0.87688866  0.56535237  0.85440518  1
  N  N51  1  0.78126348  0.42579765  0.60089914  1
  N  N52  1  0.55647499  0.53784131  0.34820873  1
  N  N53  1  0.44508736  0.42754598  0.09658397  1
  N  N54  1  0.22342534  0.54056791  0.84828517  1
  N  N55  1  0.10961244  0.42862185  0.59891482  1
  N  N56  1  0.88773069  0.54074451  0.34319410  1
  N  N57  1  0.77698316  0.42764183  0.09616233  1
  N  N58  1  0.55493130  0.54106395  0.84721208  1
  N  N59  1  0.44630264  0.42499754  0.59943334  1
  N  N60  1  0.22248646  0.87169177  0.32588559  1
  N  N61  1  0.12455940  0.77351710  0.10285297  1
  N  N62  1  0.86932431  0.88215129  0.86183622  1
  N  N63  1  0.77919387  0.76282727  0.59457985  1
  N  N64  1  0.55731717  0.87211246  0.34281476  1
  N  N65  1  0.41975144  0.77308309  0.10413052  1
  N  N66  1  0.22486628  0.87063942  0.84299085  1
  N  N67  1  0.10822272  0.76381908  0.59395863  1
  N  N68  1  0.88659335  0.87330816  0.33575326  1
  N  N69  1  0.77547297  0.76229349  0.07601837  1
  N  N70  1  0.57994468  0.85808337  0.85601490  1
  N  N71  1  0.44464575  0.76287908  0.59337221  1
