# generated using pymatgen
data_Al11BN12
_symmetry_space_group_name_H-M   'P 1'
_cell_length_a   9.28944707
_cell_length_b   9.31879866
_cell_length_c   10.05087825
_cell_angle_alpha   90.05525514
_cell_angle_beta   89.76105829
_cell_angle_gamma   60.11214873
_symmetry_Int_Tables_number   1
_chemical_formula_structural   Al11BN12
_chemical_formula_sum   'Al33 B3 N36'
_cell_volume   754.34092013
_cell_formula_units_Z   3
loop_
 _symmetry_equiv_pos_site_id
 _symmetry_equiv_pos_as_xyz
  1  'x, y, z'
loop_
 _atom_site_type_symbol
 _atom_site_label
 _atom_site_symmetry_multiplicity
 _atom_site_fract_x
 _atom_site_fract_y
 _atom_site_fract_z
 _atom_site_occupancy
  Al  Al0  1  0.11506012  0.08821120  0.31751437  1
  Al  Al1  1  0.22192977  0.20228899  0.06951046  1
  Al  Al2  1  0.89385529  0.20519469  0.57288092  1
  Al  Al3  1  0.44376463  0.09652643  0.31891133  1
  Al  Al4  1  0.54909185  0.21146767  0.07086682  1
  Al  Al5  1  0.10955636  0.08884616  0.82841822  1
  Al  Al6  1  0.22292630  0.20321769  0.57130456  1
  Al  Al7  1  0.78332469  0.08488972  0.38835350  1
  Al  Al8  1  0.89586998  0.20305641  0.06917685  1
  Al  Al9  1  0.45422185  0.09525872  0.82411423  1
  Al  Al10  1  0.54973442  0.21059009  0.57211447  1
  Al  Al11  1  0.11026759  0.42758889  0.32230573  1
  Al  Al12  1  0.22442409  0.54040137  0.07206616  1
  Al  Al13  1  0.77932777  0.41606508  0.82050557  1
  Al  Al14  1  0.89256342  0.53223594  0.57797483  1
  Al  Al15  1  0.44415320  0.42820288  0.32320356  1
  Al  Al16  1  0.55207096  0.54066406  0.07144236  1
  Al  Al17  1  0.11390501  0.42105922  0.82051358  1
  Al  Al18  1  0.21640891  0.54589748  0.57607646  1
  Al  Al19  1  0.77919850  0.42783098  0.32019849  1
  Al  Al20  1  0.89255488  0.53365567  0.05649540  1
  Al  Al21  1  0.44971340  0.42551354  0.82147084  1
  Al  Al22  1  0.55460622  0.54043738  0.57256497  1
  Al  Al23  1  0.12093208  0.75947037  0.31649865  1
  Al  Al24  1  0.87216021  0.88301773  0.65891892  1
  Al  Al25  1  0.43886626  0.76074024  0.31815705  1
  Al  Al26  1  0.54843264  0.87458717  0.09892737  1
  Al  Al27  1  0.11071506  0.76115487  0.84225108  1
  Al  Al28  1  0.21804360  0.87173813  0.57874296  1
  Al  Al29  1  0.78083258  0.76292738  0.38960746  1
  Al  Al30  1  0.89213115  0.87650525  0.13079155  1
  Al  Al31  1  0.45170597  0.75968881  0.83537098  1
  Al  Al32  1  0.55521133  0.87131378  0.60163302  1
  B  B33  1  0.77387006  0.09445142  0.90843396  1
  B  B34  1  0.22483715  0.86948932  0.06739581  1
  B  B35  1  0.74917387  0.82283350  0.91554628  1
  N  N36  1  0.22263282  0.20303280  0.38050726  1
  N  N37  1  0.12433794  0.06922887  0.12458452  1
  N  N38  1  0.87896746  0.18696247  0.87703158  1
  N  N39  1  0.78078024  0.08785364  0.58076320  1
  N  N40  1  0.55004493  0.20855505  0.37975199  1
  N  N41  1  0.44081943  0.10117479  0.12974555  1
  N  N42  1  0.23046320  0.19678413  0.88119674  1
  N  N43  1  0.11291150  0.09271489  0.63754879  1
  N  N44  1  0.89436267  0.20581145  0.37658679  1
  N  N45  1  0.77849174  0.09055934  0.07161934  1
  N  N46  1  0.57353545  0.20095023  0.87972591  1
  N  N47  1  0.44433370  0.09629195  0.63363053  1
  N  N48  1  0.21944525  0.54308580  0.38346083  1
  N  N49  1  0.10967683  0.42965748  0.13218275  1
  N  N50  1  0.90034443  0.51055832  0.87533790  1
  N  N51  1  0.77567398  0.42529347  0.63095792  1
  N  N52  1  0.55465298  0.54078626  0.38158932  1
  N  N53  1  0.44444758  0.42846290  0.13430257  1
  N  N54  1  0.22499199  0.53320159  0.88433872  1
  N  N55  1  0.11534505  0.42436687  0.63091149  1
  N  N56  1  0.89241318  0.53206646  0.38380103  1
  N  N57  1  0.77758923  0.42965451  0.13050340  1
  N  N58  1  0.55777153  0.53671758  0.88381831  1
  N  N59  1  0.44172176  0.43086337  0.63213549  1
  N  N60  1  0.22149671  0.87142981  0.38916029  1
  N  N61  1  0.13059784  0.77080865  0.12061649  1
  N  N62  1  0.85394648  0.89550766  0.85434867  1
  N  N63  1  0.78040238  0.76503610  0.58250343  1
  N  N64  1  0.55756040  0.86880089  0.34734903  1
  N  N65  1  0.41835338  0.77107782  0.12361702  1
  N  N66  1  0.22612666  0.87064397  0.90529936  1
  N  N67  1  0.10825201  0.76386727  0.64955830  1
  N  N68  1  0.88715472  0.87107395  0.31925770  1
  N  N69  1  0.78019018  0.77073871  0.06201600  1
  N  N70  1  0.57617269  0.87023879  0.87486943  1
  N  N71  1  0.44144022  0.76116876  0.64173693  1
