# generated using pymatgen
data_Al11BN12
_symmetry_space_group_name_H-M   'P 1'
_cell_length_a   9.26917069
_cell_length_b   9.27248070
_cell_length_c   10.09155915
_cell_angle_alpha   90.00811574
_cell_angle_beta   89.68875740
_cell_angle_gamma   60.09148369
_symmetry_Int_Tables_number   1
_chemical_formula_structural   Al11BN12
_chemical_formula_sum   'Al33 B3 N36'
_cell_volume   751.82468373
_cell_formula_units_Z   3
loop_
 _symmetry_equiv_pos_site_id
 _symmetry_equiv_pos_as_xyz
  1  'x, y, z'
loop_
 _atom_site_type_symbol
 _atom_site_label
 _atom_site_symmetry_multiplicity
 _atom_site_fract_x
 _atom_site_fract_y
 _atom_site_fract_z
 _atom_site_occupancy
  Al  Al0  1  0.11426115  0.08885503  0.31824770  1
  Al  Al1  1  0.22318340  0.20107398  0.07084950  1
  Al  Al2  1  0.89331785  0.20546114  0.57467857  1
  Al  Al3  1  0.44396527  0.09446578  0.32045735  1
  Al  Al4  1  0.54957721  0.20900943  0.07096685  1
  Al  Al5  1  0.11034339  0.08854177  0.82803850  1
  Al  Al6  1  0.22204017  0.20431268  0.57228444  1
  Al  Al7  1  0.78315055  0.08506709  0.39031695  1
  Al  Al8  1  0.89692559  0.20089075  0.06835646  1
  Al  Al9  1  0.45600911  0.09041399  0.82133653  1
  Al  Al10  1  0.54891172  0.20978547  0.57249360  1
  Al  Al11  1  0.11093354  0.42747889  0.32239973  1
  Al  Al12  1  0.22579297  0.54064276  0.07177757  1
  Al  Al13  1  0.77844379  0.42369694  0.82161716  1
  Al  Al14  1  0.89141793  0.53412425  0.57669329  1
  Al  Al15  1  0.44450567  0.42804800  0.32290301  1
  Al  Al16  1  0.55235651  0.54148386  0.07135659  1
  Al  Al17  1  0.11047139  0.42833989  0.82156960  1
  Al  Al18  1  0.21648370  0.54620902  0.57620955  1
  Al  Al19  1  0.77922610  0.42707952  0.31958720  1
  Al  Al20  1  0.89303410  0.53465100  0.06300790  1
  Al  Al21  1  0.45163567  0.42344483  0.82140581  1
  Al  Al22  1  0.55468109  0.54064521  0.57201217  1
  Al  Al23  1  0.12079310  0.75989363  0.31612418  1
  Al  Al24  1  0.87099271  0.88130341  0.66054094  1
  Al  Al25  1  0.43963217  0.76324455  0.31889250  1
  Al  Al26  1  0.54498655  0.87659926  0.07207741  1
  Al  Al27  1  0.11139360  0.76208278  0.84133021  1
  Al  Al28  1  0.21746771  0.87148972  0.57782733  1
  Al  Al29  1  0.78300752  0.76331953  0.39138439  1
  Al  Al30  1  0.89129276  0.87524785  0.13060218  1
  Al  Al31  1  0.45168403  0.75967764  0.82819696  1
  Al  Al32  1  0.54803466  0.87478741  0.57317966  1
  B  B33  1  0.77369273  0.09021250  0.90882822  1
  B  B34  1  0.22543942  0.87011961  0.06882065  1
  B  B35  1  0.76650783  0.79073330  0.91138463  1
  N  N36  1  0.22175504  0.20392500  0.38138175  1
  N  N37  1  0.12459868  0.06876774  0.12561695  1
  N  N38  1  0.88035475  0.19099318  0.87760203  1
  N  N39  1  0.78035503  0.08752361  0.58185388  1
  N  N40  1  0.54981598  0.20815161  0.38022200  1
  N  N41  1  0.44328626  0.09562291  0.13237916  1
  N  N42  1  0.22641690  0.20172165  0.88226967  1
  N  N43  1  0.11264602  0.09279830  0.63814134  1
  N  N44  1  0.89402231  0.20625814  0.37846230  1
  N  N45  1  0.77926798  0.08886785  0.06972866  1
  N  N46  1  0.57410616  0.19756641  0.87995543  1
  N  N47  1  0.44360348  0.09494027  0.63374287  1
  N  N48  1  0.21954012  0.54300221  0.38397766  1
  N  N49  1  0.11172785  0.42826138  0.13251903  1
  N  N50  1  0.88702602  0.54304074  0.87626043  1
  N  N51  1  0.77611787  0.42668469  0.63298856  1
  N  N52  1  0.55521856  0.54091345  0.38103768  1
  N  N53  1  0.44572379  0.42728091  0.13434113  1
  N  N54  1  0.22683692  0.53363512  0.88502554  1
  N  N55  1  0.11317362  0.42611982  0.63272545  1
  N  N56  1  0.89199800  0.53243491  0.38233899  1
  N  N57  1  0.77935345  0.42717809  0.12983940  1
  N  N58  1  0.55749217  0.53765910  0.88395647  1
  N  N59  1  0.44206030  0.43049968  0.63265480  1
  N  N60  1  0.22081926  0.87177920  0.38890899  1
  N  N61  1  0.13159087  0.77066746  0.12161790  1
  N  N62  1  0.85861275  0.88857814  0.85481828  1
  N  N63  1  0.77936285  0.76536828  0.58308703  1
  N  N64  1  0.54948872  0.87372858  0.37841063  1
  N  N65  1  0.42157680  0.77248721  0.12612423  1
  N  N66  1  0.22795251  0.87066535  0.90590532  1
  N  N67  1  0.10852558  0.76375523  0.64947797  1
  N  N68  1  0.88617856  0.87225905  0.31846588  1
  N  N69  1  0.78079798  0.76758749  0.06756100  1
  N  N70  1  0.57470206  0.86663118  0.88157856  1
  N  N71  1  0.44130816  0.76221699  0.63841328  1
