# generated using pymatgen
data_Al11BN12
_symmetry_space_group_name_H-M   'P 1'
_cell_length_a   9.25966994
_cell_length_b   9.25920675
_cell_length_c   9.89659483
_cell_angle_alpha   89.99432485
_cell_angle_beta   90.10441410
_cell_angle_gamma   59.98967211
_symmetry_Int_Tables_number   1
_chemical_formula_structural   Al11BN12
_chemical_formula_sum   'Al33 B3 N36'
_cell_volume   734.74981719
_cell_formula_units_Z   3
loop_
 _symmetry_equiv_pos_site_id
 _symmetry_equiv_pos_as_xyz
  1  'x, y, z'
loop_
 _atom_site_type_symbol
 _atom_site_label
 _atom_site_symmetry_multiplicity
 _atom_site_fract_x
 _atom_site_fract_y
 _atom_site_fract_z
 _atom_site_occupancy
  Al  Al0  1  0.11097845  0.09217595  0.39021587  1
  Al  Al1  1  0.22361081  0.20061217  0.14727167  1
  Al  Al2  1  0.88900981  0.20061671  0.65135390  1
  Al  Al3  1  0.44632337  0.09337717  0.39810995  1
  Al  Al4  1  0.55743436  0.20440835  0.14282754  1
  Al  Al5  1  0.11084336  0.08672394  0.90225597  1
  Al  Al6  1  0.22116424  0.20465494  0.64738415  1
  Al  Al7  1  0.77894134  0.09217009  0.39559392  1
  Al  Al8  1  0.89091533  0.19915865  0.14070552  1
  Al  Al9  1  0.45496801  0.08898997  0.89768181  1
  Al  Al10  1  0.56245417  0.20172900  0.65168282  1
  Al  Al11  1  0.10993672  0.42865203  0.39706527  1
  Al  Al12  1  0.22405013  0.54295252  0.14760741  1
  Al  Al13  1  0.77621809  0.42876641  0.89698403  1
  Al  Al14  1  0.88693186  0.54474753  0.65173904  1
  Al  Al15  1  0.44577375  0.42582872  0.39800694  1
  Al  Al16  1  0.55095892  0.54226213  0.14840538  1
  Al  Al17  1  0.10766597  0.43367705  0.89810185  1
  Al  Al18  1  0.22177348  0.54055029  0.64691124  1
  Al  Al19  1  0.77977855  0.42642716  0.39714876  1
  Al  Al20  1  0.88727244  0.54164447  0.14170738  1
  Al  Al21  1  0.45037895  0.42404889  0.89766981  1
  Al  Al22  1  0.55570471  0.54004126  0.64681393  1
  Al  Al23  1  0.10918495  0.76408838  0.38962517  1
  Al  Al24  1  0.88599851  0.87383096  0.65570591  1
  Al  Al25  1  0.44296880  0.76294305  0.39075453  1
  Al  Al26  1  0.55170867  0.87311986  0.14254289  1
  Al  Al27  1  0.10868410  0.76664686  0.90108781  1
  Al  Al28  1  0.22251223  0.87206695  0.64512948  1
  Al  Al29  1  0.77853378  0.76248114  0.39530371  1
  Al  Al30  1  0.89012328  0.87464587  0.13355849  1
  Al  Al31  1  0.44445226  0.76169886  0.90203930  1
  Al  Al32  1  0.56100944  0.86842070  0.65135914  1
  B  B33  1  0.77255549  0.09264590  0.90407778  1
  B  B34  1  0.22216359  0.87194422  0.15049970  1
  B  B35  1  0.77209387  0.76645411  0.90423028  1
  N  N36  1  0.22308085  0.20538138  0.33890966  1
  N  N37  1  0.12406451  0.06859866  0.09553773  1
  N  N38  1  0.87955524  0.19038024  0.84678725  1
  N  N39  1  0.77996142  0.09136991  0.58577705  1
  N  N40  1  0.55722444  0.20421263  0.33528110  1
  N  N41  1  0.44403811  0.09521558  0.08687582  1
  N  N42  1  0.22088033  0.20458832  0.84083294  1
  N  N43  1  0.11018461  0.09356944  0.58419975  1
  N  N44  1  0.88713009  0.20477111  0.33300681  1
  N  N45  1  0.77550852  0.09555877  0.06613874  1
  N  N46  1  0.58163588  0.19241849  0.84549959  1
  N  N47  1  0.44661239  0.09311850  0.59282630  1
  N  N48  1  0.22289080  0.53864154  0.33887071  1
  N  N49  1  0.11205538  0.42798128  0.08892534  1
  N  N50  1  0.87685212  0.56536767  0.84565050  1
  N  N51  1  0.78120038  0.42584013  0.59214969  1
  N  N52  1  0.55641682  0.53790162  0.33946506  1
  N  N53  1  0.44504417  0.42756175  0.08785291  1
  N  N54  1  0.22340937  0.54054848  0.83954201  1
  N  N55  1  0.10955288  0.42866533  0.59016039  1
  N  N56  1  0.88767233  0.54079843  0.33445137  1
  N  N57  1  0.77693512  0.42765655  0.08743319  1
  N  N58  1  0.55490472  0.54107187  0.83847674  1
  N  N59  1  0.44623920  0.42504732  0.59067964  1
  N  N60  1  0.22243246  0.87173987  0.31716423  1
  N  N61  1  0.12451781  0.77353828  0.09403972  1
  N  N62  1  0.86926758  0.88214392  0.85308318  1
  N  N63  1  0.77912422  0.76287356  0.58581441  1
  N  N64  1  0.55724989  0.87215684  0.33406941  1
  N  N65  1  0.41968289  0.77311403  0.09534510  1
  N  N66  1  0.22483079  0.87065696  0.83421186  1
  N  N67  1  0.10815015  0.76385370  0.58523326  1
  N  N68  1  0.88654655  0.87335894  0.32697324  1
  N  N69  1  0.77541130  0.76231713  0.06726833  1
  N  N70  1  0.57990083  0.85812691  0.84726903  1
  N  N71  1  0.44460342  0.76291207  0.58466082  1
