# generated using pymatgen
data_Al11BN12
_symmetry_space_group_name_H-M   'P 1'
_cell_length_a   9.30312118
_cell_length_b   9.27760989
_cell_length_c   10.04325553
_cell_angle_alpha   89.99421400
_cell_angle_beta   90.04812597
_cell_angle_gamma   60.04026508
_symmetry_Int_Tables_number   1
_chemical_formula_structural   Al11BN12
_chemical_formula_sum   'Al33 B3 N36'
_cell_volume   751.01007666
_cell_formula_units_Z   3
loop_
 _symmetry_equiv_pos_site_id
 _symmetry_equiv_pos_as_xyz
  1  'x, y, z'
loop_
 _atom_site_type_symbol
 _atom_site_label
 _atom_site_symmetry_multiplicity
 _atom_site_fract_x
 _atom_site_fract_y
 _atom_site_fract_z
 _atom_site_occupancy
  Al  Al0  1  0.10584303  0.10163449  0.38909394  1
  Al  Al1  1  0.22496140  0.19599796  0.13555007  1
  Al  Al2  1  0.88699492  0.20267895  0.64319989  1
  Al  Al3  1  0.44699520  0.09144289  0.38769366  1
  Al  Al4  1  0.56089353  0.19976701  0.13300023  1
  Al  Al5  1  0.10800017  0.09065475  0.89352215  1
  Al  Al6  1  0.22212151  0.20482312  0.64012200  1
  Al  Al7  1  0.78055690  0.08990450  0.38479594  1
  Al  Al8  1  0.89269491  0.19793295  0.13249666  1
  Al  Al9  1  0.45710004  0.08901906  0.88853674  1
  Al  Al10  1  0.56464835  0.19655507  0.63726350  1
  Al  Al11  1  0.10968529  0.42996445  0.35543657  1
  Al  Al12  1  0.22758554  0.54218461  0.06791892  1
  Al  Al13  1  0.78322294  0.42334998  0.88759975  1
  Al  Al14  1  0.88514972  0.54520493  0.64187074  1
  Al  Al15  1  0.44317277  0.43275018  0.32008586  1
  Al  Al16  1  0.54667220  0.54518787  0.06831254  1
  Al  Al17  1  0.10663434  0.42978523  0.87152639  1
  Al  Al18  1  0.21910489  0.54352560  0.57199434  1
  Al  Al19  1  0.78248519  0.42608795  0.38740394  1
  Al  Al20  1  0.88520814  0.54237316  0.12942997  1
  Al  Al21  1  0.44924213  0.42697608  0.82027287  1
  Al  Al22  1  0.54861349  0.54457332  0.57192772  1
  Al  Al23  1  0.11577743  0.76605323  0.30809298  1
  Al  Al24  1  0.87918676  0.87692972  0.64810658  1
  Al  Al25  1  0.43422288  0.76421648  0.31342601  1
  Al  Al26  1  0.55464570  0.87476874  0.12723356  1
  Al  Al27  1  0.11021380  0.76154851  0.83258325  1
  Al  Al28  1  0.22192931  0.86820310  0.57355370  1
  Al  Al29  1  0.77771568  0.76420367  0.38315426  1
  Al  Al30  1  0.88779443  0.87590501  0.11392457  1
  Al  Al31  1  0.44809783  0.75777640  0.82820809  1
  Al  Al32  1  0.56396447  0.87207288  0.64184797  1
  B  B33  1  0.77065631  0.09198812  0.89309848  1
  B  B34  1  0.22695573  0.86513808  0.05990288  1
  B  B35  1  0.77041811  0.77017112  0.89393531  1
  N  N36  1  0.22519538  0.20170271  0.32660859  1
  N  N37  1  0.12112965  0.07253643  0.08359501  1
  N  N38  1  0.88059151  0.18807025  0.83445657  1
  N  N39  1  0.78164448  0.09034335  0.57326179  1
  N  N40  1  0.56004671  0.19883652  0.32662087  1
  N  N41  1  0.44450490  0.09629793  0.07455911  1
  N  N42  1  0.22618014  0.19762331  0.83161052  1
  N  N43  1  0.10580129  0.10131000  0.58198685  1
  N  N44  1  0.88695730  0.20525474  0.32321328  1
  N  N45  1  0.77481015  0.09786373  0.05348647  1
  N  N46  1  0.58464796  0.18824579  0.83307435  1
  N  N47  1  0.44580299  0.09259009  0.57921749  1
  N  N48  1  0.22087956  0.54699738  0.37756657  1
  N  N49  1  0.11151374  0.42586412  0.09187752  1
  N  N50  1  0.87455118  0.56586548  0.83466970  1
  N  N51  1  0.78205168  0.42564466  0.58300372  1
  N  N52  1  0.54945342  0.54587352  0.37946105  1
  N  N53  1  0.44374309  0.43214876  0.12987497  1
  N  N54  1  0.22919283  0.53595110  0.87973237  1
  N  N55  1  0.10828353  0.42874646  0.59935266  1
  N  N56  1  0.88321618  0.54372789  0.32120408  1
  N  N57  1  0.78336032  0.42282658  0.07847544  1
  N  N58  1  0.55400980  0.53834969  0.87923271  1
  N  N59  1  0.44235105  0.42961471  0.62926021  1
  N  N60  1  0.22196126  0.86926724  0.38387663  1
  N  N61  1  0.12772689  0.77308036  0.11476143  1
  N  N62  1  0.86444787  0.88366808  0.84509917  1
  N  N63  1  0.77878445  0.76338439  0.57249531  1
  N  N64  1  0.55849836  0.87278916  0.32017420  1
  N  N65  1  0.41660176  0.77397058  0.11925520  1
  N  N66  1  0.23150216  0.85918831  0.89807725  1
  N  N67  1  0.11163000  0.76243743  0.64107550  1
  N  N68  1  0.88319402  0.87462942  0.31018927  1
  N  N69  1  0.77530803  0.76168643  0.05414439  1
  N  N70  1  0.58415704  0.86097796  0.83685560  1
  N  N71  1  0.44002198  0.76337298  0.63733088  1
