# generated using pymatgen
data_Al11BN12
_symmetry_space_group_name_H-M   'P 1'
_cell_length_a   9.28588662
_cell_length_b   9.26332586
_cell_length_c   10.11110448
_cell_angle_alpha   89.90280342
_cell_angle_beta   89.93134777
_cell_angle_gamma   60.06388552
_symmetry_Int_Tables_number   1
_chemical_formula_structural   Al11BN12
_chemical_formula_sum   'Al33 B3 N36'
_cell_volume   753.69928921
_cell_formula_units_Z   3
loop_
 _symmetry_equiv_pos_site_id
 _symmetry_equiv_pos_as_xyz
  1  'x, y, z'
loop_
 _atom_site_type_symbol
 _atom_site_label
 _atom_site_symmetry_multiplicity
 _atom_site_fract_x
 _atom_site_fract_y
 _atom_site_fract_z
 _atom_site_occupancy
  Al  Al0  1  0.11975771  0.08526973  0.31385448  1
  Al  Al1  1  0.21667610  0.20625412  0.06764793  1
  Al  Al2  1  0.88467920  0.19632990  0.64570339  1
  Al  Al3  1  0.45287589  0.08702011  0.38942128  1
  Al  Al4  1  0.55994488  0.20144496  0.13592686  1
  Al  Al5  1  0.11318805  0.08745794  0.83306386  1
  Al  Al6  1  0.21702544  0.20465462  0.57289805  1
  Al  Al7  1  0.78302344  0.08947112  0.38622619  1
  Al  Al8  1  0.88929595  0.20010297  0.12238301  1
  Al  Al9  1  0.46077005  0.08922713  0.89020486  1
  Al  Al10  1  0.56435436  0.19576238  0.64035976  1
  Al  Al11  1  0.11086855  0.42634991  0.31956194  1
  Al  Al12  1  0.22475855  0.54206077  0.06989735  1
  Al  Al13  1  0.77339323  0.43541642  0.82568630  1
  Al  Al14  1  0.89228508  0.53042962  0.57049639  1
  Al  Al15  1  0.44207287  0.43124700  0.32316593  1
  Al  Al16  1  0.54806862  0.54562835  0.06962469  1
  Al  Al17  1  0.10718665  0.43379420  0.81817066  1
  Al  Al18  1  0.22019183  0.54217828  0.57297512  1
  Al  Al19  1  0.77532440  0.43227570  0.31550917  1
  Al  Al20  1  0.88872735  0.54273795  0.06116216  1
  Al  Al21  1  0.44716999  0.42893027  0.82275162  1
  Al  Al22  1  0.55534418  0.53975023  0.57274318  1
  Al  Al23  1  0.11659815  0.76111932  0.31242706  1
  Al  Al24  1  0.88027452  0.87290528  0.65149929  1
  Al  Al25  1  0.43621393  0.75972611  0.31692552  1
  Al  Al26  1  0.55186664  0.87716755  0.13161156  1
  Al  Al27  1  0.10930914  0.76352142  0.83792835  1
  Al  Al28  1  0.22109224  0.87090522  0.57614301  1
  Al  Al29  1  0.77752527  0.76507985  0.38615504  1
  Al  Al30  1  0.88720588  0.87978599  0.12001993  1
  Al  Al31  1  0.44519797  0.76009830  0.83192243  1
  Al  Al32  1  0.56596975  0.86855615  0.64601280  1
  B  B33  1  0.77034406  0.09804537  0.89494670  1
  B  B34  1  0.22578777  0.87063101  0.06647659  1
  B  B35  1  0.76865046  0.78065504  0.89886666  1
  N  N36  1  0.21835511  0.20408398  0.37964910  1
  N  N37  1  0.12935656  0.06703825  0.11992682  1
  N  N38  1  0.87389650  0.18777737  0.84103578  1
  N  N39  1  0.78229980  0.08752987  0.57375768  1
  N  N40  1  0.56129505  0.19730217  0.32754270  1
  N  N41  1  0.44724755  0.09686690  0.07758457  1
  N  N42  1  0.21777523  0.20968429  0.87793268  1
  N  N43  1  0.11635203  0.08919408  0.64029524  1
  N  N44  1  0.88746763  0.19950700  0.31841771  1
  N  N45  1  0.77265020  0.10036803  0.05386757  1
  N  N46  1  0.58366071  0.19073758  0.83410847  1
  N  N47  1  0.45181693  0.08792653  0.58184828  1
  N  N48  1  0.21932416  0.54172893  0.38207132  1
  N  N49  1  0.10815463  0.43172222  0.13046909  1
  N  N50  1  0.88153893  0.55902564  0.87314048  1
  N  N51  1  0.77588899  0.42909150  0.63473355  1
  N  N52  1  0.55567933  0.53980825  0.38287234  1
  N  N53  1  0.44177156  0.43432456  0.13287362  1
  N  N54  1  0.22526458  0.53531624  0.88360822  1
  N  N55  1  0.11244118  0.42667608  0.63066214  1
  N  N56  1  0.89213179  0.53076161  0.37996750  1
  N  N57  1  0.77278995  0.43983738  0.12391003  1
  N  N58  1  0.55501085  0.53889250  0.88478424  1
  N  N59  1  0.44277184  0.42949692  0.63144700  1
  N  N60  1  0.22068911  0.87079387  0.38757516  1
  N  N61  1  0.12736632  0.77348605  0.11855287  1
  N  N62  1  0.86362741  0.88326467  0.84644874  1
  N  N63  1  0.77848158  0.76449773  0.57543754  1
  N  N64  1  0.55964209  0.86925945  0.32172610  1
  N  N65  1  0.41633565  0.77349589  0.12285376  1
  N  N66  1  0.22586017  0.87048250  0.90512827  1
  N  N67  1  0.11342299  0.76033578  0.64465286  1
  N  N68  1  0.88393397  0.87249936  0.31309021  1
  N  N69  1  0.76917186  0.77659852  0.05795463  1
  N  N70  1  0.58397142  0.86131927  0.83875878  1
  N  N71  1  0.44127732  0.75972681  0.63976580  1
