# generated using pymatgen
data_Al11BN12
_symmetry_space_group_name_H-M   'P 1'
_cell_length_a   9.30816448
_cell_length_b   9.29921952
_cell_length_c   10.01639254
_cell_angle_alpha   89.89851176
_cell_angle_beta   89.87037260
_cell_angle_gamma   59.96718150
_symmetry_Int_Tables_number   1
_chemical_formula_structural   Al11BN12
_chemical_formula_sum   'Al33 B3 N36'
_cell_volume   750.59828961
_cell_formula_units_Z   3
loop_
 _symmetry_equiv_pos_site_id
 _symmetry_equiv_pos_as_xyz
  1  'x, y, z'
loop_
 _atom_site_type_symbol
 _atom_site_label
 _atom_site_symmetry_multiplicity
 _atom_site_fract_x
 _atom_site_fract_y
 _atom_site_fract_z
 _atom_site_occupancy
  Al  Al0  1  0.10553633  0.10182221  0.38770544  1
  Al  Al1  1  0.22268724  0.19944472  0.13833311  1
  Al  Al2  1  0.88800018  0.20094087  0.64289831  1
  Al  Al3  1  0.44647281  0.09206358  0.38653178  1
  Al  Al4  1  0.56090567  0.19764248  0.13133446  1
  Al  Al5  1  0.10684806  0.09250182  0.89269623  1
  Al  Al6  1  0.22144714  0.20627986  0.63898402  1
  Al  Al7  1  0.77986133  0.09053655  0.38416786  1
  Al  Al8  1  0.89271762  0.19773917  0.13296208  1
  Al  Al9  1  0.45503348  0.08997057  0.88848309  1
  Al  Al10  1  0.56500785  0.19551348  0.63867845  1
  Al  Al11  1  0.10680921  0.42781234  0.38583865  1
  Al  Al12  1  0.22531228  0.54415676  0.06770007  1
  Al  Al13  1  0.78383581  0.42337983  0.88763079  1
  Al  Al14  1  0.88816835  0.54456828  0.64153711  1
  Al  Al15  1  0.44214139  0.43206413  0.31670833  1
  Al  Al16  1  0.55019086  0.54347177  0.08076775  1
  Al  Al17  1  0.10396613  0.42848604  0.88828510  1
  Al  Al18  1  0.22288157  0.54539462  0.57119076  1
  Al  Al19  1  0.77660107  0.42897619  0.38660569  1
  Al  Al20  1  0.88781380  0.54045451  0.13381756  1
  Al  Al21  1  0.44713999  0.42345959  0.82777494  1
  Al  Al22  1  0.55513672  0.54113927  0.60891037  1
  Al  Al23  1  0.11659138  0.76477642  0.30913768  1
  Al  Al24  1  0.87934904  0.87678052  0.64711983  1
  Al  Al25  1  0.43436839  0.76511495  0.31168978  1
  Al  Al26  1  0.55484539  0.87539956  0.12560843  1
  Al  Al27  1  0.10963729  0.76152804  0.83185117  1
  Al  Al28  1  0.22322246  0.86843442  0.57267919  1
  Al  Al29  1  0.77755248  0.76350420  0.38253803  1
  Al  Al30  1  0.88844319  0.87545911  0.11539066  1
  Al  Al31  1  0.44695230  0.76180896  0.83508560  1
  Al  Al32  1  0.56434942  0.87290018  0.64294008  1
  B  B33  1  0.77132816  0.09095952  0.89366669  1
  B  B34  1  0.22590721  0.86711710  0.05880012  1
  B  B35  1  0.77199878  0.77120491  0.89447302  1
  N  N36  1  0.22317486  0.20531814  0.32826643  1
  N  N37  1  0.12104544  0.07406405  0.08360330  1
  N  N38  1  0.88003693  0.18768864  0.83430686  1
  N  N39  1  0.78141504  0.09041755  0.57338237  1
  N  N40  1  0.55986742  0.19852188  0.32501812  1
  N  N41  1  0.44225182  0.09687431  0.07454073  1
  N  N42  1  0.22373368  0.20167236  0.82936098  1
  N  N43  1  0.10630018  0.10151628  0.58174074  1
  N  N44  1  0.88648943  0.20567992  0.32390010  1
  N  N45  1  0.77596770  0.09656220  0.05379744  1
  N  N46  1  0.58499114  0.18639161  0.83467527  1
  N  N47  1  0.44600599  0.09295459  0.57942162  1
  N  N48  1  0.22170955  0.54633546  0.37681718  1
  N  N49  1  0.10923743  0.42401404  0.08081634  1
  N  N50  1  0.87805339  0.56318195  0.83265600  1
  N  N51  1  0.78250450  0.42564694  0.58386608  1
  N  N52  1  0.55331654  0.54355531  0.35500179  1
  N  N53  1  0.44245820  0.42834048  0.12266215  1
  N  N54  1  0.22523682  0.53730483  0.87840708  1
  N  N55  1  0.10779524  0.42733026  0.58007123  1
  N  N56  1  0.88682497  0.54131279  0.32425283  1
  N  N57  1  0.78488358  0.42265011  0.07767863  1
  N  N58  1  0.55657870  0.53694326  0.86920868  1
  N  N59  1  0.44182736  0.42741079  0.63315593  1
  N  N60  1  0.22229747  0.86974641  0.38297655  1
  N  N61  1  0.12801298  0.77349756  0.11515463  1
  N  N62  1  0.86454154  0.88306655  0.84475556  1
  N  N63  1  0.77920805  0.76296350  0.57285588  1
  N  N64  1  0.55826474  0.87369886  0.31906271  1
  N  N65  1  0.41605432  0.77652634  0.11418107  1
  N  N66  1  0.22821821  0.86147426  0.89746383  1
  N  N67  1  0.11202753  0.76278829  0.63996595  1
  N  N68  1  0.88346561  0.87448971  0.31127480  1
  N  N69  1  0.77753261  0.76008387  0.05495102  1
  N  N70  1  0.58498261  0.86168811  0.83859068  1
  N  N71  1  0.43866397  0.76722607  0.64069850  1
