# generated using pymatgen
data_Al11BN12
_symmetry_space_group_name_H-M   'P 1'
_cell_length_a   9.30838876
_cell_length_b   9.28978980
_cell_length_c   10.07880220
_cell_angle_alpha   89.87944803
_cell_angle_beta   89.93309117
_cell_angle_gamma   59.99722397
_symmetry_Int_Tables_number   1
_chemical_formula_structural   Al11BN12
_chemical_formula_sum   'Al33 B3 N36'
_cell_volume   754.75646130
_cell_formula_units_Z   3
loop_
 _symmetry_equiv_pos_site_id
 _symmetry_equiv_pos_as_xyz
  1  'x, y, z'
loop_
 _atom_site_type_symbol
 _atom_site_label
 _atom_site_symmetry_multiplicity
 _atom_site_fract_x
 _atom_site_fract_y
 _atom_site_fract_z
 _atom_site_occupancy
  Al  Al0  1  0.11611605  0.08276918  0.31294625  1
  Al  Al1  1  0.22543280  0.20249514  0.12022376  1
  Al  Al2  1  0.88512818  0.19523443  0.64693580  1
  Al  Al3  1  0.44478198  0.09077154  0.38913734  1
  Al  Al4  1  0.55970963  0.20137399  0.13699035  1
  Al  Al5  1  0.11047248  0.08661659  0.84301327  1
  Al  Al6  1  0.22990109  0.19868104  0.64415298  1
  Al  Al7  1  0.78203428  0.08881059  0.38614089  1
  Al  Al8  1  0.88728509  0.20098317  0.11910884  1
  Al  Al9  1  0.45860474  0.09075990  0.89108872  1
  Al  Al10  1  0.56539022  0.19542755  0.63943388  1
  Al  Al11  1  0.10896828  0.43117351  0.31780644  1
  Al  Al12  1  0.22489926  0.54411116  0.06938874  1
  Al  Al13  1  0.77267060  0.43609361  0.82588919  1
  Al  Al14  1  0.89439865  0.52758133  0.57003251  1
  Al  Al15  1  0.44251067  0.43058317  0.32406132  1
  Al  Al16  1  0.54728875  0.54637705  0.07017171  1
  Al  Al17  1  0.10451685  0.44109024  0.82255011  1
  Al  Al18  1  0.22056826  0.54168501  0.57278599  1
  Al  Al19  1  0.77563018  0.43130420  0.31529655  1
  Al  Al20  1  0.88684957  0.54427942  0.06065742  1
  Al  Al21  1  0.44794877  0.42863619  0.82266409  1
  Al  Al22  1  0.55608701  0.53922154  0.57272313  1
  Al  Al23  1  0.11651784  0.76103019  0.31261203  1
  Al  Al24  1  0.88106733  0.87163433  0.65090401  1
  Al  Al25  1  0.43658654  0.76011425  0.31755993  1
  Al  Al26  1  0.55204309  0.87703640  0.13209197  1
  Al  Al27  1  0.10967314  0.76384725  0.83656039  1
  Al  Al28  1  0.22108727  0.87116234  0.57621021  1
  Al  Al29  1  0.77717166  0.76482406  0.38612989  1
  Al  Al30  1  0.88711442  0.87944468  0.11992933  1
  Al  Al31  1  0.44575401  0.76024578  0.83161089  1
  Al  Al32  1  0.56768315  0.86680704  0.64500540  1
  B  B33  1  0.76826117  0.09920272  0.89577378  1
  B  B34  1  0.22456385  0.87034650  0.06503548  1
  B  B35  1  0.76703731  0.78271852  0.89889950  1
  N  N36  1  0.22780823  0.19983497  0.32607536  1
  N  N37  1  0.12488068  0.06669188  0.11216103  1
  N  N38  1  0.87225663  0.18948700  0.84399375  1
  N  N39  1  0.78278806  0.08659130  0.57432777  1
  N  N40  1  0.56040023  0.19687076  0.32944389  1
  N  N41  1  0.44687440  0.09723233  0.07581293  1
  N  N42  1  0.22849232  0.20485446  0.84503100  1
  N  N43  1  0.11397236  0.08581235  0.64199519  1
  N  N44  1  0.88595604  0.19889024  0.31746378  1
  N  N45  1  0.77086542  0.09995582  0.05451321  1
  N  N46  1  0.58371943  0.19051697  0.83411934  1
  N  N47  1  0.44840357  0.08927418  0.58125174  1
  N  N48  1  0.21951308  0.54194649  0.38193148  1
  N  N49  1  0.10449074  0.44020629  0.12582468  1
  N  N50  1  0.87975104  0.55954227  0.87295834  1
  N  N51  1  0.77662945  0.42778330  0.63465137  1
  N  N52  1  0.55588772  0.53964215  0.38248169  1
  N  N53  1  0.44181554  0.43408847  0.13302791  1
  N  N54  1  0.22654347  0.53718688  0.88337337  1
  N  N55  1  0.11154769  0.43014598  0.63166022  1
  N  N56  1  0.89246133  0.52972929  0.37947966  1
  N  N57  1  0.77234211  0.44014184  0.12339094  1
  N  N58  1  0.55467483  0.53935266  0.88459384  1
  N  N59  1  0.44351506  0.42879886  0.63073746  1
  N  N60  1  0.22058125  0.87064492  0.38724813  1
  N  N61  1  0.12707444  0.77419730  0.11855884  1
  N  N62  1  0.86387179  0.88275168  0.84641314  1
  N  N63  1  0.77970914  0.76280680  0.57548784  1
  N  N64  1  0.55948154  0.86960373  0.32317958  1
  N  N65  1  0.41565900  0.77456251  0.12303868  1
  N  N66  1  0.22731907  0.86742900  0.90457967  1
  N  N67  1  0.11385436  0.75980349  0.64345523  1
  N  N68  1  0.88418884  0.87169072  0.31350776  1
  N  N69  1  0.76789949  0.77778732  0.05808801  1
  N  N70  1  0.58382718  0.86222759  0.83847849  1
  N  N71  1  0.44204006  0.75955209  0.63892148  1
