# generated using pymatgen
data_Al11BN12
_symmetry_space_group_name_H-M   'P 1'
_cell_length_a   9.29911188
_cell_length_b   9.28045272
_cell_length_c   10.00738830
_cell_angle_alpha   89.87909504
_cell_angle_beta   89.75922060
_cell_angle_gamma   59.96316033
_symmetry_Int_Tables_number   1
_chemical_formula_structural   Al11BN12
_chemical_formula_sum   'Al33 B3 N36'
_cell_volume   747.64742964
_cell_formula_units_Z   3
loop_
 _symmetry_equiv_pos_site_id
 _symmetry_equiv_pos_as_xyz
  1  'x, y, z'
loop_
 _atom_site_type_symbol
 _atom_site_label
 _atom_site_symmetry_multiplicity
 _atom_site_fract_x
 _atom_site_fract_y
 _atom_site_fract_z
 _atom_site_occupancy
  Al  Al0  1  0.10505059  0.10209346  0.38585837  1
  Al  Al1  1  0.22356149  0.19825555  0.13721441  1
  Al  Al2  1  0.88535341  0.20339603  0.64140516  1
  Al  Al3  1  0.44550771  0.09425930  0.38745263  1
  Al  Al4  1  0.55843692  0.20275985  0.13382357  1
  Al  Al5  1  0.10527666  0.09374513  0.88905665  1
  Al  Al6  1  0.22111071  0.20665007  0.63875933  1
  Al  Al7  1  0.78104850  0.08964870  0.38327255  1
  Al  Al8  1  0.89241886  0.19777951  0.13000493  1
  Al  Al9  1  0.45458870  0.08930309  0.88797194  1
  Al  Al10  1  0.56051872  0.20337602  0.63960614  1
  Al  Al11  1  0.10556084  0.42877188  0.38364762  1
  Al  Al12  1  0.22375809  0.54435633  0.06831210  1
  Al  Al13  1  0.77797173  0.42698812  0.88730098  1
  Al  Al14  1  0.88518903  0.54527824  0.64016361  1
  Al  Al15  1  0.45025425  0.42484999  0.38514148  1
  Al  Al16  1  0.55199165  0.54213188  0.13699068  1
  Al  Al17  1  0.10411153  0.42867957  0.88593824  1
  Al  Al18  1  0.21605547  0.54853927  0.57275816  1
  Al  Al19  1  0.77769725  0.42812267  0.38678751  1
  Al  Al20  1  0.88642129  0.54107596  0.13136061  1
  Al  Al21  1  0.45955105  0.41723311  0.88653208  1
  Al  Al22  1  0.55557633  0.53975108  0.63886567  1
  Al  Al23  1  0.11949419  0.76449388  0.30448017  1
  Al  Al24  1  0.87570246  0.87927021  0.64712867  1
  Al  Al25  1  0.44901420  0.76142512  0.38333197  1
  Al  Al26  1  0.55145878  0.87318671  0.13111560  1
  Al  Al27  1  0.10962931  0.75923953  0.82899757  1
  Al  Al28  1  0.21702402  0.87141257  0.57226155  1
  Al  Al29  1  0.78010535  0.76415571  0.38253386  1
  Al  Al30  1  0.88727837  0.87577568  0.11293328  1
  Al  Al31  1  0.45567318  0.75564041  0.88881348  1
  Al  Al32  1  0.56075387  0.87038123  0.64176001  1
  B  B33  1  0.77144259  0.09122094  0.89275440  1
  B  B34  1  0.22390599  0.86766056  0.05287160  1
  B  B35  1  0.77124294  0.77011337  0.89318136  1
  N  N36  1  0.22288228  0.20566409  0.32742299  1
  N  N37  1  0.12217454  0.07260688  0.08079902  1
  N  N38  1  0.87773021  0.18961502  0.83379615  1
  N  N39  1  0.77936505  0.09190551  0.57279682  1
  N  N40  1  0.55795421  0.20361245  0.32432765  1
  N  N41  1  0.44416483  0.09548324  0.07586440  1
  N  N42  1  0.22314818  0.20190138  0.82897183  1
  N  N43  1  0.10456867  0.10324243  0.58151095  1
  N  N44  1  0.88618809  0.20620972  0.32168403  1
  N  N45  1  0.77521022  0.09669579  0.05304277  1
  N  N46  1  0.58257502  0.18986421  0.83262455  1
  N  N47  1  0.44567990  0.09439192  0.58073651  1
  N  N48  1  0.21789536  0.54810523  0.37174950  1
  N  N49  1  0.10888886  0.42373381  0.07956450  1
  N  N50  1  0.87684939  0.56385590  0.83245322  1
  N  N51  1  0.77870051  0.42756801  0.57978220  1
  N  N52  1  0.55635107  0.53978002  0.32642825  1
  N  N53  1  0.45331133  0.42274821  0.07861029  1
  N  N54  1  0.22660022  0.53516437  0.87211926  1
  N  N55  1  0.10544271  0.42767744  0.57921534  1
  N  N56  1  0.88520675  0.54215810  0.32246973  1
  N  N57  1  0.77827330  0.42630202  0.07602136  1
  N  N58  1  0.55902635  0.53676216  0.82741448  1
  N  N59  1  0.44949384  0.42480644  0.58005854  1
  N  N60  1  0.21865573  0.87187749  0.37972044  1
  N  N61  1  0.12967104  0.77334610  0.11135345  1
  N  N62  1  0.86257929  0.88335517  0.84415178  1
  N  N63  1  0.77879640  0.76401477  0.57259910  1
  N  N64  1  0.55744939  0.87315282  0.32196054  1
  N  N65  1  0.42721997  0.76959118  0.08050193  1
  N  N66  1  0.22317573  0.86400231  0.88829312  1
  N  N67  1  0.10918734  0.76437616  0.63884370  1
  N  N68  1  0.88411411  0.87490804  0.30847991  1
  N  N69  1  0.77513349  0.76100531  0.05437288  1
  N  N70  1  0.58110373  0.85972149  0.83542150  1
  N  N71  1  0.44953283  0.76151790  0.58351267  1
