# generated using pymatgen
data_Al11BN12
_symmetry_space_group_name_H-M   'P 1'
_cell_length_a   9.25981033
_cell_length_b   9.25939699
_cell_length_c   9.89631439
_cell_angle_alpha   90.00327319
_cell_angle_beta   90.11580877
_cell_angle_gamma   59.98662960
_symmetry_Int_Tables_number   1
_chemical_formula_structural   Al11BN12
_chemical_formula_sum   'Al33 B3 N36'
_cell_volume   734.73246951
_cell_formula_units_Z   3
loop_
 _symmetry_equiv_pos_site_id
 _symmetry_equiv_pos_as_xyz
  1  'x, y, z'
loop_
 _atom_site_type_symbol
 _atom_site_label
 _atom_site_symmetry_multiplicity
 _atom_site_fract_x
 _atom_site_fract_y
 _atom_site_fract_z
 _atom_site_occupancy
  Al  Al0  1  0.11100832  0.09215745  0.39368123  1
  Al  Al1  1  0.22364477  0.20062583  0.15077571  1
  Al  Al2  1  0.88906884  0.20058466  0.65487024  1
  Al  Al3  1  0.44636462  0.09335643  0.40162475  1
  Al  Al4  1  0.55745677  0.20441035  0.14632503  1
  Al  Al5  1  0.11086533  0.08673399  0.90581571  1
  Al  Al6  1  0.22119343  0.20461809  0.65087477  1
  Al  Al7  1  0.77896544  0.09215467  0.39912517  1
  Al  Al8  1  0.89091834  0.19917270  0.14420954  1
  Al  Al9  1  0.45498506  0.08898151  0.90117475  1
  Al  Al10  1  0.56249633  0.20169976  0.65521195  1
  Al  Al11  1  0.10996591  0.42862376  0.40058750  1
  Al  Al12  1  0.22407871  0.54293700  0.15114427  1
  Al  Al13  1  0.77622716  0.42875981  0.90047834  1
  Al  Al14  1  0.88696108  0.54472407  0.65526968  1
  Al  Al15  1  0.44581441  0.42579114  0.40152949  1
  Al  Al16  1  0.55099084  0.54224300  0.15191581  1
  Al  Al17  1  0.10768947  0.43368488  0.90159862  1
  Al  Al18  1  0.22179423  0.54054851  0.65041544  1
  Al  Al19  1  0.77981091  0.42639942  0.40066358  1
  Al  Al20  1  0.88729966  0.54163659  0.14521587  1
  Al  Al21  1  0.45037966  0.42406302  0.90116111  1
  Al  Al22  1  0.55572174  0.54003669  0.65031117  1
  Al  Al23  1  0.10921914  0.76406032  0.39313942  1
  Al  Al24  1  0.88605206  0.87380918  0.65922803  1
  Al  Al25  1  0.44300087  0.76292069  0.39423524  1
  Al  Al26  1  0.55174453  0.87312092  0.14606645  1
  Al  Al27  1  0.10869022  0.76667182  0.90467886  1
  Al  Al28  1  0.22254090  0.87204886  0.64866932  1
  Al  Al29  1  0.77856731  0.76244454  0.39884905  1
  Al  Al30  1  0.89012910  0.87464569  0.13712996  1
  Al  Al31  1  0.44446033  0.76169814  0.90559920  1
  Al  Al32  1  0.56103374  0.86838754  0.65487309  1
  B  B33  1  0.77258763  0.09258529  0.90759846  1
  B  B34  1  0.22217832  0.87193923  0.15409526  1
  B  B35  1  0.77209903  0.76642352  0.90775866  1
  N  N36  1  0.22311545  0.20535863  0.34241802  1
  N  N37  1  0.12407769  0.06861724  0.09910006  1
  N  N38  1  0.87959254  0.19037749  0.85030868  1
  N  N39  1  0.77999614  0.09134899  0.58930763  1
  N  N40  1  0.55724892  0.20418453  0.33878773  1
  N  N41  1  0.44406426  0.09520817  0.09037603  1
  N  N42  1  0.22088755  0.20458101  0.84433674  1
  N  N43  1  0.11022470  0.09352501  0.58767398  1
  N  N44  1  0.88713464  0.20474684  0.33651475  1
  N  N45  1  0.77553670  0.09553958  0.06966512  1
  N  N46  1  0.58165059  0.19240545  0.84902361  1
  N  N47  1  0.44665034  0.09308977  0.59634551  1
  N  N48  1  0.22291920  0.53860224  0.34240816  1
  N  N49  1  0.11207890  0.42798752  0.09243102  1
  N  N50  1  0.87685369  0.56537223  0.84918030  1
  N  N51  1  0.78123001  0.42581651  0.59567319  1
  N  N52  1  0.55644013  0.53786179  0.34298143  1
  N  N53  1  0.44505337  0.42756494  0.09135436  1
  N  N54  1  0.22338931  0.54058938  0.84305624  1
  N  N55  1  0.10957693  0.42864211  0.59368555  1
  N  N56  1  0.88769518  0.54076535  0.33796875  1
  N  N57  1  0.77694814  0.42766238  0.09093495  1
  N  N58  1  0.55489603  0.54108508  0.84198374  1
  N  N59  1  0.44626813  0.42501672  0.59420538  1
  N  N60  1  0.22245220  0.87171183  0.32066100  1
  N  N61  1  0.12452344  0.77353773  0.09763074  1
  N  N62  1  0.86928863  0.88217162  0.85661206  1
  N  N63  1  0.77915868  0.76284676  0.58935890  1
  N  N64  1  0.55728260  0.87213228  0.33759383  1
  N  N65  1  0.41971693  0.77310335  0.09890760  1
  N  N66  1  0.22483091  0.87065903  0.83777030  1
  N  N67  1  0.10818859  0.76383958  0.58873269  1
  N  N68  1  0.88655783  0.87332846  0.33053379  1
  N  N69  1  0.77543827  0.76231416  0.07079572  1
  N  N70  1  0.57990973  0.85810307  0.85079281  1
  N  N71  1  0.44461009  0.76290020  0.58814921  1
