# generated using pymatgen
data_Al11BN12
_symmetry_space_group_name_H-M   'P 1'
_cell_length_a   9.29971285
_cell_length_b   9.34079738
_cell_length_c   10.04096221
_cell_angle_alpha   90.12159512
_cell_angle_beta   89.99184306
_cell_angle_gamma   60.04579085
_symmetry_Int_Tables_number   1
_chemical_formula_structural   Al11BN12
_chemical_formula_sum   'Al33 B3 N36'
_cell_volume   755.71538785
_cell_formula_units_Z   3
loop_
 _symmetry_equiv_pos_site_id
 _symmetry_equiv_pos_as_xyz
  1  'x, y, z'
loop_
 _atom_site_type_symbol
 _atom_site_label
 _atom_site_symmetry_multiplicity
 _atom_site_fract_x
 _atom_site_fract_y
 _atom_site_fract_z
 _atom_site_occupancy
  Al  Al0  1  0.11435497  0.08810906  0.31699117  1
  Al  Al1  1  0.21875584  0.20316506  0.06876196  1
  Al  Al2  1  0.89594833  0.20539931  0.57075840  1
  Al  Al3  1  0.44246226  0.09577216  0.31849326  1
  Al  Al4  1  0.55325453  0.20996772  0.10407065  1
  Al  Al5  1  0.10783934  0.08931418  0.82700734  1
  Al  Al6  1  0.22694789  0.20101296  0.57147414  1
  Al  Al7  1  0.78014130  0.08651043  0.38718985  1
  Al  Al8  1  0.89450289  0.20351652  0.06748990  1
  Al  Al9  1  0.45041951  0.09897494  0.83234139  1
  Al  Al10  1  0.55986486  0.20612761  0.61063946  1
  Al  Al11  1  0.10982389  0.42798741  0.32208661  1
  Al  Al12  1  0.22198072  0.54168756  0.07134972  1
  Al  Al13  1  0.77908976  0.41646028  0.81966609  1
  Al  Al14  1  0.89366785  0.53155022  0.57653752  1
  Al  Al15  1  0.44294980  0.43100685  0.32431129  1
  Al  Al16  1  0.55093923  0.54235420  0.07139170  1
  Al  Al17  1  0.11260183  0.42182147  0.81941301  1
  Al  Al18  1  0.21795322  0.54455423  0.57560607  1
  Al  Al19  1  0.77929244  0.42764953  0.32015089  1
  Al  Al20  1  0.88984535  0.53572081  0.05492273  1
  Al  Al21  1  0.44802784  0.42844117  0.82553543  1
  Al  Al22  1  0.55489866  0.54236511  0.57327933  1
  Al  Al23  1  0.11883591  0.76027427  0.31589393  1
  Al  Al24  1  0.87753399  0.87963660  0.65526453  1
  Al  Al25  1  0.43725158  0.75913791  0.31798789  1
  Al  Al26  1  0.55324180  0.87017030  0.12670672  1
  Al  Al27  1  0.10897099  0.76175173  0.84157688  1
  Al  Al28  1  0.22165464  0.87111510  0.57859847  1
  Al  Al29  1  0.77721078  0.76457774  0.39010094  1
  Al  Al30  1  0.88957308  0.87690869  0.12789717  1
  Al  Al31  1  0.44735494  0.75825355  0.83835119  1
  Al  Al32  1  0.56884639  0.86475622  0.64760182  1
  B  B33  1  0.76872008  0.09877415  0.90535383  1
  B  B34  1  0.22324362  0.87003306  0.06673821  1
  B  B35  1  0.74846197  0.82236548  0.90895131  1
  N  N36  1  0.22341429  0.20214436  0.38009716  1
  N  N37  1  0.12203864  0.06993747  0.12426840  1
  N  N38  1  0.87818283  0.18818998  0.87565284  1
  N  N39  1  0.78327693  0.08668586  0.57880660  1
  N  N40  1  0.55700633  0.20534159  0.35037469  1
  N  N41  1  0.43750543  0.09953873  0.12329301  1
  N  N42  1  0.22638550  0.19838739  0.88109500  1
  N  N43  1  0.11421433  0.09229118  0.63639044  1
  N  N44  1  0.89439787  0.20554222  0.37618639  1
  N  N45  1  0.77586081  0.09164436  0.06717024  1
  N  N46  1  0.57867880  0.19962875  0.86398809  1
  N  N47  1  0.44502804  0.09489778  0.63611114  1
  N  N48  1  0.21909035  0.54337199  0.38335788  1
  N  N49  1  0.10743285  0.43123663  0.13164029  1
  N  N50  1  0.89923906  0.51200443  0.87375794  1
  N  N51  1  0.77668196  0.42485848  0.63006205  1
  N  N52  1  0.55489467  0.54146976  0.38243710  1
  N  N53  1  0.44039397  0.43513860  0.13331892  1
  N  N54  1  0.22320142  0.53407179  0.88375730  1
  N  N55  1  0.11664593  0.42345437  0.62991420  1
  N  N56  1  0.89203191  0.53254064  0.38324575  1
  N  N57  1  0.77668762  0.43023768  0.13008815  1
  N  N58  1  0.55849014  0.53668776  0.88476121  1
  N  N59  1  0.44216254  0.43323251  0.63329344  1
  N  N60  1  0.22163767  0.87123024  0.38851273  1
  N  N61  1  0.12767761  0.77199448  0.11963022  1
  N  N62  1  0.85595592  0.89297917  0.85120335  1
  N  N63  1  0.78014389  0.76528841  0.58057778  1
  N  N64  1  0.56322821  0.86355303  0.32245361  1
  N  N65  1  0.41578411  0.77178223  0.12105624  1
  N  N66  1  0.22321637  0.87183354  0.90496797  1
  N  N67  1  0.11131887  0.76277152  0.64795176  1
  N  N68  1  0.88552951  0.87109811  0.31806038  1
  N  N69  1  0.77225317  0.77507861  0.05585854  1
  N  N70  1  0.58419533  0.86414897  0.84739212  1
  N  N71  1  0.44250152  0.76054383  0.64361426  1
