# generated using pymatgen
data_Al11BN12
_symmetry_space_group_name_H-M   'P 1'
_cell_length_a   9.28800705
_cell_length_b   9.31310755
_cell_length_c   10.08248922
_cell_angle_alpha   90.04880484
_cell_angle_beta   90.06144468
_cell_angle_gamma   59.99843593
_symmetry_Int_Tables_number   1
_chemical_formula_structural   Al11BN12
_chemical_formula_sum   'Al33 B3 N36'
_cell_volume   755.28077284
_cell_formula_units_Z   3
loop_
 _symmetry_equiv_pos_site_id
 _symmetry_equiv_pos_as_xyz
  1  'x, y, z'
loop_
 _atom_site_type_symbol
 _atom_site_label
 _atom_site_symmetry_multiplicity
 _atom_site_fract_x
 _atom_site_fract_y
 _atom_site_fract_z
 _atom_site_occupancy
  Al  Al0  1  0.11348656  0.08839794  0.31721054  1
  Al  Al1  1  0.21748755  0.20371514  0.06876745  1
  Al  Al2  1  0.89600650  0.20537330  0.57124560  1
  Al  Al3  1  0.44114080  0.09392600  0.31787863  1
  Al  Al4  1  0.55874673  0.20706863  0.13188722  1
  Al  Al5  1  0.10755938  0.08963457  0.82571911  1
  Al  Al6  1  0.22886663  0.20080460  0.57273191  1
  Al  Al7  1  0.77843782  0.08700348  0.38945386  1
  Al  Al8  1  0.89332787  0.20220492  0.06535188  1
  Al  Al9  1  0.44880452  0.09596872  0.83752921  1
  Al  Al10  1  0.56951523  0.20085032  0.64412864  1
  Al  Al11  1  0.11029893  0.42785248  0.32167250  1
  Al  Al12  1  0.22208195  0.54200635  0.07102690  1
  Al  Al13  1  0.77870716  0.42291391  0.82009357  1
  Al  Al14  1  0.89374203  0.53175596  0.57362103  1
  Al  Al15  1  0.44202250  0.43347256  0.32418217  1
  Al  Al16  1  0.55049256  0.54275576  0.07113743  1
  Al  Al17  1  0.10865245  0.42830979  0.81927384  1
  Al  Al18  1  0.22033949  0.54261697  0.57556737  1
  Al  Al19  1  0.77959269  0.42692794  0.31943283  1
  Al  Al20  1  0.88943487  0.53717111  0.05883852  1
  Al  Al21  1  0.44660937  0.43161122  0.82665280  1
  Al  Al22  1  0.55516218  0.54116094  0.57349804  1
  Al  Al23  1  0.11786086  0.76096033  0.31494505  1
  Al  Al24  1  0.87935493  0.87674346  0.65403138  1
  Al  Al25  1  0.43697856  0.75903484  0.31712286  1
  Al  Al26  1  0.55308238  0.87024329  0.12462926  1
  Al  Al27  1  0.10844668  0.76290381  0.84032449  1
  Al  Al28  1  0.22222562  0.87056310  0.57753810  1
  Al  Al29  1  0.77655409  0.76550116  0.38884298  1
  Al  Al30  1  0.88752858  0.87800460  0.12585997  1
  Al  Al31  1  0.44616410  0.75856743  0.83703249  1
  Al  Al32  1  0.56860255  0.86467193  0.64881827  1
  B  B33  1  0.76684888  0.09727874  0.90219212  1
  B  B34  1  0.22258396  0.87019372  0.06712655  1
  B  B35  1  0.75900165  0.80006413  0.90555212  1
  N  N36  1  0.22396803  0.20217165  0.38096942  1
  N  N37  1  0.12043985  0.07029859  0.12487884  1
  N  N38  1  0.87909897  0.19175512  0.87493509  1
  N  N39  1  0.78195885  0.08654691  0.57795292  1
  N  N40  1  0.56232058  0.20240762  0.32889846  1
  N  N41  1  0.43693588  0.09974126  0.11934352  1
  N  N42  1  0.21999720  0.20415233  0.88161750  1
  N  N43  1  0.11477746  0.09190911  0.63606212  1
  N  N44  1  0.89403615  0.20559466  0.37764107  1
  N  N45  1  0.76997023  0.09362601  0.06102028  1
  N  N46  1  0.58472648  0.19561759  0.84319638  1
  N  N47  1  0.44492030  0.09468262  0.63862906  1
  N  N48  1  0.21954573  0.54276842  0.38361298  1
  N  N49  1  0.10765770  0.43102802  0.13189177  1
  N  N50  1  0.88908777  0.53624936  0.87363945  1
  N  N51  1  0.77774001  0.42565828  0.63126280  1
  N  N52  1  0.55582182  0.54078605  0.38294586  1
  N  N53  1  0.43965085  0.43677065  0.13243532  1
  N  N54  1  0.22326107  0.53515852  0.88432981  1
  N  N55  1  0.11532029  0.42460918  0.63058878  1
  N  N56  1  0.89220284  0.53249131  0.38178332  1
  N  N57  1  0.77737947  0.42871098  0.12947056  1
  N  N58  1  0.55891148  0.53717497  0.88559128  1
  N  N59  1  0.44333656  0.43202389  0.63409057  1
  N  N60  1  0.22168832  0.87090858  0.38809185  1
  N  N61  1  0.12640623  0.77285913  0.11958024  1
  N  N62  1  0.85946811  0.88714252  0.84970164  1
  N  N63  1  0.77911143  0.76545388  0.57869228  1
  N  N64  1  0.56297542  0.86321425  0.32092283  1
  N  N65  1  0.41503282  0.77199151  0.12138901  1
  N  N66  1  0.22279073  0.87267887  0.90508885  1
  N  N67  1  0.11291898  0.76152859  0.64687399  1
  N  N68  1  0.88454068  0.87261753  0.31672786  1
  N  N69  1  0.77251853  0.77318146  0.05837051  1
  N  N70  1  0.58411499  0.86068138  0.84804956  1
  N  N71  1  0.44245149  0.75964112  0.64303902  1
