# generated using pymatgen
data_Al11BN12
_symmetry_space_group_name_H-M   'P 1'
_cell_length_a   9.28825847
_cell_length_b   9.26359915
_cell_length_c   10.07844596
_cell_angle_alpha   89.95411142
_cell_angle_beta   90.02844736
_cell_angle_gamma   59.99501217
_symmetry_Int_Tables_number   1
_chemical_formula_structural   Al11BN12
_chemical_formula_sum   'Al33 B3 N36'
_cell_volume   750.95869062
_cell_formula_units_Z   3
loop_
 _symmetry_equiv_pos_site_id
 _symmetry_equiv_pos_as_xyz
  1  'x, y, z'
loop_
 _atom_site_type_symbol
 _atom_site_label
 _atom_site_symmetry_multiplicity
 _atom_site_fract_x
 _atom_site_fract_y
 _atom_site_fract_z
 _atom_site_occupancy
  Al  Al0  1  0.10578811  0.10138561  0.38848688  1
  Al  Al1  1  0.22320532  0.19933897  0.13873502  1
  Al  Al2  1  0.88691411  0.20254621  0.64345394  1
  Al  Al3  1  0.44635376  0.09157131  0.38745790  1
  Al  Al4  1  0.56069923  0.19948376  0.13330057  1
  Al  Al5  1  0.10818904  0.09158035  0.89363351  1
  Al  Al6  1  0.22138538  0.20607779  0.63981370  1
  Al  Al7  1  0.78020255  0.08976047  0.38495296  1
  Al  Al8  1  0.89276309  0.19786372  0.13254692  1
  Al  Al9  1  0.45581981  0.08997223  0.88864680  1
  Al  Al10  1  0.56472447  0.19625849  0.63799991  1
  Al  Al11  1  0.10697946  0.42756988  0.38696437  1
  Al  Al12  1  0.22794342  0.54323435  0.06814597  1
  Al  Al13  1  0.78412332  0.42344983  0.88806795  1
  Al  Al14  1  0.88690701  0.54390399  0.64212669  1
  Al  Al15  1  0.44167395  0.43283529  0.31998066  1
  Al  Al16  1  0.54724129  0.54507247  0.06847823  1
  Al  Al17  1  0.10533850  0.42823889  0.88886901  1
  Al  Al18  1  0.22148185  0.54595188  0.57233279  1
  Al  Al19  1  0.78230777  0.42581204  0.38681428  1
  Al  Al20  1  0.88815522  0.54068290  0.13330875  1
  Al  Al21  1  0.44909646  0.42700708  0.82108994  1
  Al  Al22  1  0.54927537  0.54443510  0.57171964  1
  Al  Al23  1  0.11577798  0.76478452  0.30847810  1
  Al  Al24  1  0.87881927  0.87699605  0.64858315  1
  Al  Al25  1  0.43404932  0.76387439  0.31310462  1
  Al  Al26  1  0.55462168  0.87478652  0.12702586  1
  Al  Al27  1  0.11027733  0.76132114  0.83316691  1
  Al  Al28  1  0.22204772  0.86873591  0.57339174  1
  Al  Al29  1  0.77799057  0.76344108  0.38318219  1
  Al  Al30  1  0.88744571  0.87601037  0.11478906  1
  Al  Al31  1  0.44830385  0.75759812  0.82836654  1
  Al  Al32  1  0.56417510  0.87201975  0.64222918  1
  B  B33  1  0.77059254  0.09202931  0.89315491  1
  B  B34  1  0.22708890  0.86598156  0.06025093  1
  B  B35  1  0.77136148  0.77086771  0.89388151  1
  N  N36  1  0.22312668  0.20508824  0.32792219  1
  N  N37  1  0.12165552  0.07351317  0.08354452  1
  N  N38  1  0.88050458  0.18780805  0.83441291  1
  N  N39  1  0.78154044  0.09030613  0.57319817  1
  N  N40  1  0.55981989  0.19851213  0.32626875  1
  N  N41  1  0.44296099  0.09718442  0.07450897  1
  N  N42  1  0.22410173  0.20138932  0.82922495  1
  N  N43  1  0.10562539  0.10188786  0.58146849  1
  N  N44  1  0.88666813  0.20477434  0.32275952  1
  N  N45  1  0.77466266  0.09791257  0.05322491  1
  N  N46  1  0.58458717  0.18801433  0.83314809  1
  N  N47  1  0.44550513  0.09292461  0.57902432  1
  N  N48  1  0.22083597  0.54720459  0.37873626  1
  N  N49  1  0.11008601  0.42424385  0.08050397  1
  N  N50  1  0.87842429  0.56305576  0.83274139  1
  N  N51  1  0.78280941  0.42532023  0.58254028  1
  N  N52  1  0.54919240  0.54544138  0.37978901  1
  N  N53  1  0.44365924  0.43223625  0.13029720  1
  N  N54  1  0.22883140  0.53573228  0.87943291  1
  N  N55  1  0.10701012  0.42728922  0.58018577  1
  N  N56  1  0.88709049  0.54136667  0.32306134  1
  N  N57  1  0.78414565  0.42334448  0.07903441  1
  N  N58  1  0.55450818  0.53809441  0.88003541  1
  N  N59  1  0.44286118  0.42962870  0.63067922  1
  N  N60  1  0.22179037  0.86896936  0.38418238  1
  N  N61  1  0.12740285  0.77362554  0.11535110  1
  N  N62  1  0.86426997  0.88331919  0.84512732  1
  N  N63  1  0.77937652  0.76270922  0.57257167  1
  N  N64  1  0.55850132  0.87250291  0.31975293  1
  N  N65  1  0.41658041  0.77393535  0.11955631  1
  N  N66  1  0.23150166  0.85968475  0.89865831  1
  N  N67  1  0.11158679  0.76300551  0.64223843  1
  N  N68  1  0.88272406  0.87461676  0.31018796  1
  N  N69  1  0.77640511  0.76041643  0.05421574  1
  N  N70  1  0.58442339  0.86104526  0.83694802  1
  N  N71  1  0.44013937  0.76316205  0.63793524  1
