# generated using pymatgen
data_Al11BN12
_symmetry_space_group_name_H-M   'P 1'
_cell_length_a   9.29058458
_cell_length_b   9.26397864
_cell_length_c   10.08804196
_cell_angle_alpha   90.12325396
_cell_angle_beta   90.17654958
_cell_angle_gamma   59.97609254
_symmetry_Int_Tables_number   1
_chemical_formula_structural   Al11BN12
_chemical_formula_sum   'Al33 B3 N36'
_cell_volume   751.74622073
_cell_formula_units_Z   3
loop_
 _symmetry_equiv_pos_site_id
 _symmetry_equiv_pos_as_xyz
  1  'x, y, z'
loop_
 _atom_site_type_symbol
 _atom_site_label
 _atom_site_symmetry_multiplicity
 _atom_site_fract_x
 _atom_site_fract_y
 _atom_site_fract_z
 _atom_site_occupancy
  Al  Al0  1  0.11291768  0.08946688  0.31605828  1
  Al  Al1  1  0.21506576  0.20578229  0.06950365  1
  Al  Al2  1  0.89323252  0.20481541  0.57613581  1
  Al  Al3  1  0.45267525  0.08752690  0.39021335  1
  Al  Al4  1  0.55798820  0.20150538  0.13825301  1
  Al  Al5  1  0.10866591  0.09088918  0.82637372  1
  Al  Al6  1  0.21871503  0.20476173  0.57300010  1
  Al  Al7  1  0.78011244  0.08648773  0.38947745  1
  Al  Al8  1  0.89211446  0.20192162  0.06298836  1
  Al  Al9  1  0.45914495  0.08958838  0.89150777  1
  Al  Al10  1  0.56609681  0.19541285  0.64331949  1
  Al  Al11  1  0.11126315  0.42679041  0.32029182  1
  Al  Al12  1  0.22469951  0.54179923  0.07054900  1
  Al  Al13  1  0.77653977  0.42965521  0.82144920  1
  Al  Al14  1  0.89202484  0.53246863  0.57082108  1
  Al  Al15  1  0.44214328  0.43233512  0.32430512  1
  Al  Al16  1  0.54965338  0.54384101  0.07140630  1
  Al  Al17  1  0.10667432  0.43418093  0.81937747  1
  Al  Al18  1  0.22037943  0.54209648  0.57452193  1
  Al  Al19  1  0.77942776  0.42579227  0.31820539  1
  Al  Al20  1  0.88842199  0.54014999  0.06369066  1
  Al  Al21  1  0.44801758  0.42905556  0.82459188  1
  Al  Al22  1  0.55461288  0.54036995  0.57310419  1
  Al  Al23  1  0.11800265  0.76104412  0.31360853  1
  Al  Al24  1  0.88004425  0.87472679  0.65413537  1
  Al  Al25  1  0.43637152  0.76057669  0.31783885  1
  Al  Al26  1  0.55120987  0.87722629  0.13256878  1
  Al  Al27  1  0.10986473  0.76422807  0.83957667  1
  Al  Al28  1  0.22148916  0.86996177  0.57632404  1
  Al  Al29  1  0.77771586  0.76526636  0.38711380  1
  Al  Al30  1  0.88720910  0.87749284  0.12307685  1
  Al  Al31  1  0.44538189  0.76002459  0.83380561  1
  Al  Al32  1  0.56600601  0.86862274  0.64727132  1
  B  B33  1  0.76734556  0.09089883  0.89944695  1
  B  B34  1  0.22378882  0.87103738  0.06731605  1
  B  B35  1  0.76845987  0.77715459  0.90095003  1
  N  N36  1  0.21946921  0.20426995  0.37892079  1
  N  N37  1  0.12026145  0.07128751  0.12379686  1
  N  N38  1  0.87977596  0.19544375  0.87327700  1
  N  N39  1  0.78054905  0.08570306  0.57813649  1
  N  N40  1  0.56114471  0.19822086  0.32886340  1
  N  N41  1  0.44502885  0.09693874  0.07934413  1
  N  N42  1  0.21664483  0.20944932  0.87817394  1
  N  N43  1  0.11351924  0.09095769  0.63745679  1
  N  N44  1  0.89369373  0.20539881  0.37847328  1
  N  N45  1  0.76771636  0.09464346  0.05896616  1
  N  N46  1  0.58415980  0.19008466  0.83681496  1
  N  N47  1  0.45214768  0.08819573  0.58350840  1
  N  N48  1  0.21983171  0.54202597  0.38315439  1
  N  N49  1  0.10846960  0.43195231  0.13086721  1
  N  N50  1  0.88023993  0.55951321  0.87413234  1
  N  N51  1  0.77699877  0.42769487  0.63314524  1
  N  N52  1  0.55642170  0.54027522  0.38261833  1
  N  N53  1  0.44167007  0.43425387  0.13354387  1
  N  N54  1  0.22551158  0.53557381  0.88410522  1
  N  N55  1  0.11230446  0.42692046  0.63128999  1
  N  N56  1  0.89206584  0.53224036  0.37915369  1
  N  N57  1  0.77790144  0.42849429  0.12778967  1
  N  N58  1  0.55764078  0.53797095  0.88557625  1
  N  N59  1  0.44339593  0.42935095  0.63284050  1
  N  N60  1  0.22117817  0.87146426  0.38752974  1
  N  N61  1  0.12706936  0.77325259  0.11893513  1
  N  N62  1  0.86334754  0.88519485  0.84942814  1
  N  N63  1  0.77848726  0.76523016  0.57712729  1
  N  N64  1  0.55997045  0.86981623  0.32276704  1
  N  N65  1  0.41567624  0.77390640  0.12329452  1
  N  N66  1  0.22448648  0.87347777  0.90524424  1
  N  N67  1  0.11336496  0.76062741  0.64597039  1
  N  N68  1  0.88524940  0.87235126  0.31487314  1
  N  N69  1  0.76891283  0.77373868  0.06051783  1
  N  N70  1  0.58392037  0.86116390  0.84051732  1
  N  N71  1  0.44110655  0.76003573  0.64092024  1
