# generated using pymatgen
data_Al11BN12
_symmetry_space_group_name_H-M   'P 1'
_cell_length_a   9.28256683
_cell_length_b   9.25742055
_cell_length_c   10.14900483
_cell_angle_alpha   89.69758052
_cell_angle_beta   90.01892542
_cell_angle_gamma   59.98002714
_symmetry_Int_Tables_number   1
_chemical_formula_structural   Al11BN12
_chemical_formula_sum   'Al33 B3 N36'
_cell_volume   755.12025759
_cell_formula_units_Z   3
loop_
 _symmetry_equiv_pos_site_id
 _symmetry_equiv_pos_as_xyz
  1  'x, y, z'
loop_
 _atom_site_type_symbol
 _atom_site_label
 _atom_site_symmetry_multiplicity
 _atom_site_fract_x
 _atom_site_fract_y
 _atom_site_fract_z
 _atom_site_occupancy
  Al  Al0  1  0.10563768  0.10070534  0.38582713  1
  Al  Al1  1  0.22430159  0.19787226  0.13636136  1
  Al  Al2  1  0.89067197  0.19261075  0.64586271  1
  Al  Al3  1  0.44671313  0.08976311  0.38918683  1
  Al  Al4  1  0.55939242  0.20196967  0.13485940  1
  Al  Al5  1  0.10729882  0.09332679  0.89534095  1
  Al  Al6  1  0.22711395  0.19652762  0.64189980  1
  Al  Al7  1  0.78112212  0.08794259  0.38648357  1
  Al  Al8  1  0.89194686  0.19810751  0.12882635  1
  Al  Al9  1  0.45545140  0.09153610  0.89039887  1
  Al  Al10  1  0.56477789  0.19597028  0.63980098  1
  Al  Al11  1  0.10823419  0.43380875  0.31840711  1
  Al  Al12  1  0.22443112  0.54305984  0.06859182  1
  Al  Al13  1  0.77466454  0.43385817  0.82394698  1
  Al  Al14  1  0.89424013  0.52708205  0.57023117  1
  Al  Al15  1  0.44239803  0.43110974  0.32277153  1
  Al  Al16  1  0.54848825  0.54590644  0.06928231  1
  Al  Al17  1  0.10539758  0.43792322  0.81962056  1
  Al  Al18  1  0.22028296  0.54200002  0.57192542  1
  Al  Al19  1  0.77436744  0.43246041  0.31546189  1
  Al  Al20  1  0.88810657  0.54260170  0.06005969  1
  Al  Al21  1  0.44838028  0.42850442  0.82240059  1
  Al  Al22  1  0.55625014  0.53923035  0.57202137  1
  Al  Al23  1  0.11728527  0.76266568  0.31023631  1
  Al  Al24  1  0.87968335  0.87267970  0.65055434  1
  Al  Al25  1  0.43475798  0.76167009  0.31483767  1
  Al  Al26  1  0.55205513  0.87782127  0.13082218  1
  Al  Al27  1  0.11000388  0.76257015  0.83470565  1
  Al  Al28  1  0.22370369  0.86613690  0.57405562  1
  Al  Al29  1  0.77731202  0.76421812  0.38610081  1
  Al  Al30  1  0.88685876  0.88000898  0.11958374  1
  Al  Al31  1  0.44727118  0.75895720  0.83014246  1
  Al  Al32  1  0.56741396  0.86818348  0.64491875  1
  B  B33  1  0.77091198  0.09631083  0.89408293  1
  B  B34  1  0.22716575  0.86524614  0.06187178  1
  B  B35  1  0.76627000  0.78494136  0.89867633  1
  N  N36  1  0.22731435  0.19822411  0.32629699  1
  N  N37  1  0.11930093  0.07793254  0.08248218  1
  N  N38  1  0.88057026  0.18319809  0.83767642  1
  N  N39  1  0.78172319  0.08767804  0.57388825  1
  N  N40  1  0.56052855  0.19651961  0.32695386  1
  N  N41  1  0.44209310  0.10011213  0.07480289  1
  N  N42  1  0.22733143  0.19638712  0.83219568  1
  N  N43  1  0.10575228  0.10104515  0.58063677  1
  N  N44  1  0.88911828  0.19677940  0.31944287  1
  N  N45  1  0.77261038  0.10167230  0.05355180  1
  N  N46  1  0.58414892  0.18971848  0.83386263  1
  N  N47  1  0.44780072  0.09019463  0.57947077  1
  N  N48  1  0.21987758  0.54240120  0.38213782  1
  N  N49  1  0.10486480  0.43958771  0.12863918  1
  N  N50  1  0.88222208  0.55552455  0.87373611  1
  N  N51  1  0.77601112  0.42803730  0.63533113  1
  N  N52  1  0.55563139  0.54001827  0.38266010  1
  N  N53  1  0.44146317  0.43533245  0.13297584  1
  N  N54  1  0.22659571  0.53425859  0.88345977  1
  N  N55  1  0.11158650  0.43091433  0.63104637  1
  N  N56  1  0.89295173  0.52817418  0.38135053  1
  N  N57  1  0.77261648  0.43996555  0.12589228  1
  N  N58  1  0.55732837  0.53721504  0.88491627  1
  N  N59  1  0.44283596  0.43010655  0.63159279  1
  N  N60  1  0.22337298  0.86578789  0.38619514  1
  N  N61  1  0.12708599  0.77517720  0.11747365  1
  N  N62  1  0.86360765  0.88317388  0.84581361  1
  N  N63  1  0.77908344  0.76317910  0.57461190  1
  N  N64  1  0.56003151  0.86943347  0.32093707  1
  N  N65  1  0.41468839  0.77589977  0.12166837  1
  N  N66  1  0.23129052  0.85965242  0.90126387  1
  N  N67  1  0.11290062  0.76119190  0.64399027  1
  N  N68  1  0.88423235  0.87110501  0.31220232  1
  N  N69  1  0.76792988  0.77813147  0.05627931  1
  N  N70  1  0.58430289  0.86251771  0.83769029  1
  N  N71  1  0.44169118  0.76057117  0.63970929  1
