# generated using pymatgen
data_Al11BN12
_symmetry_space_group_name_H-M   'P 1'
_cell_length_a   9.30562504
_cell_length_b   9.28357103
_cell_length_c   10.09643936
_cell_angle_alpha   89.78917827
_cell_angle_beta   90.01868651
_cell_angle_gamma   59.97789065
_symmetry_Int_Tables_number   1
_chemical_formula_structural   Al11BN12
_chemical_formula_sum   'Al33 B3 N36'
_cell_volume   755.19375089
_cell_formula_units_Z   3
loop_
 _symmetry_equiv_pos_site_id
 _symmetry_equiv_pos_as_xyz
  1  'x, y, z'
loop_
 _atom_site_type_symbol
 _atom_site_label
 _atom_site_symmetry_multiplicity
 _atom_site_fract_x
 _atom_site_fract_y
 _atom_site_fract_z
 _atom_site_occupancy
  Al  Al0  1  0.11383355  0.08484289  0.32150562  1
  Al  Al1  1  0.22687117  0.20221327  0.12765243  1
  Al  Al2  1  0.88770705  0.19355443  0.64828288  1
  Al  Al3  1  0.44548243  0.09013277  0.38957393  1
  Al  Al4  1  0.55978933  0.20148866  0.13645863  1
  Al  Al5  1  0.10921392  0.09011431  0.86329889  1
  Al  Al6  1  0.22874560  0.19708701  0.64559353  1
  Al  Al7  1  0.78155549  0.08821097  0.38675789  1
  Al  Al8  1  0.88671654  0.20165702  0.11989198  1
  Al  Al9  1  0.45790590  0.09133516  0.89121516  1
  Al  Al10  1  0.56478524  0.19574294  0.63954618  1
  Al  Al11  1  0.10807335  0.43287498  0.31856882  1
  Al  Al12  1  0.22483197  0.54410527  0.06894281  1
  Al  Al13  1  0.77278706  0.43596923  0.82527488  1
  Al  Al14  1  0.89425568  0.52688361  0.57076095  1
  Al  Al15  1  0.44271581  0.43035644  0.32365162  1
  Al  Al16  1  0.54745758  0.54661959  0.06964078  1
  Al  Al17  1  0.10511992  0.44055810  0.82129770  1
  Al  Al18  1  0.22041092  0.54155935  0.57276530  1
  Al  Al19  1  0.77513177  0.43166672  0.31524438  1
  Al  Al20  1  0.88761922  0.54380825  0.06003860  1
  Al  Al21  1  0.44804642  0.42877860  0.82249111  1
  Al  Al22  1  0.55616130  0.53899453  0.57269503  1
  Al  Al23  1  0.11687762  0.76045172  0.31200453  1
  Al  Al24  1  0.88048487  0.87200628  0.65037595  1
  Al  Al25  1  0.43695335  0.75969205  0.31671783  1
  Al  Al26  1  0.55244471  0.87701599  0.13146689  1
  Al  Al27  1  0.10986828  0.76366259  0.83490856  1
  Al  Al28  1  0.22072325  0.87156561  0.57589964  1
  Al  Al29  1  0.77718383  0.76435935  0.38640761  1
  Al  Al30  1  0.88717309  0.87944194  0.11987675  1
  Al  Al31  1  0.44615375  0.76005030  0.83020254  1
  Al  Al32  1  0.56708889  0.86759338  0.64451599  1
  B  B33  1  0.76837001  0.09891946  0.89566344  1
  B  B34  1  0.22600878  0.86789660  0.06410357  1
  B  B35  1  0.76664298  0.78415891  0.89854870  1
  N  N36  1  0.22829812  0.19928792  0.32406582  1
  N  N37  1  0.12299907  0.07103420  0.10269378  1
  N  N38  1  0.87326478  0.18887737  0.84444484  1
  N  N39  1  0.78198060  0.08742719  0.57458453  1
  N  N40  1  0.56029166  0.19644879  0.32870193  1
  N  N41  1  0.44594138  0.09797964  0.07572929  1
  N  N42  1  0.22972915  0.20336559  0.84133026  1
  N  N43  1  0.11238772  0.08812441  0.63136812  1
  N  N44  1  0.88533634  0.19827243  0.31645864  1
  N  N45  1  0.77089231  0.10010767  0.05436524  1
  N  N46  1  0.58375028  0.19049194  0.83418134  1
  N  N47  1  0.44750538  0.09007792  0.58051579  1
  N  N48  1  0.22012376  0.54149889  0.38214009  1
  N  N49  1  0.10460331  0.44092672  0.12720665  1
  N  N50  1  0.88102801  0.55771902  0.87297094  1
  N  N51  1  0.77619319  0.42747862  0.63525436  1
  N  N52  1  0.55605431  0.53920271  0.38250930  1
  N  N53  1  0.44195015  0.43447796  0.13293258  1
  N  N54  1  0.22657886  0.53683789  0.88329051  1
  N  N55  1  0.11174397  0.43003113  0.63126771  1
  N  N56  1  0.89241494  0.52895110  0.38041581  1
  N  N57  1  0.77216868  0.44092887  0.12401098  1
  N  N58  1  0.55517699  0.53917499  0.88457930  1
  N  N59  1  0.44318065  0.42924976  0.63104299  1
  N  N60  1  0.22162082  0.86889375  0.38608334  1
  N  N61  1  0.12726153  0.77456289  0.11861320  1
  N  N62  1  0.86382943  0.88300633  0.84599861  1
  N  N63  1  0.77921077  0.76280884  0.57528766  1
  N  N64  1  0.55966818  0.86943538  0.32239420  1
  N  N65  1  0.41544628  0.77497443  0.12284056  1
  N  N66  1  0.22921109  0.86399926  0.90408512  1
  N  N67  1  0.11338490  0.75985354  0.64279482  1
  N  N68  1  0.88437599  0.87109457  0.31333885  1
  N  N69  1  0.76809722  0.77788897  0.05722350  1
  N  N70  1  0.58380017  0.86275572  0.83804289  1
  N  N71  1  0.44216750  0.75949016  0.63843063  1
