# generated using pymatgen
data_Al11BN12
_symmetry_space_group_name_H-M   'P 1'
_cell_length_a   9.28810672
_cell_length_b   9.26301544
_cell_length_c   10.10732263
_cell_angle_alpha   89.93759191
_cell_angle_beta   89.95887281
_cell_angle_gamma   60.08072809
_symmetry_Int_Tables_number   1
_chemical_formula_structural   Al11BN12
_chemical_formula_sum   'Al33 B3 N36'
_cell_volume   753.70047696
_cell_formula_units_Z   3
loop_
 _symmetry_equiv_pos_site_id
 _symmetry_equiv_pos_as_xyz
  1  'x, y, z'
loop_
 _atom_site_type_symbol
 _atom_site_label
 _atom_site_symmetry_multiplicity
 _atom_site_fract_x
 _atom_site_fract_y
 _atom_site_fract_z
 _atom_site_occupancy
  Al  Al0  1  0.10518938  0.10193719  0.38947131  1
  Al  Al1  1  0.22728190  0.19243240  0.13684376  1
  Al  Al2  1  0.88678020  0.20271264  0.64400621  1
  Al  Al3  1  0.44642268  0.09162148  0.38797480  1
  Al  Al4  1  0.56119156  0.20010010  0.13364833  1
  Al  Al5  1  0.10887401  0.09101182  0.89478509  1
  Al  Al6  1  0.22490123  0.19899517  0.64001152  1
  Al  Al7  1  0.78016430  0.08993207  0.38506154  1
  Al  Al8  1  0.89283144  0.19777098  0.13273145  1
  Al  Al9  1  0.45707353  0.08911356  0.88947532  1
  Al  Al10  1  0.56467658  0.19679310  0.63823346  1
  Al  Al11  1  0.11250115  0.43255677  0.31750472  1
  Al  Al12  1  0.22650883  0.54033638  0.06696749  1
  Al  Al13  1  0.78465057  0.42385432  0.88837788  1
  Al  Al14  1  0.87872225  0.54841133  0.64126885  1
  Al  Al15  1  0.44191087  0.43296816  0.32047140  1
  Al  Al16  1  0.54666148  0.54527449  0.06814963  1
  Al  Al17  1  0.11059644  0.43386873  0.82561910  1
  Al  Al18  1  0.21753292  0.54208698  0.57116649  1
  Al  Al19  1  0.78202219  0.42621079  0.38687446  1
  Al  Al20  1  0.88300769  0.54442767  0.12895010  1
  Al  Al21  1  0.44955104  0.42714463  0.82096822  1
  Al  Al22  1  0.54751429  0.54463051  0.57154550  1
  Al  Al23  1  0.11576058  0.76486006  0.30876512  1
  Al  Al24  1  0.87938697  0.87729852  0.64879722  1
  Al  Al25  1  0.43379317  0.76422658  0.31344717  1
  Al  Al26  1  0.55521318  0.87472041  0.12818669  1
  Al  Al27  1  0.11034777  0.76180932  0.83339779  1
  Al  Al28  1  0.22175215  0.86738350  0.57324351  1
  Al  Al29  1  0.77739059  0.76383430  0.38325173  1
  Al  Al30  1  0.88815379  0.87592720  0.11477177  1
  Al  Al31  1  0.44816676  0.75783803  0.82822900  1
  Al  Al32  1  0.56370100  0.87271489  0.64262835  1
  B  B33  1  0.77119821  0.09148098  0.89301948  1
  B  B34  1  0.22742987  0.86408234  0.06058063  1
  B  B35  1  0.77078975  0.76920779  0.89341446  1
  N  N36  1  0.22572783  0.19964767  0.32881062  1
  N  N37  1  0.12113569  0.07269490  0.08356766  1
  N  N38  1  0.88157356  0.18832757  0.83436718  1
  N  N39  1  0.78152649  0.09056566  0.57312220  1
  N  N40  1  0.55982483  0.19881490  0.32631934  1
  N  N41  1  0.44522409  0.09617909  0.07451796  1
  N  N42  1  0.22850304  0.19451416  0.83202546  1
  N  N43  1  0.10499342  0.10133902  0.58102518  1
  N  N44  1  0.88653327  0.20518691  0.32258744  1
  N  N45  1  0.77507736  0.09777575  0.05313777  1
  N  N46  1  0.58502273  0.18824114  0.83304544  1
  N  N47  1  0.44639776  0.09262042  0.57852605  1
  N  N48  1  0.21843546  0.54459391  0.38095759  1
  N  N49  1  0.11544057  0.42962252  0.12290280  1
  N  N50  1  0.87212299  0.56879381  0.83508454  1
  N  N51  1  0.78166540  0.42530060  0.58217597  1
  N  N52  1  0.54804784  0.54592184  0.38050557  1
  N  N53  1  0.44331643  0.43291036  0.13079359  1
  N  N54  1  0.22800317  0.53444207  0.88213419  1
  N  N55  1  0.11030206  0.43110088  0.63096219  1
  N  N56  1  0.88019463  0.54493756  0.32231420  1
  N  N57  1  0.78458392  0.42244960  0.07770023  1
  N  N58  1  0.55436782  0.53834939  0.88019551  1
  N  N59  1  0.44117204  0.43008483  0.63059564  1
  N  N60  1  0.22141953  0.86847194  0.38469262  1
  N  N61  1  0.12844602  0.77209172  0.11572968  1
  N  N62  1  0.86459175  0.88445273  0.84476125  1
  N  N63  1  0.77840169  0.76444417  0.57196895  1
  N  N64  1  0.55815853  0.87306487  0.32006487  1
  N  N65  1  0.41689058  0.77390953  0.12014515  1
  N  N66  1  0.23191266  0.85855845  0.89949481  1
  N  N67  1  0.11215521  0.76135412  0.64223307  1
  N  N68  1  0.88285857  0.87461774  0.31005394  1
  N  N69  1  0.77543328  0.76219292  0.05350301  1
  N  N70  1  0.58407901  0.86146010  0.83648690  1
  N  N71  1  0.43978044  0.76346482  0.63805672  1
