# generated using pymatgen
data_Al11BN12
_symmetry_space_group_name_H-M   'P 1'
_cell_length_a   9.25553904
_cell_length_b   9.32500516
_cell_length_c   9.92687792
_cell_angle_alpha   90.19392891
_cell_angle_beta   89.83477084
_cell_angle_gamma   60.06760475
_symmetry_Int_Tables_number   1
_chemical_formula_structural   Al11BN12
_chemical_formula_sum   'Al33 B3 N36'
_cell_volume   742.47362194
_cell_formula_units_Z   3
loop_
 _symmetry_equiv_pos_site_id
 _symmetry_equiv_pos_as_xyz
  1  'x, y, z'
loop_
 _atom_site_type_symbol
 _atom_site_label
 _atom_site_symmetry_multiplicity
 _atom_site_fract_x
 _atom_site_fract_y
 _atom_site_fract_z
 _atom_site_occupancy
  Al  Al0  1  0.11242218  0.08821887  0.30699492  1
  Al  Al1  1  0.22444552  0.19891330  0.05957146  1
  Al  Al2  1  0.88951224  0.20654643  0.56309370  1
  Al  Al3  1  0.44702026  0.09326530  0.30938046  1
  Al  Al4  1  0.56229246  0.20424201  0.05714485  1
  Al  Al5  1  0.10946790  0.08964132  0.81437739  1
  Al  Al6  1  0.22191069  0.20533158  0.56119836  1
  Al  Al7  1  0.78139724  0.08819125  0.30932622  1
  Al  Al8  1  0.88928482  0.19761571  0.05703044  1
  Al  Al9  1  0.46073543  0.08601200  0.80985587  1
  Al  Al10  1  0.55401262  0.20775155  0.56259058  1
  Al  Al11  1  0.11058117  0.42771242  0.31134364  1
  Al  Al12  1  0.22712479  0.53741614  0.06329151  1
  Al  Al13  1  0.77241429  0.43672195  0.80840082  1
  Al  Al14  1  0.88706954  0.54359422  0.56273864  1
  Al  Al15  1  0.44588639  0.42645960  0.31247563  1
  Al  Al16  1  0.55045181  0.54279793  0.06131932  1
  Al  Al17  1  0.10935598  0.42970503  0.81083065  1
  Al  Al18  1  0.21579747  0.54685216  0.56129329  1
  Al  Al19  1  0.77895709  0.42605364  0.31052497  1
  Al  Al20  1  0.88748209  0.53991027  0.06037731  1
  Al  Al21  1  0.44670076  0.42999651  0.80703751  1
  Al  Al22  1  0.55296282  0.54410460  0.55900846  1
  Al  Al23  1  0.11012572  0.76510876  0.30566057  1
  Al  Al24  1  0.88096977  0.87634835  0.64873605  1
  Al  Al25  1  0.43878005  0.76479903  0.30663280  1
  Al  Al26  1  0.55649849  0.86985837  0.06000505  1
  Al  Al27  1  0.11856081  0.75155609  0.83017830  1
  Al  Al28  1  0.21819233  0.87266719  0.56317661  1
  Al  Al29  1  0.78043105  0.76156894  0.31393014  1
  Al  Al30  1  0.88921333  0.86870945  0.05839781  1
  Al  Al31  1  0.44770231  0.76333649  0.81570968  1
  Al  Al32  1  0.55607296  0.87146309  0.56227620  1
  B  B33  1  0.74893979  0.15464214  0.79854689  1
  B  B34  1  0.22354917  0.87105460  0.05592748  1
  B  B35  1  0.78004759  0.75144333  0.82262310  1
  N  N36  1  0.22175113  0.20377764  0.36741488  1
  N  N37  1  0.12144915  0.06991562  0.11036234  1
  N  N38  1  0.87043077  0.20252889  0.86187346  1
  N  N39  1  0.76937973  0.11180507  0.64898389  1
  N  N40  1  0.55801760  0.20455773  0.37243840  1
  N  N41  1  0.44820343  0.09411655  0.11501761  1
  N  N42  1  0.22555262  0.20224932  0.86819798  1
  N  N43  1  0.11084288  0.09382369  0.62386556  1
  N  N44  1  0.88875060  0.20409219  0.37118424  1
  N  N45  1  0.77943901  0.09067277  0.11741883  1
  N  N46  1  0.58091365  0.20191282  0.86183402  1
  N  N47  1  0.44575226  0.09437421  0.62042279  1
  N  N48  1  0.22080466  0.54186006  0.36827790  1
  N  N49  1  0.11172472  0.42527615  0.11879525  1
  N  N50  1  0.87771021  0.55585135  0.86694224  1
  N  N51  1  0.77611391  0.42994163  0.61875192  1
  N  N52  1  0.55420486  0.54253379  0.36684276  1
  N  N53  1  0.44854762  0.42357025  0.12112433  1
  N  N54  1  0.23138343  0.52670818  0.87393545  1
  N  N55  1  0.11085739  0.42847445  0.61990214  1
  N  N56  1  0.88803856  0.53849206  0.37151715  1
  N  N57  1  0.77970185  0.42324310  0.11699523  1
  N  N58  1  0.55311569  0.54206633  0.87073585  1
  N  N59  1  0.44182403  0.43165032  0.61715915  1
  N  N60  1  0.22114116  0.87194254  0.37356812  1
  N  N61  1  0.12616346  0.77081469  0.10652307  1
  N  N62  1  0.88504831  0.83792810  0.85979142  1
  N  N63  1  0.77190784  0.75824372  0.63707655  1
  N  N64  1  0.55376333  0.87195105  0.36944893  1
  N  N65  1  0.42003331  0.77467263  0.11168292  1
  N  N66  1  0.22344093  0.87303240  0.89185019  1
  N  N67  1  0.11327397  0.76286020  0.63674851  1
  N  N68  1  0.89114351  0.87130358  0.35770371  1
  N  N69  1  0.77685769  0.75724019  0.12268560  1
  N  N70  1  0.58361773  0.85772192  0.86786279  1
  N  N71  1  0.44055344  0.76453134  0.62420550  1
