# generated using pymatgen
data_Al11BN12
_symmetry_space_group_name_H-M   'P 1'
_cell_length_a   9.30587887
_cell_length_b   9.28638536
_cell_length_c   9.99634818
_cell_angle_alpha   89.89188461
_cell_angle_beta   89.77341127
_cell_angle_gamma   59.94588332
_symmetry_Int_Tables_number   1
_chemical_formula_structural   Al11BN12
_chemical_formula_sum   'Al33 B3 N36'
_cell_volume   747.71418312
_cell_formula_units_Z   3
loop_
 _symmetry_equiv_pos_site_id
 _symmetry_equiv_pos_as_xyz
  1  'x, y, z'
loop_
 _atom_site_type_symbol
 _atom_site_label
 _atom_site_symmetry_multiplicity
 _atom_site_fract_x
 _atom_site_fract_y
 _atom_site_fract_z
 _atom_site_occupancy
  Al  Al0  1  0.10441732  0.10269538  0.38626239  1
  Al  Al1  1  0.22358370  0.19834594  0.13726082  1
  Al  Al2  1  0.88546169  0.20327779  0.64133151  1
  Al  Al3  1  0.44539830  0.09448518  0.38757658  1
  Al  Al4  1  0.55852116  0.20264138  0.13404094  1
  Al  Al5  1  0.10566375  0.09324620  0.88947475  1
  Al  Al6  1  0.22108811  0.20634162  0.63860294  1
  Al  Al7  1  0.78072904  0.08992854  0.38351276  1
  Al  Al8  1  0.89275711  0.19748860  0.13032813  1
  Al  Al9  1  0.45463209  0.08983707  0.88776020  1
  Al  Al10  1  0.56055853  0.20357069  0.63946663  1
  Al  Al11  1  0.10547109  0.42872139  0.38394052  1
  Al  Al12  1  0.22358793  0.54441523  0.06846884  1
  Al  Al13  1  0.77903036  0.42615857  0.88736890  1
  Al  Al14  1  0.88487058  0.54542729  0.64018882  1
  Al  Al15  1  0.44999371  0.42505190  0.38525006  1
  Al  Al16  1  0.55314149  0.54039146  0.13472004  1
  Al  Al17  1  0.10425439  0.42854105  0.88572085  1
  Al  Al18  1  0.21600691  0.54862876  0.57328142  1
  Al  Al19  1  0.77714109  0.42866265  0.38702933  1
  Al  Al20  1  0.88685444  0.54086203  0.13148137  1
  Al  Al21  1  0.45952830  0.41654772  0.88665874  1
  Al  Al22  1  0.55518346  0.54010128  0.63983789  1
  Al  Al23  1  0.11825719  0.76428105  0.30521519  1
  Al  Al24  1  0.87576929  0.87931629  0.64698518  1
  Al  Al25  1  0.44570167  0.76328164  0.37023994  1
  Al  Al26  1  0.55254493  0.87371131  0.12857356  1
  Al  Al27  1  0.10982102  0.75927402  0.82880011  1
  Al  Al28  1  0.21886903  0.87076605  0.57254383  1
  Al  Al29  1  0.77952952  0.76418692  0.38273145  1
  Al  Al30  1  0.88760807  0.87586633  0.11314315  1
  Al  Al31  1  0.45524978  0.75587187  0.88528327  1
  Al  Al32  1  0.56052570  0.87083655  0.64241483  1
  B  B33  1  0.77183416  0.09102306  0.89276353  1
  B  B34  1  0.22429867  0.86719319  0.05354076  1
  B  B35  1  0.77173188  0.77053914  0.89352995  1
  N  N36  1  0.22280823  0.20555758  0.32764606  1
  N  N37  1  0.12230635  0.07255643  0.08142328  1
  N  N38  1  0.87843097  0.18890999  0.83390113  1
  N  N39  1  0.77926413  0.09203073  0.57296651  1
  N  N40  1  0.55776443  0.20379221  0.32458918  1
  N  N41  1  0.44390740  0.09626166  0.07559160  1
  N  N42  1  0.22330000  0.20148254  0.82903728  1
  N  N43  1  0.10444076  0.10315637  0.58122600  1
  N  N44  1  0.88577592  0.20649495  0.32204643  1
  N  N45  1  0.77528940  0.09672274  0.05331282  1
  N  N46  1  0.58292688  0.18963597  0.83251280  1
  N  N47  1  0.44573571  0.09467811  0.58076549  1
  N  N48  1  0.21774988  0.54796892  0.37193219  1
  N  N49  1  0.10907190  0.42368058  0.07963773  1
  N  N50  1  0.87711908  0.56352227  0.83251087  1
  N  N51  1  0.77820313  0.42782389  0.57999775  1
  N  N52  1  0.55643484  0.53900874  0.32491908  1
  N  N53  1  0.45295672  0.42219579  0.07857977  1
  N  N54  1  0.22658577  0.53513313  0.87191829  1
  N  N55  1  0.10535855  0.42770758  0.57952410  1
  N  N56  1  0.88503621  0.54222615  0.32271677  1
  N  N57  1  0.77942463  0.42559389  0.07608090  1
  N  N58  1  0.56012884  0.53491414  0.82905155  1
  N  N59  1  0.44947099  0.42505071  0.58015977  1
  N  N60  1  0.21789818  0.87215174  0.37939206  1
  N  N61  1  0.12964335  0.77313348  0.11212187  1
  N  N62  1  0.86305592  0.88332644  0.84433974  1
  N  N63  1  0.77834684  0.76428398  0.57276835  1
  N  N64  1  0.55764422  0.87411432  0.32022469  1
  N  N65  1  0.42699461  0.76971228  0.08221241  1
  N  N66  1  0.22329774  0.86343049  0.88973136  1
  N  N67  1  0.10896245  0.76489799  0.63841869  1
  N  N68  1  0.88349940  0.87511905  0.30896943  1
  N  N69  1  0.77629447  0.76067026  0.05451780  1
  N  N70  1  0.58216621  0.86016918  0.83676217  1
  N  N71  1  0.44712638  0.76311439  0.59222816  1
