# generated using pymatgen
data_Al11BN12
_symmetry_space_group_name_H-M   'P 1'
_cell_length_a   9.30751015
_cell_length_b   9.29738714
_cell_length_c   10.01762798
_cell_angle_alpha   89.89613859
_cell_angle_beta   89.86824930
_cell_angle_gamma   59.97033225
_symmetry_Int_Tables_number   1
_chemical_formula_structural   Al11BN12
_chemical_formula_sum   'Al33 B3 N36'
_cell_volume   750.51396727
_cell_formula_units_Z   3
loop_
 _symmetry_equiv_pos_site_id
 _symmetry_equiv_pos_as_xyz
  1  'x, y, z'
loop_
 _atom_site_type_symbol
 _atom_site_label
 _atom_site_symmetry_multiplicity
 _atom_site_fract_x
 _atom_site_fract_y
 _atom_site_fract_z
 _atom_site_occupancy
  Al  Al0  1  0.10558846  0.10176763  0.38771921  1
  Al  Al1  1  0.22269479  0.19943115  0.13834706  1
  Al  Al2  1  0.88797937  0.20098570  0.64295775  1
  Al  Al3  1  0.44647868  0.09203374  0.38654467  1
  Al  Al4  1  0.56088163  0.19777417  0.13140567  1
  Al  Al5  1  0.10690334  0.09245993  0.89273457  1
  Al  Al6  1  0.22145078  0.20627474  0.63900912  1
  Al  Al7  1  0.77984869  0.09050932  0.38420019  1
  Al  Al8  1  0.89268571  0.19778758  0.13294071  1
  Al  Al9  1  0.45503610  0.08999003  0.88849143  1
  Al  Al10  1  0.56500964  0.19555891  0.63872888  1
  Al  Al11  1  0.10684795  0.42780903  0.38585595  1
  Al  Al12  1  0.22542982  0.54409350  0.06779601  1
  Al  Al13  1  0.78393470  0.42334351  0.88751669  1
  Al  Al14  1  0.88814091  0.54453593  0.64159809  1
  Al  Al15  1  0.44222960  0.43219348  0.31682674  1
  Al  Al16  1  0.54969348  0.54363471  0.07757130  1
  Al  Al17  1  0.10403025  0.42848601  0.88831827  1
  Al  Al18  1  0.22283677  0.54538647  0.57125013  1
  Al  Al19  1  0.77718986  0.42865395  0.38660991  1
  Al  Al20  1  0.88778266  0.54044981  0.13378596  1
  Al  Al21  1  0.44733785  0.42383030  0.82735364  1
  Al  Al22  1  0.55433701  0.54160832  0.60326306  1
  Al  Al23  1  0.11657443  0.76478566  0.30914020  1
  Al  Al24  1  0.87933884  0.87678344  0.64714521  1
  Al  Al25  1  0.43447274  0.76480894  0.31170837  1
  Al  Al26  1  0.55484021  0.87533198  0.12565170  1
  Al  Al27  1  0.10966846  0.76151267  0.83190473  1
  Al  Al28  1  0.22319409  0.86846440  0.57273004  1
  Al  Al29  1  0.77754680  0.76352877  0.38256336  1
  Al  Al30  1  0.88841585  0.87547274  0.11539219  1
  Al  Al31  1  0.44710223  0.76137586  0.83464265  1
  Al  Al32  1  0.56436205  0.87283700  0.64297661  1
  B  B33  1  0.77129958  0.09099050  0.89367176  1
  B  B34  1  0.22592758  0.86705691  0.05889690  1
  B  B35  1  0.77198053  0.77120914  0.89447507  1
  N  N36  1  0.22317775  0.20531319  0.32826435  1
  N  N37  1  0.12108211  0.07400728  0.08363160  1
  N  N38  1  0.88003912  0.18768601  0.83433865  1
  N  N39  1  0.78140869  0.09043514  0.57338357  1
  N  N40  1  0.55987287  0.19854909  0.32505899  1
  N  N41  1  0.44226886  0.09690025  0.07456157  1
  N  N42  1  0.22372590  0.20167876  0.82936719  1
  N  N43  1  0.10632263  0.10148807  0.58174901  1
  N  N44  1  0.88649981  0.20563535  0.32387053  1
  N  N45  1  0.77592283  0.09660018  0.05380142  1
  N  N46  1  0.58496114  0.18651118  0.83467327  1
  N  N47  1  0.44601194  0.09294301  0.57942764  1
  N  N48  1  0.22170881  0.54634240  0.37685390  1
  N  N49  1  0.10927124  0.42402219  0.08084133  1
  N  N50  1  0.87806188  0.56320083  0.83268610  1
  N  N51  1  0.78282105  0.42547656  0.58404293  1
  N  N52  1  0.55259976  0.54386361  0.35933020  1
  N  N53  1  0.44262847  0.42871673  0.12325760  1
  N  N54  1  0.22541577  0.53722105  0.87847128  1
  N  N55  1  0.10780210  0.42732908  0.58007902  1
  N  N56  1  0.88681849  0.54133472  0.32421588  1
  N  N57  1  0.78484039  0.42267839  0.07791568  1
  N  N58  1  0.55610937  0.53718467  0.87174320  1
  N  N59  1  0.44193254  0.42761967  0.63326395  1
  N  N60  1  0.22232694  0.86971252  0.38299952  1
  N  N61  1  0.12797439  0.77350864  0.11516526  1
  N  N62  1  0.86452932  0.88307881  0.84476018  1
  N  N63  1  0.77920678  0.76294694  0.57285040  1
  N  N64  1  0.55828135  0.87358534  0.31908323  1
  N  N65  1  0.41622002  0.77615985  0.11459351  1
  N  N66  1  0.22837223  0.86141007  0.89750531  1
  N  N67  1  0.11200516  0.76279538  0.64001637  1
  N  N68  1  0.88346135  0.87448904  0.31127052  1
  N  N69  1  0.77750633  0.76010222  0.05494577  1
  N  N70  1  0.58494556  0.86164625  0.83857037  1
  N  N71  1  0.43883149  0.76681540  0.64074824  1
