# generated using pymatgen
data_Al11BN12
_symmetry_space_group_name_H-M   'P 1'
_cell_length_a   9.29855320
_cell_length_b   9.27235397
_cell_length_c   10.07118299
_cell_angle_alpha   90.05041803
_cell_angle_beta   90.09277096
_cell_angle_gamma   60.03268302
_symmetry_Int_Tables_number   1
_chemical_formula_structural   Al11BN12
_chemical_formula_sum   'Al33 B3 N36'
_cell_volume   752.24422941
_cell_formula_units_Z   3
loop_
 _symmetry_equiv_pos_site_id
 _symmetry_equiv_pos_as_xyz
  1  'x, y, z'
loop_
 _atom_site_type_symbol
 _atom_site_label
 _atom_site_symmetry_multiplicity
 _atom_site_fract_x
 _atom_site_fract_y
 _atom_site_fract_z
 _atom_site_occupancy
  Al  Al0  1  0.11638701  0.08676151  0.31287027  1
  Al  Al1  1  0.21740068  0.20657780  0.06892459  1
  Al  Al2  1  0.88520075  0.19733860  0.64531152  1
  Al  Al3  1  0.45236932  0.08721025  0.38983099  1
  Al  Al4  1  0.55988683  0.20122669  0.13814399  1
  Al  Al5  1  0.11486709  0.08759712  0.83385589  1
  Al  Al6  1  0.21657454  0.20438471  0.57277504  1
  Al  Al7  1  0.78353492  0.09002811  0.38777930  1
  Al  Al8  1  0.89047972  0.20068141  0.10474420  1
  Al  Al9  1  0.46063577  0.08930722  0.89100062  1
  Al  Al10  1  0.56383115  0.19554702  0.64099827  1
  Al  Al11  1  0.11085219  0.42641707  0.32043496  1
  Al  Al12  1  0.22506643  0.54220815  0.07088166  1
  Al  Al13  1  0.77331254  0.43708310  0.82737778  1
  Al  Al14  1  0.89187041  0.53021022  0.57043346  1
  Al  Al15  1  0.44243758  0.43139477  0.32462183  1
  Al  Al16  1  0.54777646  0.54583556  0.07054893  1
  Al  Al17  1  0.10720738  0.43445232  0.81873430  1
  Al  Al18  1  0.22007189  0.54197207  0.57386933  1
  Al  Al19  1  0.77704824  0.42888289  0.31448656  1
  Al  Al20  1  0.88919873  0.54312314  0.06268053  1
  Al  Al21  1  0.44761598  0.42864379  0.82378823  1
  Al  Al22  1  0.55537153  0.53949082  0.57299636  1
  Al  Al23  1  0.11696375  0.76133228  0.31382213  1
  Al  Al24  1  0.88004043  0.87260356  0.65233232  1
  Al  Al25  1  0.43628933  0.76024167  0.31796453  1
  Al  Al26  1  0.55168083  0.87717477  0.13239872  1
  Al  Al27  1  0.10943988  0.76390672  0.83898997  1
  Al  Al28  1  0.22065463  0.87082626  0.57636643  1
  Al  Al29  1  0.77749672  0.76487280  0.38669558  1
  Al  Al30  1  0.88719659  0.87912767  0.12283900  1
  Al  Al31  1  0.44525126  0.75998138  0.83249220  1
  Al  Al32  1  0.56563274  0.86829153  0.64644665  1
  B  B33  1  0.76916240  0.09361365  0.89664722  1
  B  B34  1  0.22594476  0.87076545  0.06643874  1
  B  B35  1  0.76882195  0.77931311  0.90021129  1
  N  N36  1  0.21824744  0.20370113  0.37887877  1
  N  N37  1  0.12872132  0.06764580  0.11833848  1
  N  N38  1  0.87625563  0.19039393  0.84971609  1
  N  N39  1  0.78207572  0.08751737  0.57681787  1
  N  N40  1  0.56110233  0.19757384  0.32990514  1
  N  N41  1  0.44718503  0.09685479  0.07915919  1
  N  N42  1  0.21838045  0.21049640  0.87841823  1
  N  N43  1  0.11607055  0.08913038  0.64119529  1
  N  N44  1  0.88764575  0.19958508  0.32271716  1
  N  N45  1  0.77058578  0.09751369  0.05505887  1
  N  N46  1  0.58383346  0.19018344  0.83504793  1
  N  N47  1  0.45104446  0.08777246  0.58299959  1
  N  N48  1  0.21958856  0.54178178  0.38261953  1
  N  N49  1  0.10863160  0.43204703  0.13082668  1
  N  N50  1  0.88140321  0.56129242  0.87369858  1
  N  N51  1  0.77570962  0.42929409  0.63614895  1
  N  N52  1  0.55660389  0.53984715  0.38252474  1
  N  N53  1  0.44230968  0.43395649  0.13348724  1
  N  N54  1  0.22553760  0.53567008  0.88392670  1
  N  N55  1  0.11208504  0.42654844  0.63060731  1
  N  N56  1  0.89157900  0.53085546  0.37911009  1
  N  N57  1  0.77395147  0.43822489  0.12182764  1
  N  N58  1  0.55485488  0.53923964  0.88517308  1
  N  N59  1  0.44297016  0.42917835  0.63179714  1
  N  N60  1  0.22072378  0.87165431  0.38748773  1
  N  N61  1  0.12713433  0.77381686  0.11902462  1
  N  N62  1  0.86312566  0.88471077  0.84774180  1
  N  N63  1  0.77819895  0.76400723  0.57659323  1
  N  N64  1  0.55968251  0.86941359  0.32283682  1
  N  N65  1  0.41617468  0.77383606  0.12325499  1
  N  N66  1  0.22634336  0.87036843  0.90506924  1
  N  N67  1  0.11294963  0.76047060  0.64510771  1
  N  N68  1  0.88453170  0.87210168  0.31556791  1
  N  N69  1  0.76913864  0.77622368  0.05994865  1
  N  N70  1  0.58387801  0.86108788  0.84002419  1
  N  N71  1  0.44098216  0.75965279  0.63986120  1
