# generated using pymatgen
data_Al11BN12
_symmetry_space_group_name_H-M   'P 1'
_cell_length_a   9.29819916
_cell_length_b   9.28264393
_cell_length_c   9.94482818
_cell_angle_alpha   89.70577227
_cell_angle_beta   89.66973013
_cell_angle_gamma   60.02124097
_symmetry_Int_Tables_number   1
_chemical_formula_structural   Al11BN12
_chemical_formula_sum   'Al33 B3 N36'
_cell_volume   743.50292435
_cell_formula_units_Z   3
loop_
 _symmetry_equiv_pos_site_id
 _symmetry_equiv_pos_as_xyz
  1  'x, y, z'
loop_
 _atom_site_type_symbol
 _atom_site_label
 _atom_site_symmetry_multiplicity
 _atom_site_fract_x
 _atom_site_fract_y
 _atom_site_fract_z
 _atom_site_occupancy
  Al  Al0  1  0.10787489  0.09628022  0.40181713  1
  Al  Al1  1  0.22450143  0.19692053  0.14730748  1
  Al  Al2  1  0.88550335  0.20328734  0.65274685  1
  Al  Al3  1  0.44537797  0.09219658  0.39733743  1
  Al  Al4  1  0.55910555  0.20179905  0.14459174  1
  Al  Al5  1  0.11081266  0.08729446  0.89229058  1
  Al  Al6  1  0.22084433  0.20754789  0.64968228  1
  Al  Al7  1  0.78145555  0.08949944  0.39351333  1
  Al  Al8  1  0.89163952  0.19746221  0.13924509  1
  Al  Al9  1  0.45430532  0.09067465  0.89759850  1
  Al  Al10  1  0.56048427  0.20326443  0.64951443  1
  Al  Al11  1  0.10884105  0.42794379  0.39063547  1
  Al  Al12  1  0.22680970  0.53910276  0.11603614  1
  Al  Al13  1  0.77729286  0.42870764  0.89697365  1
  Al  Al14  1  0.88573748  0.54545863  0.64929068  1
  Al  Al15  1  0.44672430  0.42581355  0.39213785  1
  Al  Al16  1  0.55124929  0.54264230  0.14814147  1
  Al  Al17  1  0.10532629  0.43288796  0.89884365  1
  Al  Al18  1  0.22046934  0.53950716  0.61885726  1
  Al  Al19  1  0.77923140  0.42591414  0.39637160  1
  Al  Al20  1  0.88572037  0.54109936  0.14225017  1
  Al  Al21  1  0.45587141  0.42061001  0.89908796  1
  Al  Al22  1  0.55760900  0.53829446  0.64880896  1
  Al  Al23  1  0.11661072  0.76649874  0.32537787  1
  Al  Al24  1  0.87416952  0.87920846  0.65524920  1
  Al  Al25  1  0.44724705  0.76035307  0.40188523  1
  Al  Al26  1  0.54991774  0.87361737  0.14191296  1
  Al  Al27  1  0.10885804  0.76343740  0.83744966  1
  Al  Al28  1  0.22248259  0.87382745  0.62228400  1
  Al  Al29  1  0.77902846  0.76280162  0.39251713  1
  Al  Al30  1  0.88645994  0.87667323  0.12331761  1
  Al  Al31  1  0.44614002  0.76159280  0.89266681  1
  Al  Al32  1  0.56189457  0.86952904  0.65281608  1
  B  B33  1  0.77108832  0.09301876  0.90290331  1
  B  B34  1  0.22373855  0.87187654  0.10369189  1
  B  B35  1  0.77028064  0.77001949  0.90347702  1
  N  N36  1  0.22257578  0.20266069  0.33755542  1
  N  N37  1  0.12703716  0.06315979  0.08876251  1
  N  N38  1  0.87782233  0.19081212  0.84654707  1
  N  N39  1  0.77845881  0.09330655  0.58353434  1
  N  N40  1  0.55878642  0.20182127  0.33540604  1
  N  N41  1  0.44429304  0.09522129  0.08661319  1
  N  N42  1  0.22212472  0.20659609  0.84126819  1
  N  N43  1  0.10382245  0.10566157  0.59348098  1
  N  N44  1  0.88929596  0.20360723  0.33119710  1
  N  N45  1  0.77454708  0.09714231  0.06407190  1
  N  N46  1  0.58160532  0.19252791  0.84335458  1
  N  N47  1  0.44552958  0.09395376  0.59202691  1
  N  N48  1  0.22339718  0.53705445  0.34047969  1
  N  N49  1  0.10864732  0.42334060  0.08997959  1
  N  N50  1  0.87725584  0.56547774  0.84292870  1
  N  N51  1  0.78012577  0.42622144  0.59056749  1
  N  N52  1  0.55686622  0.53978324  0.33766225  1
  N  N53  1  0.45368783  0.42253382  0.08928969  1
  N  N54  1  0.22769441  0.53618959  0.86787132  1
  N  N55  1  0.10740589  0.42794391  0.58563467  1
  N  N56  1  0.88606941  0.54100371  0.33339663  1
  N  N57  1  0.77738040  0.42710879  0.08676931  1
  N  N58  1  0.55787009  0.53836000  0.83897482  1
  N  N59  1  0.44740287  0.42591478  0.58720735  1
  N  N60  1  0.22109585  0.87028100  0.38937474  1
  N  N61  1  0.12939979  0.77863205  0.11883434  1
  N  N62  1  0.86245124  0.88619560  0.85473498  1
  N  N63  1  0.77743755  0.76393225  0.58264789  1
  N  N64  1  0.55648782  0.87061732  0.33260510  1
  N  N65  1  0.41560906  0.77524531  0.08886789  1
  N  N66  1  0.23043049  0.87400069  0.82898893  1
  N  N67  1  0.10181460  0.76240265  0.63883038  1
  N  N68  1  0.88361774  0.87416412  0.31931917  1
  N  N69  1  0.77417942  0.76103780  0.06563461  1
  N  N70  1  0.58098804  0.86005082  0.84741720  1
  N  N71  1  0.45510950  0.75818057  0.59335287  1
