# generated using pymatgen
data_Al11BN12
_symmetry_space_group_name_H-M   'P 1'
_cell_length_a   9.28957622
_cell_length_b   9.27312299
_cell_length_c   10.02566618
_cell_angle_alpha   89.82276714
_cell_angle_beta   89.69850926
_cell_angle_gamma   60.01516438
_symmetry_Int_Tables_number   1
_chemical_formula_structural   Al11BN12
_chemical_formula_sum   'Al33 B3 N36'
_cell_volume   748.04213701
_cell_formula_units_Z   3
loop_
 _symmetry_equiv_pos_site_id
 _symmetry_equiv_pos_as_xyz
  1  'x, y, z'
loop_
 _atom_site_type_symbol
 _atom_site_label
 _atom_site_symmetry_multiplicity
 _atom_site_fract_x
 _atom_site_fract_y
 _atom_site_fract_z
 _atom_site_occupancy
  Al  Al0  1  0.10601736  0.10137854  0.39147846  1
  Al  Al1  1  0.22319916  0.19833773  0.14267575  1
  Al  Al2  1  0.88546068  0.20332037  0.64698800  1
  Al  Al3  1  0.44600114  0.09381741  0.39313125  1
  Al  Al4  1  0.55815479  0.20291493  0.13929578  1
  Al  Al5  1  0.10459697  0.09452767  0.89417252  1
  Al  Al6  1  0.22136578  0.20672058  0.64437417  1
  Al  Al7  1  0.78172097  0.08916875  0.38869820  1
  Al  Al8  1  0.89184953  0.19823456  0.13526341  1
  Al  Al9  1  0.45430832  0.08904361  0.89393925  1
  Al  Al10  1  0.56058344  0.20304873  0.64540860  1
  Al  Al11  1  0.10619139  0.42849879  0.38864266  1
  Al  Al12  1  0.22344351  0.54463174  0.07376605  1
  Al  Al13  1  0.77692421  0.42780435  0.89303565  1
  Al  Al14  1  0.88576806  0.54486648  0.64568347  1
  Al  Al15  1  0.45102300  0.42414767  0.39080642  1
  Al  Al16  1  0.55092564  0.54324347  0.14400224  1
  Al  Al17  1  0.10373661  0.42900701  0.89179619  1
  Al  Al18  1  0.21624032  0.54852036  0.57742040  1
  Al  Al19  1  0.77885391  0.42730602  0.39230556  1
  Al  Al20  1  0.88576990  0.54141790  0.13680895  1
  Al  Al21  1  0.45933058  0.41771137  0.89243183  1
  Al  Al22  1  0.55610622  0.53898655  0.64422744  1
  Al  Al23  1  0.12074829  0.76460464  0.30923291  1
  Al  Al24  1  0.87585994  0.87905200  0.65281474  1
  Al  Al25  1  0.45095541  0.76014919  0.39291426  1
  Al  Al26  1  0.55060804  0.87307154  0.13829331  1
  Al  Al27  1  0.10941568  0.75934341  0.83461725  1
  Al  Al28  1  0.21680663  0.87126908  0.57807156  1
  Al  Al29  1  0.78127075  0.76366548  0.38816225  1
  Al  Al30  1  0.88677833  0.87589755  0.11842121  1
  Al  Al31  1  0.45544593  0.75579490  0.89517401  1
  Al  Al32  1  0.56122828  0.86996550  0.64728676  1
  B  B33  1  0.77086970  0.09160208  0.89818101  1
  B  B34  1  0.22310093  0.86844130  0.05778844  1
  B  B35  1  0.77044776  0.77043083  0.89855245  1
  N  N36  1  0.22349595  0.20534592  0.33259367  1
  N  N37  1  0.12150762  0.07320256  0.08553298  1
  N  N38  1  0.87690061  0.19043183  0.83914159  1
  N  N39  1  0.77959055  0.09163156  0.57817729  1
  N  N40  1  0.55861483  0.20313045  0.32957353  1
  N  N41  1  0.44403165  0.09506978  0.08168998  1
  N  N42  1  0.22292904  0.20252824  0.83431146  1
  N  N43  1  0.10490061  0.10299911  0.58714614  1
  N  N44  1  0.88718667  0.20561497  0.32685805  1
  N  N45  1  0.77483040  0.09683308  0.05826551  1
  N  N46  1  0.58197546  0.19024085  0.83832046  1
  N  N47  1  0.44592527  0.09392370  0.58614966  1
  N  N48  1  0.21857694  0.54810890  0.37687122  1
  N  N49  1  0.10836586  0.42385437  0.08501180  1
  N  N50  1  0.87655881  0.56409486  0.83784994  1
  N  N51  1  0.77929048  0.42716251  0.58503385  1
  N  N52  1  0.55707981  0.53965536  0.33301719  1
  N  N53  1  0.45310073  0.42324370  0.08446027  1
  N  N54  1  0.22638147  0.53554510  0.87830068  1
  N  N55  1  0.10578298  0.42738802  0.58401106  1
  N  N56  1  0.88582823  0.54191711  0.32764505  1
  N  N57  1  0.77696245  0.42709211  0.08161436  1
  N  N58  1  0.55831877  0.53755485  0.83230489  1
  N  N59  1  0.44973507  0.42427656  0.58531161  1
  N  N60  1  0.22003693  0.87112824  0.38591349  1
  N  N61  1  0.12930666  0.77381946  0.11637967  1
  N  N62  1  0.86201924  0.88367095  0.84949348  1
  N  N63  1  0.77942852  0.76353038  0.57800323  1
  N  N64  1  0.55810216  0.87231497  0.32870541  1
  N  N65  1  0.42650448  0.77002039  0.08581603  1
  N  N66  1  0.22277673  0.86474407  0.89327142  1
  N  N67  1  0.10948852  0.76369958  0.64478925  1
  N  N68  1  0.88500925  0.87463293  0.31366127  1
  N  N69  1  0.77403514  0.76139906  0.05985158  1
  N  N70  1  0.58058739  0.85976395  0.84046822  1
  N  N71  1  0.45036876  0.76069749  0.58847336  1
