# generated using pymatgen
data_Al11BN12
_symmetry_space_group_name_H-M   'P 1'
_cell_length_a   9.27598016
_cell_length_b   9.26014399
_cell_length_c   10.09346221
_cell_angle_alpha   90.03465410
_cell_angle_beta   89.68469166
_cell_angle_gamma   59.99625309
_symmetry_Int_Tables_number   1
_chemical_formula_structural   Al11BN12
_chemical_formula_sum   'Al33 B3 N36'
_cell_volume   750.79627093
_cell_formula_units_Z   3
loop_
 _symmetry_equiv_pos_site_id
 _symmetry_equiv_pos_as_xyz
  1  'x, y, z'
loop_
 _atom_site_type_symbol
 _atom_site_label
 _atom_site_symmetry_multiplicity
 _atom_site_fract_x
 _atom_site_fract_y
 _atom_site_fract_z
 _atom_site_occupancy
  Al  Al0  1  0.11418273  0.08910460  0.31946571  1
  Al  Al1  1  0.22314898  0.20083391  0.07178726  1
  Al  Al2  1  0.89319730  0.20585710  0.57658504  1
  Al  Al3  1  0.44401659  0.09421984  0.32114351  1
  Al  Al4  1  0.54998122  0.20826050  0.07162663  1
  Al  Al5  1  0.11002419  0.08968653  0.82868898  1
  Al  Al6  1  0.22195283  0.20460438  0.57373672  1
  Al  Al7  1  0.78350868  0.08503456  0.39191795  1
  Al  Al8  1  0.89723119  0.19998276  0.06838828  1
  Al  Al9  1  0.45640943  0.08857815  0.82287612  1
  Al  Al10  1  0.54901731  0.20906990  0.57374671  1
  Al  Al11  1  0.11149293  0.42738061  0.32341378  1
  Al  Al12  1  0.22635560  0.54074202  0.07270405  1
  Al  Al13  1  0.77729506  0.42756207  0.82306777  1
  Al  Al14  1  0.89139786  0.53470648  0.57608360  1
  Al  Al15  1  0.44485502  0.42759064  0.32391301  1
  Al  Al16  1  0.55213153  0.54154956  0.07235047  1
  Al  Al17  1  0.10861927  0.43261375  0.82293849  1
  Al  Al18  1  0.21678907  0.54627281  0.57710916  1
  Al  Al19  1  0.77924248  0.42671907  0.32045070  1
  Al  Al20  1  0.89302724  0.53494006  0.06795755  1
  Al  Al21  1  0.45245770  0.42227195  0.82225405  1
  Al  Al22  1  0.55477149  0.54049398  0.57293382  1
  Al  Al23  1  0.12069904  0.76012944  0.31688775  1
  Al  Al24  1  0.87142719  0.88100719  0.66190395  1
  Al  Al25  1  0.43960423  0.76328212  0.31955958  1
  Al  Al26  1  0.54575614  0.87601158  0.07179475  1
  Al  Al27  1  0.11129041  0.76320004  0.84204922  1
  Al  Al28  1  0.21754388  0.87149426  0.57833817  1
  Al  Al29  1  0.78248594  0.76412221  0.39148787  1
  Al  Al30  1  0.89105233  0.87432370  0.13103537  1
  Al  Al31  1  0.45027005  0.75990501  0.82884110  1
  Al  Al32  1  0.54799551  0.87451122  0.57417468  1
  B  B33  1  0.77347757  0.08663399  0.90962530  1
  B  B34  1  0.22540751  0.87040991  0.07002796  1
  B  B35  1  0.77302348  0.77479373  0.91030884  1
  N  N36  1  0.22190378  0.20398158  0.38270209  1
  N  N37  1  0.12446835  0.06892677  0.12689296  1
  N  N38  1  0.88096580  0.19395042  0.87840602  1
  N  N39  1  0.78039938  0.08786295  0.58337756  1
  N  N40  1  0.55010915  0.20745478  0.38142326  1
  N  N41  1  0.44318280  0.09549100  0.13294438  1
  N  N42  1  0.22377495  0.20494810  0.88323156  1
  N  N43  1  0.11275959  0.09302788  0.63903171  1
  N  N44  1  0.89413634  0.20636620  0.38025792  1
  N  N45  1  0.77974253  0.08797368  0.06964996  1
  N  N46  1  0.57455097  0.19581091  0.88066765  1
  N  N47  1  0.44326058  0.09488432  0.63527367  1
  N  N48  1  0.21983363  0.54276457  0.38497942  1
  N  N49  1  0.11240800  0.42805808  0.13350282  1
  N  N50  1  0.88110526  0.55755247  0.87826367  1
  N  N51  1  0.77641333  0.42810985  0.63466754  1
  N  N52  1  0.55553453  0.54045212  0.38197608  1
  N  N53  1  0.44619990  0.42680261  0.13534546  1
  N  N54  1  0.22757674  0.53420011  0.88606098  1
  N  N55  1  0.11212252  0.42731898  0.63428683  1
  N  N56  1  0.89203451  0.53252191  0.38226972  1
  N  N57  1  0.77963399  0.42633690  0.13050650  1
  N  N58  1  0.55705649  0.53756442  0.88505883  1
  N  N59  1  0.44239073  0.43017597  0.63365495  1
  N  N60  1  0.22091743  0.87169075  0.38966920  1
  N  N61  1  0.13164708  0.77065532  0.12269558  1
  N  N62  1  0.86072602  0.88627071  0.85573748  1
  N  N63  1  0.77934665  0.76598721  0.58332441  1
  N  N64  1  0.54919206  0.87358774  0.37954353  1
  N  N65  1  0.42146196  0.77263491  0.12707680  1
  N  N66  1  0.22736166  0.87170916  0.90695484  1
  N  N67  1  0.10902016  0.76381429  0.65002486  1
  N  N68  1  0.88628553  0.87251551  0.31918505  1
  N  N69  1  0.78028033  0.76636326  0.07094934  1
  N  N70  1  0.57482438  0.86356669  0.88210684  1
  N  N71  1  0.44098554  0.76211208  0.63902588  1
