# generated using pymatgen
data_Al11BN12
_symmetry_space_group_name_H-M   'P 1'
_cell_length_a   9.26451368
_cell_length_b   9.28313659
_cell_length_c   10.03056811
_cell_angle_alpha   90.05488989
_cell_angle_beta   89.73425658
_cell_angle_gamma   60.16859117
_symmetry_Int_Tables_number   1
_chemical_formula_structural   Al11BN12
_chemical_formula_sum   'Al33 B3 N36'
_cell_volume   748.34364358
_cell_formula_units_Z   3
loop_
 _symmetry_equiv_pos_site_id
 _symmetry_equiv_pos_as_xyz
  1  'x, y, z'
loop_
 _atom_site_type_symbol
 _atom_site_label
 _atom_site_symmetry_multiplicity
 _atom_site_fract_x
 _atom_site_fract_y
 _atom_site_fract_z
 _atom_site_occupancy
  Al  Al0  1  0.11255768  0.08825423  0.30895802  1
  Al  Al1  1  0.22329399  0.20122190  0.06086418  1
  Al  Al2  1  0.88860324  0.20264043  0.56813789  1
  Al  Al3  1  0.44535939  0.09416207  0.31012499  1
  Al  Al4  1  0.56135728  0.20459243  0.05655488  1
  Al  Al5  1  0.10950191  0.08932622  0.81654968  1
  Al  Al6  1  0.22081720  0.20490757  0.56215996  1
  Al  Al7  1  0.77670072  0.09672316  0.30986344  1
  Al  Al8  1  0.89069033  0.19804345  0.05562744  1
  Al  Al9  1  0.45612038  0.08857162  0.81084085  1
  Al  Al10  1  0.55510871  0.20599495  0.56660411  1
  Al  Al11  1  0.11145637  0.42698099  0.31146290  1
  Al  Al12  1  0.22795867  0.53887820  0.06192820  1
  Al  Al13  1  0.77518779  0.43253485  0.81113207  1
  Al  Al14  1  0.89089807  0.53423381  0.56426889  1
  Al  Al15  1  0.44677273  0.42497683  0.31342903  1
  Al  Al16  1  0.55205336  0.54200819  0.06200076  1
  Al  Al17  1  0.10819326  0.43149744  0.81185927  1
  Al  Al18  1  0.21755978  0.54502100  0.56453279  1
  Al  Al19  1  0.77981544  0.42480723  0.31083019  1
  Al  Al20  1  0.89256039  0.53429990  0.05773064  1
  Al  Al21  1  0.44825065  0.42785476  0.80950905  1
  Al  Al22  1  0.55403578  0.54146615  0.56099344  1
  Al  Al23  1  0.12169278  0.75810775  0.30597313  1
  Al  Al24  1  0.87590370  0.86928434  0.65603413  1
  Al  Al25  1  0.43997552  0.76325009  0.30701439  1
  Al  Al26  1  0.54595915  0.87719494  0.06024907  1
  Al  Al27  1  0.11165089  0.75944911  0.83202855  1
  Al  Al28  1  0.21775638  0.87136151  0.56591031  1
  Al  Al29  1  0.78328701  0.76361712  0.37915554  1
  Al  Al30  1  0.89339921  0.87237904  0.11371544  1
  Al  Al31  1  0.44951010  0.76176948  0.81749677  1
  Al  Al32  1  0.54695804  0.87531530  0.56188458  1
  B  B33  1  0.75804020  0.12768389  0.80506127  1
  B  B34  1  0.22507582  0.87035873  0.05741400  1
  B  B35  1  0.77667231  0.77276027  0.89868319  1
  N  N36  1  0.22169402  0.20351659  0.36991937  1
  N  N37  1  0.12175213  0.07063786  0.11342635  1
  N  N38  1  0.87317012  0.19527436  0.86362740  1
  N  N39  1  0.76966569  0.10545115  0.64887752  1
  N  N40  1  0.55844147  0.20251735  0.37688446  1
  N  N41  1  0.44550222  0.09768444  0.11917140  1
  N  N42  1  0.22383832  0.20406329  0.87108409  1
  N  N43  1  0.11098813  0.09274788  0.62662127  1
  N  N44  1  0.88985513  0.20161007  0.37617763  1
  N  N45  1  0.77413447  0.10263369  0.12160157  1
  N  N46  1  0.57908582  0.19854557  0.86397765  1
  N  N47  1  0.44279050  0.09515421  0.62257707  1
  N  N48  1  0.22249205  0.53966865  0.37224739  1
  N  N49  1  0.11255983  0.42782937  0.12151600  1
  N  N50  1  0.88238949  0.55122479  0.86801618  1
  N  N51  1  0.77578421  0.42780854  0.62226624  1
  N  N52  1  0.55552335  0.54058840  0.36944296  1
  N  N53  1  0.44774004  0.42444175  0.12298772  1
  N  N54  1  0.22872662  0.53167311  0.87444565  1
  N  N55  1  0.11169869  0.42719507  0.62225066  1
  N  N56  1  0.89220852  0.53120405  0.37080029  1
  N  N57  1  0.78032202  0.42484956  0.11927356  1
  N  N58  1  0.55547804  0.53986180  0.87331787  1
  N  N59  1  0.44230033  0.43026814  0.62066831  1
  N  N60  1  0.22214589  0.87102397  0.37687517  1
  N  N61  1  0.13297632  0.76987177  0.10951171  1
  N  N62  1  0.87301923  0.85950631  0.84579617  1
  N  N63  1  0.77786723  0.76629089  0.57108994  1
  N  N64  1  0.54954550  0.87371122  0.36650835  1
  N  N65  1  0.42094610  0.77374099  0.11429102  1
  N  N66  1  0.22570671  0.87244319  0.89404313  1
  N  N67  1  0.11013862  0.76294478  0.63594346  1
  N  N68  1  0.89204604  0.86516582  0.31145668  1
  N  N69  1  0.77941481  0.76508957  0.06104176  1
  N  N70  1  0.57517167  0.86472416  0.86957510  1
  N  N71  1  0.44081472  0.76235496  0.62679389  1
