# generated using pymatgen
data_Al11BN12
_symmetry_space_group_name_H-M   'P 1'
_cell_length_a   9.29732458
_cell_length_b   9.33173718
_cell_length_c   10.04751416
_cell_angle_alpha   90.13790546
_cell_angle_beta   89.98253433
_cell_angle_gamma   60.03268093
_symmetry_Int_Tables_number   1
_chemical_formula_structural   Al11BN12
_chemical_formula_sum   'Al33 B3 N36'
_cell_volume   755.18048812
_cell_formula_units_Z   3
loop_
 _symmetry_equiv_pos_site_id
 _symmetry_equiv_pos_as_xyz
  1  'x, y, z'
loop_
 _atom_site_type_symbol
 _atom_site_label
 _atom_site_symmetry_multiplicity
 _atom_site_fract_x
 _atom_site_fract_y
 _atom_site_fract_z
 _atom_site_occupancy
  Al  Al0  1  0.11469060  0.08813595  0.31703531  1
  Al  Al1  1  0.21955658  0.20289080  0.06924608  1
  Al  Al2  1  0.89559987  0.20529581  0.57135880  1
  Al  Al3  1  0.44306305  0.09727294  0.31833886  1
  Al  Al4  1  0.55002618  0.21161433  0.07902692  1
  Al  Al5  1  0.10795985  0.08932630  0.82721430  1
  Al  Al6  1  0.22685344  0.20082376  0.57165605  1
  Al  Al7  1  0.78248388  0.08527939  0.38735975  1
  Al  Al8  1  0.89499636  0.20359504  0.06823273  1
  Al  Al9  1  0.45071837  0.10007592  0.82947651  1
  Al  Al10  1  0.55397194  0.20806356  0.58241672  1
  Al  Al11  1  0.10979868  0.42798388  0.32218673  1
  Al  Al12  1  0.22262473  0.54127608  0.07185800  1
  Al  Al13  1  0.77894185  0.41651751  0.81965065  1
  Al  Al14  1  0.89373747  0.53161222  0.57658360  1
  Al  Al15  1  0.44367420  0.42909302  0.32408916  1
  Al  Al16  1  0.55098477  0.54177282  0.07171474  1
  Al  Al17  1  0.11282050  0.42171579  0.81953153  1
  Al  Al18  1  0.21808474  0.54465208  0.57585254  1
  Al  Al19  1  0.77919964  0.42791039  0.32008573  1
  Al  Al20  1  0.88987031  0.53575122  0.05491120  1
  Al  Al21  1  0.44885196  0.42667757  0.82349562  1
  Al  Al22  1  0.55489258  0.54204416  0.57341839  1
  Al  Al23  1  0.11917679  0.75999378  0.31604687  1
  Al  Al24  1  0.87670413  0.88094673  0.65565145  1
  Al  Al25  1  0.43732381  0.75916192  0.31812511  1
  Al  Al26  1  0.55323530  0.87081376  0.12727929  1
  Al  Al27  1  0.10934790  0.76149885  0.84158876  1
  Al  Al28  1  0.22152548  0.87110106  0.57873526  1
  Al  Al29  1  0.77702231  0.76456926  0.39041048  1
  Al  Al30  1  0.88991393  0.87629620  0.12850119  1
  Al  Al31  1  0.44739291  0.75813481  0.83842098  1
  Al  Al32  1  0.56887843  0.86495688  0.64757843  1
  B  B33  1  0.77137488  0.09671341  0.90726810  1
  B  B34  1  0.22339811  0.87004211  0.06686164  1
  B  B35  1  0.74796404  0.82272448  0.90913379  1
  N  N36  1  0.22349140  0.20205096  0.38019428  1
  N  N37  1  0.12278129  0.06981295  0.12436470  1
  N  N38  1  0.87782126  0.18803937  0.87605753  1
  N  N39  1  0.78372241  0.08688552  0.57985043  1
  N  N40  1  0.55227819  0.20723701  0.37340500  1
  N  N41  1  0.43876414  0.10141122  0.12578769  1
  N  N42  1  0.22724745  0.19797714  0.88146172  1
  N  N43  1  0.11423407  0.09239354  0.63668305  1
  N  N44  1  0.89439748  0.20569710  0.37589805  1
  N  N45  1  0.77837153  0.09070115  0.07011446  1
  N  N46  1  0.57418669  0.20158929  0.87904591  1
  N  N47  1  0.44569859  0.09586213  0.63657007  1
  N  N48  1  0.21924023  0.54327197  0.38337847  1
  N  N49  1  0.10735411  0.43135237  0.13174208  1
  N  N50  1  0.89933720  0.51191517  0.87383501  1
  N  N51  1  0.77674751  0.42514064  0.63017916  1
  N  N52  1  0.55478793  0.54112169  0.38228570  1
  N  N53  1  0.44243326  0.43140188  0.13463724  1
  N  N54  1  0.22387882  0.53362359  0.88406709  1
  N  N55  1  0.11666748  0.42348409  0.63006611  1
  N  N56  1  0.89202142  0.53254632  0.38336313  1
  N  N57  1  0.77676040  0.43054122  0.13015178  1
  N  N58  1  0.55819228  0.53612823  0.88480058  1
  N  N59  1  0.44319349  0.43126944  0.63334579  1
  N  N60  1  0.22158927  0.87126419  0.38868835  1
  N  N61  1  0.12823530  0.77149806  0.11995366  1
  N  N62  1  0.85510604  0.89442125  0.85173567  1
  N  N63  1  0.78019389  0.76549027  0.58071674  1
  N  N64  1  0.56310755  0.86406095  0.32255802  1
  N  N65  1  0.41596972  0.77171184  0.12109863  1
  N  N66  1  0.22320371  0.87180728  0.90516483  1
  N  N67  1  0.11116177  0.76279027  0.64834777  1
  N  N68  1  0.88548456  0.87078245  0.31814053  1
  N  N69  1  0.77203633  0.77530432  0.05583096  1
  N  N70  1  0.58402055  0.86458020  0.84727916  1
  N  N71  1  0.44246958  0.76056121  0.64369741  1
