# generated using pymatgen
data_Al11BN12
_symmetry_space_group_name_H-M   'P 1'
_cell_length_a   9.31084863
_cell_length_b   9.29220416
_cell_length_c   9.99168071
_cell_angle_alpha   89.88928549
_cell_angle_beta   89.78301425
_cell_angle_gamma   59.94085768
_symmetry_Int_Tables_number   1
_chemical_formula_structural   Al11BN12
_chemical_formula_sum   'Al33 B3 N36'
_cell_volume   748.19524562
_cell_formula_units_Z   3
loop_
 _symmetry_equiv_pos_site_id
 _symmetry_equiv_pos_as_xyz
  1  'x, y, z'
loop_
 _atom_site_type_symbol
 _atom_site_label
 _atom_site_symmetry_multiplicity
 _atom_site_fract_x
 _atom_site_fract_y
 _atom_site_fract_z
 _atom_site_occupancy
  Al  Al0  1  0.10419737  0.10295452  0.38690503  1
  Al  Al1  1  0.22344389  0.19856699  0.13728626  1
  Al  Al2  1  0.88571558  0.20304638  0.64127682  1
  Al  Al3  1  0.44542286  0.09439311  0.38770165  1
  Al  Al4  1  0.55856916  0.20253877  0.13432535  1
  Al  Al5  1  0.10613041  0.09264660  0.89012357  1
  Al  Al6  1  0.22107978  0.20598156  0.63849156  1
  Al  Al7  1  0.78044460  0.09018481  0.38373202  1
  Al  Al8  1  0.89301010  0.19726523  0.13065521  1
  Al  Al9  1  0.45470884  0.09035772  0.88774692  1
  Al  Al10  1  0.56058611  0.20373034  0.63938163  1
  Al  Al11  1  0.10549589  0.42857678  0.38411158  1
  Al  Al12  1  0.22330879  0.54460049  0.06864395  1
  Al  Al13  1  0.78007324  0.42540222  0.88775617  1
  Al  Al14  1  0.88472435  0.54547993  0.64027562  1
  Al  Al15  1  0.44987584  0.42533465  0.38539290  1
  Al  Al16  1  0.55478999  0.53748003  0.13212524  1
  Al  Al17  1  0.10433845  0.42844983  0.88559951  1
  Al  Al18  1  0.21588953  0.54885313  0.57361177  1
  Al  Al19  1  0.77664340  0.42928140  0.38720689  1
  Al  Al20  1  0.88726620  0.54067402  0.13165120  1
  Al  Al21  1  0.45950000  0.41571539  0.88702568  1
  Al  Al22  1  0.55521848  0.53955135  0.64094029  1
  Al  Al23  1  0.11710124  0.76410179  0.30621391  1
  Al  Al24  1  0.87603731  0.87930142  0.64692218  1
  Al  Al25  1  0.43871402  0.76687940  0.33664459  1
  Al  Al26  1  0.55414921  0.87475961  0.12552675  1
  Al  Al27  1  0.11014648  0.75942133  0.82887416  1
  Al  Al28  1  0.22229101  0.86935942  0.57300887  1
  Al  Al29  1  0.77897972  0.76405799  0.38292398  1
  Al  Al30  1  0.88789198  0.87595211  0.11344744  1
  Al  Al31  1  0.45318328  0.75735111  0.86786482  1
  Al  Al32  1  0.56075995  0.87184299  0.64300610  1
  B  B33  1  0.77214503  0.09085560  0.89272547  1
  B  B34  1  0.22506891  0.86655994  0.05497376  1
  B  B35  1  0.77205597  0.77116203  0.89404579  1
  N  N36  1  0.22287522  0.20528859  0.32773728  1
  N  N37  1  0.12206410  0.07293552  0.08206027  1
  N  N38  1  0.87927925  0.18810249  0.83398238  1
  N  N39  1  0.77915460  0.09213166  0.57310910  1
  N  N40  1  0.55760238  0.20396140  0.32479234  1
  N  N41  1  0.44352851  0.09715274  0.07536168  1
  N  N42  1  0.22349087  0.20104121  0.82908851  1
  N  N43  1  0.10445439  0.10286398  0.58084464  1
  N  N44  1  0.88575346  0.20647760  0.32236935  1
  N  N45  1  0.77526896  0.09676169  0.05352143  1
  N  N46  1  0.58313585  0.18943088  0.83239707  1
  N  N47  1  0.44575809  0.09497074  0.58061455  1
  N  N48  1  0.21767231  0.54785532  0.37210607  1
  N  N49  1  0.10918151  0.42365345  0.07965699  1
  N  N50  1  0.87734117  0.56319027  0.83255178  1
  N  N51  1  0.77776335  0.42816366  0.58004411  1
  N  N52  1  0.55687318  0.53802681  0.32410489  1
  N  N53  1  0.45244830  0.42158720  0.07862300  1
  N  N54  1  0.22654378  0.53518722  0.87191269  1
  N  N55  1  0.10535524  0.42766284  0.57967883  1
  N  N56  1  0.88504539  0.54223429  0.32284405  1
  N  N57  1  0.78050727  0.42496331  0.07629800  1
  N  N58  1  0.56219603  0.53121151  0.83143042  1
  N  N59  1  0.44941432  0.42527337  0.58010451  1
  N  N60  1  0.21926759  0.87116531  0.38026767  1
  N  N61  1  0.12926618  0.77299587  0.11315181  1
  N  N62  1  0.86365092  0.88338249  0.84454837  1
  N  N63  1  0.77802585  0.76439227  0.57285014  1
  N  N64  1  0.55826262  0.87501398  0.31918421  1
  N  N65  1  0.42388748  0.77138759  0.09328044  1
  N  N66  1  0.22454991  0.86219332  0.89310624  1
  N  N67  1  0.10888593  0.76538962  0.63819012  1
  N  N68  1  0.88309131  0.87532778  0.30952228  1
  N  N69  1  0.77748512  0.76025404  0.05476804  1
  N  N70  1  0.58418915  0.86107913  0.83878244  1
  N  N71  1  0.44180942  0.76636463  0.61803294  1
