# generated using pymatgen
data_Al11BN12
_symmetry_space_group_name_H-M   'P 1'
_cell_length_a   9.27683218
_cell_length_b   9.26826826
_cell_length_c   9.95154593
_cell_angle_alpha   89.71579339
_cell_angle_beta   89.73966842
_cell_angle_gamma   60.05882889
_symmetry_Int_Tables_number   1
_chemical_formula_structural   Al11BN12
_chemical_formula_sum   'Al33 B3 N36'
_cell_volume   741.42981016
_cell_formula_units_Z   3
loop_
 _symmetry_equiv_pos_site_id
 _symmetry_equiv_pos_as_xyz
  1  'x, y, z'
loop_
 _atom_site_type_symbol
 _atom_site_label
 _atom_site_symmetry_multiplicity
 _atom_site_fract_x
 _atom_site_fract_y
 _atom_site_fract_z
 _atom_site_occupancy
  Al  Al0  1  0.10921138  0.09601916  0.40024263  1
  Al  Al1  1  0.22394179  0.19780737  0.14876803  1
  Al  Al2  1  0.88657044  0.20231923  0.65289856  1
  Al  Al3  1  0.44520091  0.09326394  0.39847809  1
  Al  Al4  1  0.55796584  0.20300030  0.14489532  1
  Al  Al5  1  0.11044973  0.08749672  0.89673193  1
  Al  Al6  1  0.22085989  0.20680329  0.64995199  1
  Al  Al7  1  0.77953706  0.09212998  0.39482117  1
  Al  Al8  1  0.89156033  0.19740132  0.14122765  1
  Al  Al9  1  0.45445790  0.08962738  0.89876074  1
  Al  Al10  1  0.56102893  0.20285346  0.65078289  1
  Al  Al11  1  0.10967476  0.42999240  0.39656406  1
  Al  Al12  1  0.22744910  0.53706622  0.14073978  1
  Al  Al13  1  0.77723192  0.42834743  0.89792236  1
  Al  Al14  1  0.88699091  0.54523304  0.65075713  1
  Al  Al15  1  0.44473472  0.42772148  0.39757439  1
  Al  Al16  1  0.55043414  0.54226063  0.14914586  1
  Al  Al17  1  0.10724815  0.43199658  0.89969802  1
  Al  Al18  1  0.22370434  0.53534215  0.64940389  1
  Al  Al19  1  0.77938062  0.42676412  0.39727237  1
  Al  Al20  1  0.88676148  0.54113694  0.14283741  1
  Al  Al21  1  0.45373935  0.42089319  0.89932946  1
  Al  Al22  1  0.55709745  0.53849921  0.64898701  1
  Al  Al23  1  0.11208752  0.76793126  0.34208404  1
  Al  Al24  1  0.87764687  0.87759809  0.65598246  1
  Al  Al25  1  0.44594123  0.76185153  0.40029801  1
  Al  Al26  1  0.54985107  0.87336691  0.14370001  1
  Al  Al27  1  0.10701309  0.76474680  0.85350403  1
  Al  Al28  1  0.22335747  0.87372923  0.63746923  1
  Al  Al29  1  0.77867230  0.76323044  0.39413819  1
  Al  Al30  1  0.88811221  0.87556097  0.12398366  1
  Al  Al31  1  0.44712796  0.76061001  0.89693184  1
  Al  Al32  1  0.56163210  0.86913291  0.65316452  1
  B  B33  1  0.77043333  0.09377630  0.90404086  1
  B  B34  1  0.22291550  0.87022646  0.11289261  1
  B  B35  1  0.77031269  0.76919991  0.90454341  1
  N  N36  1  0.22197741  0.20629121  0.33913166  1
  N  N37  1  0.12608583  0.06362758  0.09103128  1
  N  N38  1  0.87827329  0.19017530  0.84704764  1
  N  N39  1  0.77849336  0.09302058  0.58451008  1
  N  N40  1  0.55690426  0.20475370  0.33610929  1
  N  N41  1  0.44389092  0.09498995  0.08764789  1
  N  N42  1  0.22182207  0.20519453  0.84206564  1
  N  N43  1  0.10636690  0.10112647  0.59197253  1
  N  N44  1  0.88869548  0.20481830  0.33276834  1
  N  N45  1  0.77403776  0.09742176  0.06524557  1
  N  N46  1  0.58168476  0.19207810  0.84472624  1
  N  N47  1  0.44580161  0.09359459  0.59303014  1
  N  N48  1  0.22359601  0.53748179  0.33422983  1
  N  N49  1  0.11101350  0.42553037  0.08926814  1
  N  N50  1  0.87790140  0.56495233  0.84461679  1
  N  N51  1  0.78082784  0.42626516  0.59161482  1
  N  N52  1  0.55635042  0.53953009  0.33908450  1
  N  N53  1  0.44863286  0.42490354  0.08808350  1
  N  N54  1  0.23029393  0.52968469  0.84355462  1
  N  N55  1  0.10973204  0.42890198  0.58878658  1
  N  N56  1  0.88766959  0.54140455  0.33450473  1
  N  N57  1  0.77742475  0.42691321  0.08789740  1
  N  N58  1  0.55709867  0.53851750  0.83964892  1
  N  N59  1  0.44593284  0.42609431  0.58957314  1
  N  N60  1  0.22479932  0.87495835  0.36213913  1
  N  N61  1  0.12784183  0.77446791  0.10592575  1
  N  N62  1  0.86239979  0.88501033  0.85540508  1
  N  N63  1  0.77764026  0.76367700  0.58401704  1
  N  N64  1  0.55715845  0.87166252  0.33403487  1
  N  N65  1  0.41636055  0.77423207  0.09095359  1
  N  N66  1  0.23029738  0.87326691  0.83278663  1
  N  N67  1  0.10385632  0.76287838  0.63150851  1
  N  N68  1  0.88287675  0.87584501  0.32078718  1
  N  N69  1  0.77370873  0.76117665  0.06681222  1
  N  N70  1  0.58075034  0.85914825  0.84799750  1
  N  N71  1  0.45119316  0.75986288  0.59194305  1
