# generated using pymatgen
data_Al11BN12
_symmetry_space_group_name_H-M   'P 1'
_cell_length_a   9.25070409
_cell_length_b   9.28487090
_cell_length_c   9.89162861
_cell_angle_alpha   90.19357007
_cell_angle_beta   90.01091766
_cell_angle_gamma   60.05086825
_symmetry_Int_Tables_number   1
_chemical_formula_structural   Al11BN12
_chemical_formula_sum   'Al33 B3 N36'
_cell_volume   736.15344719
_cell_formula_units_Z   3
loop_
 _symmetry_equiv_pos_site_id
 _symmetry_equiv_pos_as_xyz
  1  'x, y, z'
loop_
 _atom_site_type_symbol
 _atom_site_label
 _atom_site_symmetry_multiplicity
 _atom_site_fract_x
 _atom_site_fract_y
 _atom_site_fract_z
 _atom_site_occupancy
  Al  Al0  1  0.11223902  0.08943353  0.30710944  1
  Al  Al1  1  0.22414845  0.19976182  0.06088895  1
  Al  Al2  1  0.88926526  0.20563790  0.56656326  1
  Al  Al3  1  0.44642213  0.09321050  0.31145870  1
  Al  Al4  1  0.56277947  0.20213066  0.05760170  1
  Al  Al5  1  0.10904727  0.08870709  0.81673494  1
  Al  Al6  1  0.22182954  0.20461973  0.56206770  1
  Al  Al7  1  0.77919861  0.09150318  0.31350312  1
  Al  Al8  1  0.88952244  0.19629630  0.05767857  1
  Al  Al9  1  0.45752506  0.08762613  0.81088965  1
  Al  Al10  1  0.55550603  0.20660669  0.56552043  1
  Al  Al11  1  0.10930805  0.42865869  0.31199400  1
  Al  Al12  1  0.22435882  0.54142999  0.06227856  1
  Al  Al13  1  0.77469263  0.43133526  0.81164355  1
  Al  Al14  1  0.88739383  0.54260982  0.56894640  1
  Al  Al15  1  0.44513762  0.42690437  0.31172439  1
  Al  Al16  1  0.55094561  0.54243037  0.06218591  1
  Al  Al17  1  0.10928790  0.43052806  0.81173335  1
  Al  Al18  1  0.22032567  0.54222322  0.56155818  1
  Al  Al19  1  0.77943729  0.42741530  0.31183463  1
  Al  Al20  1  0.88737402  0.54288762  0.05727338  1
  Al  Al21  1  0.44845079  0.42678043  0.81000454  1
  Al  Al22  1  0.55411267  0.54210629  0.56061069  1
  Al  Al23  1  0.10946175  0.76606697  0.30915359  1
  Al  Al24  1  0.88669418  0.87487502  0.58042834  1
  Al  Al25  1  0.43947850  0.76518413  0.30734476  1
  Al  Al26  1  0.55774151  0.87019204  0.05820657  1
  Al  Al27  1  0.10632661  0.76069021  0.81946950  1
  Al  Al28  1  0.22177925  0.87227077  0.56342026  1
  Al  Al29  1  0.77872333  0.76198615  0.31573022  1
  Al  Al30  1  0.88781054  0.87173506  0.05253826  1
  Al  Al31  1  0.44684865  0.76169160  0.81813443  1
  Al  Al32  1  0.55680845  0.87066286  0.56791136  1
  B  B33  1  0.76324548  0.11876591  0.80110743  1
  B  B34  1  0.22102812  0.87240101  0.05673925  1
  B  B35  1  0.77713982  0.76597952  0.80876775  1
  N  N36  1  0.22127515  0.20434090  0.36789635  1
  N  N37  1  0.12148217  0.07005700  0.11105265  1
  N  N38  1  0.87325123  0.19391560  0.86278822  1
  N  N39  1  0.77439884  0.10089644  0.64301464  1
  N  N40  1  0.55696093  0.20520075  0.37392028  1
  N  N41  1  0.44801152  0.09330917  0.11726002  1
  N  N42  1  0.22452246  0.20303279  0.86955593  1
  N  N43  1  0.11184266  0.09285560  0.62519924  1
  N  N44  1  0.88953447  0.20437333  0.37275650  1
  N  N45  1  0.78014312  0.08882191  0.12327966  1
  N  N46  1  0.58167248  0.19622418  0.86196897  1
  N  N47  1  0.44473151  0.09468378  0.62090785  1
  N  N48  1  0.22030098  0.54220966  0.36818842  1
  N  N49  1  0.11058658  0.42713483  0.11914997  1
  N  N50  1  0.87872689  0.55875188  0.86409813  1
  N  N51  1  0.77640267  0.42894254  0.62104631  1
  N  N52  1  0.55447243  0.54212211  0.36744654  1
  N  N53  1  0.44734422  0.42374972  0.12001821  1
  N  N54  1  0.22708037  0.53397425  0.87181357  1
  N  N55  1  0.11242453  0.42742213  0.62034428  1
  N  N56  1  0.88761898  0.54092267  0.37587874  1
  N  N57  1  0.78092643  0.42436274  0.11726063  1
  N  N58  1  0.55499816  0.53963949  0.87224620  1
  N  N59  1  0.44371729  0.42995851  0.61908028  1
  N  N60  1  0.22148795  0.87279302  0.37369674  1
  N  N61  1  0.12078605  0.77430875  0.11202529  1
  N  N62  1  0.87386540  0.86091057  0.86151291  1
  N  N63  1  0.77614745  0.76204624  0.64306134  1
  N  N64  1  0.55528606  0.87132903  0.37371645  1
  N  N65  1  0.42053345  0.77500364  0.11200338  1
  N  N66  1  0.22189299  0.87073596  0.89195535  1
  N  N67  1  0.11301034  0.76199482  0.62775614  1
  N  N68  1  0.88831007  0.87341880  0.38262432  1
  N  N69  1  0.77905007  0.76055931  0.12547006  1
  N  N70  1  0.58135870  0.85959973  0.86521878  1
  N  N71  1  0.44228397  0.76239351  0.62590868  1
