# generated using pymatgen
data_Al11BN12
_symmetry_space_group_name_H-M   'P 1'
_cell_length_a   9.27914465
_cell_length_b   9.26923203
_cell_length_c   9.96366975
_cell_angle_alpha   89.68472507
_cell_angle_beta   89.69778393
_cell_angle_gamma   60.06606521
_symmetry_Int_Tables_number   1
_chemical_formula_structural   Al11BN12
_chemical_formula_sum   'Al33 B3 N36'
_cell_volume   742.64619941
_cell_formula_units_Z   3
loop_
 _symmetry_equiv_pos_site_id
 _symmetry_equiv_pos_as_xyz
  1  'x, y, z'
loop_
 _atom_site_type_symbol
 _atom_site_label
 _atom_site_symmetry_multiplicity
 _atom_site_fract_x
 _atom_site_fract_y
 _atom_site_fract_z
 _atom_site_occupancy
  Al  Al0  1  0.10815207  0.09730718  0.40234651  1
  Al  Al1  1  0.22410030  0.19752578  0.14857240  1
  Al  Al2  1  0.88591075  0.20300211  0.65352059  1
  Al  Al3  1  0.44498767  0.09313976  0.39847887  1
  Al  Al4  1  0.55818287  0.20283438  0.14515641  1
  Al  Al5  1  0.11074528  0.08712620  0.89482895  1
  Al  Al6  1  0.22086371  0.20721864  0.65075325  1
  Al  Al7  1  0.77969506  0.09174156  0.39464542  1
  Al  Al8  1  0.89168648  0.19719180  0.14098201  1
  Al  Al9  1  0.45454423  0.08982698  0.89893387  1
  Al  Al10  1  0.56083013  0.20303187  0.65072287  1
  Al  Al11  1  0.10965424  0.43007444  0.39648145  1
  Al  Al12  1  0.22841923  0.53534536  0.14111452  1
  Al  Al13  1  0.77745680  0.42837296  0.89817578  1
  Al  Al14  1  0.88690442  0.54521964  0.65060391  1
  Al  Al15  1  0.44427600  0.42799275  0.39751664  1
  Al  Al16  1  0.55044271  0.54219278  0.14891528  1
  Al  Al17  1  0.10725442  0.43242338  0.89987641  1
  Al  Al18  1  0.22411195  0.53415258  0.64904775  1
  Al  Al19  1  0.77917259  0.42669639  0.39723376  1
  Al  Al20  1  0.88677723  0.54107614  0.14307319  1
  Al  Al21  1  0.45385342  0.42079554  0.89942375  1
  Al  Al22  1  0.55761687  0.53808424  0.64969403  1
  Al  Al23  1  0.11348094  0.76925638  0.33262659  1
  Al  Al24  1  0.87585143  0.87839752  0.65535385  1
  Al  Al25  1  0.44700517  0.76094034  0.40229338  1
  Al  Al26  1  0.54980064  0.87340728  0.14348184  1
  Al  Al27  1  0.10714057  0.76504384  0.84213619  1
  Al  Al28  1  0.22280241  0.87344616  0.62844174  1
  Al  Al29  1  0.77865761  0.76326631  0.39392161  1
  Al  Al30  1  0.88728519  0.87597696  0.12385303  1
  Al  Al31  1  0.44692955  0.76083032  0.89509330  1
  Al  Al32  1  0.56185810  0.86924986  0.65374668  1
  B  B33  1  0.77058674  0.09366273  0.90396595  1
  B  B34  1  0.22340549  0.87015298  0.10668126  1
  B  B35  1  0.77046386  0.76956437  0.90456794  1
  N  N36  1  0.22173805  0.20576113  0.33884004  1
  N  N37  1  0.12666171  0.06276083  0.09032867  1
  N  N38  1  0.87797993  0.19034509  0.84733055  1
  N  N39  1  0.77833540  0.09341040  0.58430286  1
  N  N40  1  0.55680005  0.20474523  0.33618714  1
  N  N41  1  0.44404958  0.09501450  0.08772014  1
  N  N42  1  0.22215002  0.20560224  0.84253595  1
  N  N43  1  0.10473829  0.10414568  0.59377438  1
  N  N44  1  0.88892797  0.20454025  0.33241350  1
  N  N45  1  0.77408200  0.09745369  0.06513898  1
  N  N46  1  0.58176050  0.19211555  0.84459952  1
  N  N47  1  0.44568771  0.09366454  0.59298908  1
  N  N48  1  0.22351034  0.53725470  0.33416507  1
  N  N49  1  0.11094311  0.42540792  0.08930653  1
  N  N50  1  0.87807456  0.56498647  0.84445561  1
  N  N51  1  0.78064026  0.42633492  0.59141048  1
  N  N52  1  0.55606310  0.53972314  0.33866825  1
  N  N53  1  0.44898164  0.42463024  0.08798265  1
  N  N54  1  0.23081116  0.52938244  0.84398948  1
  N  N55  1  0.10970048  0.42889735  0.58855052  1
  N  N56  1  0.88755869  0.54129030  0.33451567  1
  N  N57  1  0.77758778  0.42685873  0.08797189  1
  N  N58  1  0.55756965  0.53803752  0.84006893  1
  N  N59  1  0.44598789  0.42630991  0.58944397  1
  N  N60  1  0.22259723  0.87298017  0.38137616  1
  N  N61  1  0.12919779  0.77547224  0.11551197  1
  N  N62  1  0.86232575  0.88536626  0.85579912  1
  N  N63  1  0.77741616  0.76372799  0.58367808  1
  N  N64  1  0.55655116  0.87143309  0.33375273  1
  N  N65  1  0.41586419  0.77455838  0.09021747  1
  N  N66  1  0.23075822  0.87342974  0.83122811  1
  N  N67  1  0.10259148  0.76232966  0.63742895  1
  N  N68  1  0.88233225  0.87593184  0.32047411  1
  N  N69  1  0.77380421  0.76100833  0.06676698  1
  N  N70  1  0.58109181  0.85943142  0.84827096  1
  N  N71  1  0.45394899  0.75848460  0.59358247  1
