# generated using pymatgen
data_Al11BN12
_symmetry_space_group_name_H-M   'P 1'
_cell_length_a   9.30903602
_cell_length_b   9.30239717
_cell_length_c   10.01482990
_cell_angle_alpha   89.90346546
_cell_angle_beta   89.87662196
_cell_angle_gamma   59.96079919
_symmetry_Int_Tables_number   1
_chemical_formula_structural   Al11BN12
_chemical_formula_sum   'Al33 B3 N36'
_cell_volume   750.75977680
_cell_formula_units_Z   3
loop_
 _symmetry_equiv_pos_site_id
 _symmetry_equiv_pos_as_xyz
  1  'x, y, z'
loop_
 _atom_site_type_symbol
 _atom_site_label
 _atom_site_symmetry_multiplicity
 _atom_site_fract_x
 _atom_site_fract_y
 _atom_site_fract_z
 _atom_site_occupancy
  Al  Al0  1  0.10543018  0.10193587  0.38771385  1
  Al  Al1  1  0.22267634  0.19946970  0.13830322  1
  Al  Al2  1  0.88795939  0.20096137  0.64276389  1
  Al  Al3  1  0.44645575  0.09212238  0.38655313  1
  Al  Al4  1  0.56095813  0.19739693  0.13118066  1
  Al  Al5  1  0.10675393  0.09257007  0.89261518  1
  Al  Al6  1  0.22144859  0.20628460  0.63893871  1
  Al  Al7  1  0.77990536  0.09055858  0.38413881  1
  Al  Al8  1  0.89279252  0.19762477  0.13295861  1
  Al  Al9  1  0.45503672  0.08993058  0.88845280  1
  Al  Al10  1  0.56495962  0.19551514  0.63855620  1
  Al  Al11  1  0.10673122  0.42781620  0.38583837  1
  Al  Al12  1  0.22513288  0.54428213  0.06749416  1
  Al  Al13  1  0.78345414  0.42354526  0.88786764  1
  Al  Al14  1  0.88813944  0.54460525  0.64140079  1
  Al  Al15  1  0.44186900  0.43172726  0.31659835  1
  Al  Al16  1  0.55133979  0.54309656  0.08893571  1
  Al  Al17  1  0.10385074  0.42848814  0.88821225  1
  Al  Al18  1  0.22300563  0.54537404  0.57114734  1
  Al  Al19  1  0.77565245  0.42950212  0.38667160  1
  Al  Al20  1  0.88789415  0.54047400  0.13382981  1
  Al  Al21  1  0.44679104  0.42278402  0.82844660  1
  Al  Al22  1  0.55662480  0.54025512  0.61969648  1
  Al  Al23  1  0.11659353  0.76477071  0.30912090  1
  Al  Al24  1  0.87935706  0.87678065  0.64708019  1
  Al  Al25  1  0.43405572  0.76590369  0.31175807  1
  Al  Al26  1  0.55486184  0.87552000  0.12549576  1
  Al  Al27  1  0.10959020  0.76155239  0.83173590  1
  Al  Al28  1  0.22331187  0.86837350  0.57264984  1
  Al  Al29  1  0.77758898  0.76346542  0.38252280  1
  Al  Al30  1  0.88849411  0.87543329  0.11537197  1
  Al  Al31  1  0.44670617  0.76254650  0.83581502  1
  Al  Al32  1  0.56427990  0.87297472  0.64284638  1
  B  B33  1  0.77137607  0.09091534  0.89363927  1
  B  B34  1  0.22588562  0.86719171  0.05861715  1
  B  B35  1  0.77203017  0.77118665  0.89445197  1
  N  N36  1  0.22317015  0.20532489  0.32826028  1
  N  N37  1  0.12098721  0.07416397  0.08354934  1
  N  N38  1  0.88003779  0.18769808  0.83426141  1
  N  N39  1  0.78143038  0.09037542  0.57337224  1
  N  N40  1  0.55987162  0.19846940  0.32494400  1
  N  N41  1  0.44222451  0.09682576  0.07450618  1
  N  N42  1  0.22374907  0.20165981  0.82935010  1
  N  N43  1  0.10622600  0.10159250  0.58171035  1
  N  N44  1  0.88643954  0.20577838  0.32391134  1
  N  N45  1  0.77605105  0.09649251  0.05379296  1
  N  N46  1  0.58504182  0.18617858  0.83468493  1
  N  N47  1  0.44600127  0.09297259  0.57940109  1
  N  N48  1  0.22170162  0.54635229  0.37675645  1
  N  N49  1  0.10918951  0.42399791  0.08076747  1
  N  N50  1  0.87803791  0.56313991  0.83261406  1
  N  N51  1  0.78170482  0.42607375  0.58335887  1
  N  N52  1  0.55471188  0.54296402  0.34654756  1
  N  N53  1  0.44215406  0.42764376  0.12157873  1
  N  N54  1  0.22494644  0.53744926  0.87830017  1
  N  N55  1  0.10775046  0.42734161  0.58004258  1
  N  N56  1  0.88680677  0.54128663  0.32427646  1
  N  N57  1  0.78482987  0.42266943  0.07720637  1
  N  N58  1  0.55768608  0.53636695  0.86293177  1
  N  N59  1  0.44166842  0.42704986  0.63274142  1
  N  N60  1  0.22222510  0.86979141  0.38295015  1
  N  N61  1  0.12809143  0.77347378  0.11514926  1
  N  N62  1  0.86456545  0.88304370  0.84475671  1
  N  N63  1  0.77921396  0.76300100  0.57285770  1
  N  N64  1  0.55825019  0.87388730  0.31903119  1
  N  N65  1  0.41576276  0.77717435  0.11346095  1
  N  N66  1  0.22798453  0.86155267  0.89741530  1
  N  N67  1  0.11204901  0.76278499  0.63987926  1
  N  N68  1  0.88346302  0.87449644  0.31127018  1
  N  N69  1  0.77758428  0.76005195  0.05496449  1
  N  N70  1  0.58504530  0.86175537  0.83863996  1
  N  N71  1  0.43838958  0.76792894  0.64040071  1
