# generated using pymatgen
data_Al11BN12
_symmetry_space_group_name_H-M   'P 1'
_cell_length_a   9.30932316
_cell_length_b   9.30501620
_cell_length_c   10.01469764
_cell_angle_alpha   89.90819114
_cell_angle_beta   89.88496740
_cell_angle_gamma   59.95433199
_symmetry_Int_Tables_number   1
_chemical_formula_structural   Al11BN12
_chemical_formula_sum   'Al33 B3 N36'
_cell_volume   750.93560570
_cell_formula_units_Z   3
loop_
 _symmetry_equiv_pos_site_id
 _symmetry_equiv_pos_as_xyz
  1  'x, y, z'
loop_
 _atom_site_type_symbol
 _atom_site_label
 _atom_site_symmetry_multiplicity
 _atom_site_fract_x
 _atom_site_fract_y
 _atom_site_fract_z
 _atom_site_occupancy
  Al  Al0  1  0.10530903  0.10206972  0.38776733  1
  Al  Al1  1  0.22266799  0.19949397  0.13826417  1
  Al  Al2  1  0.88781817  0.20111415  0.64261445  1
  Al  Al3  1  0.44643297  0.09218364  0.38663398  1
  Al  Al4  1  0.56101346  0.19718456  0.13099123  1
  Al  Al5  1  0.10667400  0.09262349  0.89253242  1
  Al  Al6  1  0.22145740  0.20628500  0.63890195  1
  Al  Al7  1  0.77997833  0.09053539  0.38415218  1
  Al  Al8  1  0.89287318  0.19750983  0.13288383  1
  Al  Al9  1  0.45504649  0.08988702  0.88840981  1
  Al  Al10  1  0.56486128  0.19561875  0.63841879  1
  Al  Al11  1  0.10664271  0.42781657  0.38587988  1
  Al  Al12  1  0.22505089  0.54440244  0.06726683  1
  Al  Al13  1  0.78279298  0.42385043  0.88815203  1
  Al  Al14  1  0.88800932  0.54461180  0.64125097  1
  Al  Al15  1  0.44142880  0.43125257  0.31661471  1
  Al  Al16  1  0.55272824  0.54259142  0.09935113  1
  Al  Al17  1  0.10374137  0.42849230  0.88813344  1
  Al  Al18  1  0.22316626  0.54531034  0.57120027  1
  Al  Al19  1  0.77499515  0.42987924  0.38681396  1
  Al  Al20  1  0.88799091  0.54049354  0.13376292  1
  Al  Al21  1  0.44653676  0.42220531  0.82895872  1
  Al  Al22  1  0.55793419  0.53946919  0.62936101  1
  Al  Al23  1  0.11655434  0.76478194  0.30907845  1
  Al  Al24  1  0.87934959  0.87678861  0.64705351  1
  Al  Al25  1  0.43355509  0.76702033  0.31193682  1
  Al  Al26  1  0.55487927  0.87560569  0.12532857  1
  Al  Al27  1  0.10956023  0.76157104  0.83160679  1
  Al  Al28  1  0.22343233  0.86831950  0.57271571  1
  Al  Al29  1  0.77766158  0.76344242  0.38255068  1
  Al  Al30  1  0.88854612  0.87540551  0.11533045  1
  Al  Al31  1  0.44656419  0.76306922  0.83640565  1
  Al  Al32  1  0.56415967  0.87299396  0.64274172  1
  B  B33  1  0.77142067  0.09088551  0.89359399  1
  B  B34  1  0.22592719  0.86718286  0.05845799  1
  B  B35  1  0.77206047  0.77115508  0.89441504  1
  N  N36  1  0.22316551  0.20532958  0.32824128  1
  N  N37  1  0.12094607  0.07425233  0.08349527  1
  N  N38  1  0.88003413  0.18772419  0.83423368  1
  N  N39  1  0.78144881  0.09032602  0.57335024  1
  N  N40  1  0.55990350  0.19840973  0.32488242  1
  N  N41  1  0.44220668  0.09677754  0.07447800  1
  N  N42  1  0.22376365  0.20164764  0.82933600  1
  N  N43  1  0.10611207  0.10169834  0.58165866  1
  N  N44  1  0.88634097  0.20590148  0.32386927  1
  N  N45  1  0.77613845  0.09641701  0.05378924  1
  N  N46  1  0.58508665  0.18598920  0.83470408  1
  N  N47  1  0.44600365  0.09298530  0.57936823  1
  N  N48  1  0.22167889  0.54641205  0.37672145  1
  N  N49  1  0.10916832  0.42398432  0.08071617  1
  N  N50  1  0.87801271  0.56308837  0.83258986  1
  N  N51  1  0.78074004  0.42658691  0.58267537  1
  N  N52  1  0.55607012  0.54240377  0.33825714  1
  N  N53  1  0.44194348  0.42703379  0.12061849  1
  N  N54  1  0.22472989  0.53756866  0.87820908  1
  N  N55  1  0.10766479  0.42736458  0.57999259  1
  N  N56  1  0.88673874  0.54128541  0.32424284  1
  N  N57  1  0.78454198  0.42281513  0.07677961  1
  N  N58  1  0.55898894  0.53568227  0.85547511  1
  N  N59  1  0.44157462  0.42674505  0.63213607  1
  N  N60  1  0.22212562  0.86981221  0.38295974  1
  N  N61  1  0.12817257  0.77344688  0.11516645  1
  N  N62  1  0.86459167  0.88302044  0.84476334  1
  N  N63  1  0.77922245  0.76304344  0.57284702  1
  N  N64  1  0.55826723  0.87403592  0.31901893  1
  N  N65  1  0.41556692  0.77765951  0.11288806  1
  N  N66  1  0.22783877  0.86157026  0.89740700  1
  N  N67  1  0.11204252  0.76279512  0.63980405  1
  N  N68  1  0.88344841  0.87451007  0.31125174  1
  N  N69  1  0.77764548  0.76002611  0.05498081  1
  N  N70  1  0.58510070  0.86180019  0.83870434  1
  N  N71  1  0.43819027  0.76849267  0.63991832  1
