# generated using pymatgen
data_Al11BN12
_symmetry_space_group_name_H-M   'P 1'
_cell_length_a   9.28867481
_cell_length_b   9.31750446
_cell_length_c   10.05105437
_cell_angle_alpha   90.05196344
_cell_angle_beta   89.75507659
_cell_angle_gamma   60.11483239
_symmetry_Int_Tables_number   1
_chemical_formula_structural   Al11BN12
_chemical_formula_sum   'Al33 B3 N36'
_cell_volume   754.20665799
_cell_formula_units_Z   3
loop_
 _symmetry_equiv_pos_site_id
 _symmetry_equiv_pos_as_xyz
  1  'x, y, z'
loop_
 _atom_site_type_symbol
 _atom_site_label
 _atom_site_symmetry_multiplicity
 _atom_site_fract_x
 _atom_site_fract_y
 _atom_site_fract_z
 _atom_site_occupancy
  Al  Al0  1  0.11505427  0.08821696  0.31756944  1
  Al  Al1  1  0.22199219  0.20227375  0.06963880  1
  Al  Al2  1  0.89385897  0.20516558  0.57290091  1
  Al  Al3  1  0.44388706  0.09617826  0.31913197  1
  Al  Al4  1  0.54907924  0.21136286  0.07097001  1
  Al  Al5  1  0.10961215  0.08882304  0.82841925  1
  Al  Al6  1  0.22293373  0.20325919  0.57135687  1
  Al  Al7  1  0.78327198  0.08494392  0.38842052  1
  Al  Al8  1  0.89587293  0.20303449  0.06917608  1
  Al  Al9  1  0.45440508  0.09482728  0.82368346  1
  Al  Al10  1  0.54970291  0.21056361  0.57215321  1
  Al  Al11  1  0.11032845  0.42752649  0.32233814  1
  Al  Al12  1  0.22443956  0.54042112  0.07205648  1
  Al  Al13  1  0.77931130  0.41610420  0.82048939  1
  Al  Al14  1  0.89248400  0.53236102  0.57813135  1
  Al  Al15  1  0.44415976  0.42822224  0.32322251  1
  Al  Al16  1  0.55212412  0.54067626  0.07147764  1
  Al  Al17  1  0.11392468  0.42106915  0.82053984  1
  Al  Al18  1  0.21637347  0.54593396  0.57610619  1
  Al  Al19  1  0.77918859  0.42779348  0.32020381  1
  Al  Al20  1  0.89269158  0.53352830  0.05664046  1
  Al  Al21  1  0.44972172  0.42549542  0.82149407  1
  Al  Al22  1  0.55460212  0.54048015  0.57256683  1
  Al  Al23  1  0.12100334  0.75946906  0.31653371  1
  Al  Al24  1  0.87194057  0.88291671  0.65898502  1
  Al  Al25  1  0.43905113  0.76103883  0.31826265  1
  Al  Al26  1  0.54750228  0.87513746  0.09343538  1
  Al  Al27  1  0.11079777  0.76114197  0.84222263  1
  Al  Al28  1  0.21803370  0.87170105  0.57876361  1
  Al  Al29  1  0.78149417  0.76266382  0.38981639  1
  Al  Al30  1  0.89221993  0.87654775  0.13091268  1
  Al  Al31  1  0.45188791  0.75976877  0.83462167  1
  Al  Al32  1  0.55398134  0.87187211  0.59509843  1
  B  B33  1  0.77378942  0.09448027  0.90847593  1
  B  B34  1  0.22477253  0.86962511  0.06747822  1
  B  B35  1  0.74979819  0.82240585  0.91593600  1
  N  N36  1  0.22256534  0.20310183  0.38050826  1
  N  N37  1  0.12435971  0.06919114  0.12458599  1
  N  N38  1  0.87897902  0.18694734  0.87704307  1
  N  N39  1  0.78076867  0.08782754  0.58080289  1
  N  N40  1  0.55001570  0.20858612  0.37971863  1
  N  N41  1  0.44117882  0.10046600  0.13019961  1
  N  N42  1  0.23057062  0.19674948  0.88128125  1
  N  N43  1  0.11290415  0.09272186  0.63757408  1
  N  N44  1  0.89435702  0.20580162  0.37659017  1
  N  N45  1  0.77847648  0.09054414  0.07161906  1
  N  N46  1  0.57347566  0.20085456  0.87976047  1
  N  N47  1  0.44452630  0.09591809  0.63364938  1
  N  N48  1  0.21942382  0.54310126  0.38347441  1
  N  N49  1  0.10984196  0.42952504  0.13220598  1
  N  N50  1  0.90023906  0.51078143  0.87539951  1
  N  N51  1  0.77568707  0.42523908  0.63097525  1
  N  N52  1  0.55464722  0.54083432  0.38151913  1
  N  N53  1  0.44444656  0.42844413  0.13428363  1
  N  N54  1  0.22498993  0.53321799  0.88436731  1
  N  N55  1  0.11535387  0.42434927  0.63096033  1
  N  N56  1  0.89243778  0.53201044  0.38372887  1
  N  N57  1  0.77764764  0.42955857  0.13049425  1
  N  N58  1  0.55772314  0.53687646  0.88380023  1
  N  N59  1  0.44170807  0.43087621  0.63216050  1
  N  N60  1  0.22145399  0.87143669  0.38914314  1
  N  N61  1  0.13072982  0.77083412  0.12064801  1
  N  N62  1  0.85389703  0.89539962  0.85443475  1
  N  N63  1  0.78056406  0.76485562  0.58285161  1
  N  N64  1  0.55634331  0.86956190  0.35337253  1
  N  N65  1  0.41880963  0.77123171  0.12398963  1
  N  N66  1  0.22634662  0.87057543  0.90534367  1
  N  N67  1  0.10821700  0.76390637  0.64962317  1
  N  N68  1  0.88715251  0.87114298  0.31924828  1
  N  N69  1  0.78080809  0.77036889  0.06255732  1
  N  N70  1  0.57531887  0.87078140  0.87790654  1
  N  N71  1  0.44163299  0.76139668  0.64157293  1
