# generated using pymatgen
data_Al31B5N36
_symmetry_space_group_name_H-M   'P 1'
_cell_length_a   9.13641449
_cell_length_b   9.16698095
_cell_length_c   10.32618595
_cell_angle_alpha   91.49606917
_cell_angle_beta   90.45183417
_cell_angle_gamma   60.22639322
_symmetry_Int_Tables_number   1
_chemical_formula_structural   Al31B5N36
_chemical_formula_sum   'Al31 B5 N36'
_cell_volume   750.41831615
_cell_formula_units_Z   1
loop_
 _symmetry_equiv_pos_site_id
 _symmetry_equiv_pos_as_xyz
  1  'x, y, z'
loop_
 _atom_site_type_symbol
 _atom_site_label
 _atom_site_symmetry_multiplicity
 _atom_site_fract_x
 _atom_site_fract_y
 _atom_site_fract_z
 _atom_site_occupancy
  B  B0  1  0.11941710  0.08167319  0.34033628  1
  B  B1  1  0.58458820  0.48005263  0.15941760  1
  B  B2  1  0.22657066  0.89363494  0.10298927  1
  B  B3  1  0.53609068  0.88553390  0.09791714  1
  B  B4  1  0.77270531  0.76388349  0.35774592  1
  Al  Al5  1  0.22509780  0.19541789  0.07551380  1
  Al  Al6  1  0.78024516  0.09155346  0.81832169  1
  Al  Al7  1  0.89843939  0.19216441  0.56270389  1
  Al  Al8  1  0.45305607  0.07763294  0.31831384  1
  Al  Al9  1  0.56251119  0.19186093  0.07149943  1
  Al  Al10  1  0.10718355  0.10413894  0.82054353  1
  Al  Al11  1  0.22462835  0.19498010  0.55859926  1
  Al  Al12  1  0.78608673  0.08041626  0.31756393  1
  Al  Al13  1  0.89720644  0.18829736  0.07538041  1
  Al  Al14  1  0.43644485  0.10520106  0.81469682  1
  Al  Al15  1  0.55929116  0.19834710  0.56494561  1
  Al  Al16  1  0.10369482  0.43776332  0.38189998  1
  Al  Al17  1  0.22914196  0.55621808  0.14362371  1
  Al  Al18  1  0.76898869  0.43380694  0.90094004  1
  Al  Al19  1  0.89805563  0.52073012  0.64183080  1
  Al  Al20  1  0.44411869  0.43096033  0.38793081  1
  Al  Al21  1  0.10662342  0.43673390  0.89902340  1
  Al  Al22  1  0.22242591  0.53726858  0.64057734  1
  Al  Al23  1  0.78232333  0.43135901  0.38240209  1
  Al  Al24  1  0.86000509  0.56293908  0.14248889  1
  Al  Al25  1  0.44738765  0.43488740  0.89559533  1
  Al  Al26  1  0.55811380  0.53692819  0.64140621  1
  Al  Al27  1  0.11553644  0.76499812  0.39039464  1
  Al  Al28  1  0.77666864  0.76026649  0.82821873  1
  Al  Al29  1  0.88212434  0.86591922  0.57028532  1
  Al  Al30  1  0.44850441  0.76266465  0.38364990  1
  Al  Al31  1  0.12286478  0.76289201  0.88974127  1
  Al  Al32  1  0.22673071  0.86608787  0.63367253  1
  Al  Al33  1  0.87613114  0.87305295  0.06571897  1
  Al  Al34  1  0.44070801  0.77130824  0.89170516  1
  Al  Al35  1  0.55614412  0.86539186  0.62925647  1
  N  N36  1  0.21370850  0.18501480  0.36825578  1
  N  N37  1  0.11950791  0.07738222  0.12436479  1
  N  N38  1  0.89024156  0.19934707  0.88972924  1
  N  N39  1  0.77976643  0.09182252  0.63131239  1
  N  N40  1  0.56149128  0.19606721  0.37827116  1
  N  N41  1  0.45296162  0.07734227  0.13164235  1
  N  N42  1  0.22545536  0.20305687  0.89062396  1
  N  N43  1  0.10781668  0.10453805  0.63582068  1
  N  N44  1  0.92311573  0.18060457  0.37212953  1
  N  N45  1  0.77910251  0.08840585  0.13682434  1
  N  N46  1  0.55913738  0.19987836  0.88610879  1
  N  N47  1  0.43868910  0.10337137  0.62754436  1
  N  N48  1  0.22491700  0.54157058  0.32478410  1
  N  N49  1  0.09774182  0.45114401  0.08626700  1
  N  N50  1  0.89333098  0.52251604  0.83022881  1
  N  N51  1  0.77470778  0.42773017  0.56733643  1
  N  N52  1  0.56289383  0.52577836  0.30473122  1
  N  N53  1  0.46310649  0.43584426  0.09046453  1
  N  N54  1  0.22556015  0.53581688  0.83004270  1
  N  N55  1  0.11136943  0.42982901  0.56793150  1
  N  N56  1  0.87310385  0.56963871  0.32994855  1
  N  N57  1  0.75202233  0.43435587  0.09548534  1
  N  N58  1  0.55586651  0.54148363  0.82833263  1
  N  N59  1  0.44281473  0.43304539  0.57497563  1
  N  N60  1  0.21385053  0.89673934  0.35472956  1
  N  N61  1  0.13743117  0.78036264  0.07981140  1
  N  N62  1  0.88946308  0.87180602  0.88246233  1
  N  N63  1  0.78817187  0.75204871  0.63639212  1
  N  N64  1  0.58968032  0.85350949  0.36547365  1
  N  N65  1  0.41535434  0.81803529  0.07422950  1
  N  N66  1  0.22623068  0.86798278  0.81938648  1
  N  N67  1  0.11464397  0.75612694  0.57609669  1
  N  N68  1  0.87404256  0.85549230  0.37714327  1
  N  N69  1  0.72573029  0.78319400  0.08426268  1
  N  N70  1  0.54597692  0.87435494  0.81990834  1
  N  N71  1  0.44798364  0.75115043  0.57004194  1
