# generated using pymatgen
data_Al31B5N36
_symmetry_space_group_name_H-M   'P 1'
_cell_length_a   9.17797892
_cell_length_b   9.29022653
_cell_length_c   10.17994234
_cell_angle_alpha   90.59646384
_cell_angle_beta   89.49537859
_cell_angle_gamma   59.87761342
_symmetry_Int_Tables_number   1
_chemical_formula_structural   Al31B5N36
_chemical_formula_sum   'Al31 B5 N36'
_cell_volume   750.63999847
_cell_formula_units_Z   1
loop_
 _symmetry_equiv_pos_site_id
 _symmetry_equiv_pos_as_xyz
  1  'x, y, z'
loop_
 _atom_site_type_symbol
 _atom_site_label
 _atom_site_symmetry_multiplicity
 _atom_site_fract_x
 _atom_site_fract_y
 _atom_site_fract_z
 _atom_site_occupancy
  B  B0  1  0.11211467  0.10390515  0.30637123  1
  B  B1  1  0.59095257  0.48029038  0.15867266  1
  B  B2  1  0.25551526  0.91648453  0.15767359  1
  B  B3  1  0.53976387  0.89163287  0.09946168  1
  B  B4  1  0.77584475  0.75825843  0.39642827  1
  Al  Al5  1  0.22805143  0.20326740  0.06576631  1
  Al  Al6  1  0.78158670  0.09007482  0.81197880  1
  Al  Al7  1  0.90150383  0.19035132  0.55564599  1
  Al  Al8  1  0.45792612  0.07898082  0.31624189  1
  Al  Al9  1  0.56443274  0.19862581  0.06104003  1
  Al  Al10  1  0.10780816  0.09907716  0.81468344  1
  Al  Al11  1  0.22188676  0.19934909  0.55435723  1
  Al  Al12  1  0.78817465  0.08315263  0.31260817  1
  Al  Al13  1  0.89976421  0.19113771  0.07181620  1
  Al  Al14  1  0.44275658  0.09437703  0.80506705  1
  Al  Al15  1  0.55879789  0.20265247  0.56100570  1
  Al  Al16  1  0.11229799  0.42825084  0.31235315  1
  Al  Al17  1  0.22457705  0.54058024  0.06376956  1
  Al  Al18  1  0.76495140  0.43488908  0.89403824  1
  Al  Al19  1  0.88492414  0.53556093  0.63151605  1
  Al  Al20  1  0.44438863  0.42161003  0.31451741  1
  Al  Al21  1  0.11682009  0.41945102  0.81440526  1
  Al  Al22  1  0.22381929  0.53448021  0.56192072  1
  Al  Al23  1  0.78728884  0.43164973  0.37971367  1
  Al  Al24  1  0.85809298  0.56648312  0.14221919  1
  Al  Al25  1  0.44251853  0.42176450  0.81466473  1
  Al  Al26  1  0.55838901  0.54004100  0.63616353  1
  Al  Al27  1  0.10834474  0.76229881  0.30051803  1
  Al  Al28  1  0.76155679  0.76117811  0.87750216  1
  Al  Al29  1  0.89477686  0.86701422  0.55889012  1
  Al  Al30  1  0.45663151  0.75991358  0.37263846  1
  Al  Al31  1  0.10656019  0.75316964  0.81805770  1
  Al  Al32  1  0.23002315  0.86212048  0.63571735  1
  Al  Al33  1  0.88480657  0.87208604  0.06304391  1
  Al  Al34  1  0.43342284  0.77159840  0.89507572  1
  Al  Al35  1  0.55721040  0.86363939  0.61045075  1
  N  N36  1  0.21328230  0.19379163  0.36405394  1
  N  N37  1  0.11877076  0.09702227  0.14318056  1
  N  N38  1  0.89031006  0.20033790  0.88425852  1
  N  N39  1  0.78269887  0.08995976  0.62338166  1
  N  N40  1  0.56072323  0.20424243  0.37393256  1
  N  N41  1  0.45806959  0.08100222  0.12417289  1
  N  N42  1  0.22387770  0.20161899  0.87961852  1
  N  N43  1  0.11243157  0.09506804  0.62616183  1
  N  N44  1  0.92363348  0.18507504  0.36299977  1
  N  N45  1  0.78148875  0.09034998  0.12770071  1
  N  N46  1  0.55629761  0.20099792  0.87455819  1
  N  N47  1  0.44206316  0.09784133  0.61628813  1
  N  N48  1  0.22435349  0.54083010  0.37423169  1
  N  N49  1  0.10960878  0.42672074  0.12363293  1
  N  N50  1  0.88048401  0.53694493  0.82446210  1
  N  N51  1  0.77668454  0.42481279  0.56548019  1
  N  N52  1  0.56965548  0.53206656  0.30271439  1
  N  N53  1  0.46380624  0.42501494  0.12334728  1
  N  N54  1  0.22200572  0.53320542  0.87789235  1
  N  N55  1  0.11965804  0.41731197  0.62248483  1
  N  N56  1  0.87418675  0.57026334  0.32978328  1
  N  N57  1  0.75306773  0.43670199  0.08902115  1
  N  N58  1  0.55073942  0.54661330  0.82771286  1
  N  N59  1  0.44454614  0.42106913  0.62506050  1
  N  N60  1  0.23273010  0.89253824  0.30374264  1
  N  N61  1  0.09918340  0.75337802  0.12126619  1
  N  N62  1  0.88402880  0.87220624  0.87418253  1
  N  N63  1  0.78356235  0.74590792  0.55822287  1
  N  N64  1  0.58866227  0.85827446  0.35841846  1
  N  N65  1  0.41821258  0.83061626  0.08065625  1
  N  N66  1  0.22220586  0.86883928  0.82549277  1
  N  N67  1  0.10836842  0.75130042  0.62673972  1
  N  N68  1  0.88631168  0.86354213  0.37314871  1
  N  N69  1  0.72817410  0.78318424  0.06851601  1
  N  N70  1  0.55129001  0.86335178  0.80631998  1
  N  N71  1  0.44225758  0.74981502  0.55925366  1
