# generated using pymatgen
data_Al31B5N36
_symmetry_space_group_name_H-M   'P 1'
_cell_length_a   9.15755255
_cell_length_b   9.23338323
_cell_length_c   9.78401880
_cell_angle_alpha   89.92363295
_cell_angle_beta   90.08891989
_cell_angle_gamma   60.26880966
_symmetry_Int_Tables_number   1
_chemical_formula_structural   Al31B5N36
_chemical_formula_sum   'Al31 B5 N36'
_cell_volume   718.38359940
_cell_formula_units_Z   1
loop_
 _symmetry_equiv_pos_site_id
 _symmetry_equiv_pos_as_xyz
  1  'x, y, z'
loop_
 _atom_site_type_symbol
 _atom_site_label
 _atom_site_symmetry_multiplicity
 _atom_site_fract_x
 _atom_site_fract_y
 _atom_site_fract_z
 _atom_site_occupancy
  B  B0  1  0.11616415  0.08764134  0.30643370  1
  B  B1  1  0.58343725  0.48388039  0.04908145  1
  B  B2  1  0.22525266  0.88250589  0.06646938  1
  B  B3  1  0.53894027  0.88489094  0.06471177  1
  B  B4  1  0.76681757  0.76494013  0.30548147  1
  Al  Al5  1  0.22364840  0.19931613  0.06999494  1
  Al  Al6  1  0.78167090  0.09041962  0.81147000  1
  Al  Al7  1  0.89570026  0.20198765  0.55777002  1
  Al  Al8  1  0.44922575  0.08329010  0.31019683  1
  Al  Al9  1  0.56107035  0.19608508  0.06039153  1
  Al  Al10  1  0.11387921  0.09239366  0.81910160  1
  Al  Al11  1  0.22005967  0.20173635  0.55772051  1
  Al  Al12  1  0.78166295  0.08751415  0.31339359  1
  Al  Al13  1  0.89479122  0.19617946  0.06834083  1
  Al  Al14  1  0.44441230  0.08949511  0.81702754  1
  Al  Al15  1  0.55497346  0.20480720  0.56267630  1
  Al  Al16  1  0.10509349  0.43107861  0.31125733  1
  Al  Al17  1  0.22918782  0.54704378  0.06201300  1
  Al  Al18  1  0.78120622  0.42434375  0.81506104  1
  Al  Al19  1  0.88395508  0.54498430  0.55749586  1
  Al  Al20  1  0.44850408  0.42988055  0.30922225  1
  Al  Al21  1  0.10983369  0.42829661  0.81400786  1
  Al  Al22  1  0.22305412  0.54035966  0.56224873  1
  Al  Al23  1  0.77359146  0.43130990  0.31022665  1
  Al  Al24  1  0.87293995  0.54900491  0.06860008  1
  Al  Al25  1  0.44570909  0.42488273  0.81479986  1
  Al  Al26  1  0.55212358  0.54548651  0.56505940  1
  Al  Al27  1  0.11111213  0.76836472  0.31045652  1
  Al  Al28  1  0.77513977  0.76242381  0.82059851  1
  Al  Al29  1  0.88742984  0.86730663  0.55786816  1
  Al  Al30  1  0.44382197  0.76964857  0.29619795  1
  Al  Al31  1  0.11235006  0.76550550  0.81885817  1
  Al  Al32  1  0.22616111  0.87498551  0.56407588  1
  Al  Al33  1  0.88935166  0.86918050  0.07086751  1
  Al  Al34  1  0.44621820  0.75823171  0.86041366  1
  Al  Al35  1  0.55753395  0.86589042  0.56368769  1
  N  N36  1  0.21090562  0.19288340  0.35999524  1
  N  N37  1  0.11882309  0.07732939  0.13680210  1
  N  N38  1  0.89079172  0.20336245  0.87538180  1
  N  N39  1  0.78134331  0.09102979  0.61598564  1
  N  N40  1  0.55331423  0.20708645  0.36871829  1
  N  N41  1  0.45476338  0.07646860  0.11716049  1
  N  N42  1  0.22153620  0.20711794  0.87663821  1
  N  N43  1  0.11262674  0.09249683  0.62847369  1
  N  N44  1  0.91330398  0.19447665  0.36091290  1
  N  N45  1  0.77931516  0.09044676  0.12336511  1
  N  N46  1  0.55753595  0.20219666  0.86878354  1
  N  N47  1  0.44422183  0.09030748  0.62103258  1
  N  N48  1  0.22377859  0.54055952  0.36729448  1
  N  N49  1  0.10996170  0.43240747  0.11957009  1
  N  N50  1  0.88663700  0.54031309  0.87612836  1
  N  N51  1  0.77862537  0.42571026  0.61987893  1
  N  N52  1  0.55000270  0.54844479  0.37136963  1
  N  N53  1  0.46500942  0.42972172  0.11267341  1
  N  N54  1  0.22284320  0.54080926  0.87041655  1
  N  N55  1  0.11010525  0.42650932  0.61640273  1
  N  N56  1  0.87266384  0.56393089  0.35951504  1
  N  N57  1  0.75379996  0.43102044  0.11507150  1
  N  N58  1  0.56332749  0.52425162  0.89702760  1
  N  N59  1  0.44671031  0.42694849  0.62304488  1
  N  N60  1  0.21324211  0.89821767  0.36819863  1
  N  N61  1  0.12932046  0.77376402  0.11859112  1
  N  N62  1  0.88955657  0.87077193  0.87728335  1
  N  N63  1  0.77691578  0.76052917  0.62896244  1
  N  N64  1  0.57917916  0.85806061  0.36836988  1
  N  N65  1  0.42354571  0.80307651  0.10625351  1
  N  N66  1  0.21610431  0.87988118  0.90048795  1
  N  N67  1  0.11180838  0.76344476  0.62172520  1
  N  N68  1  0.87776303  0.85682413  0.36100181  1
  N  N69  1  0.75140688  0.77276311  0.13765120  1
  N  N70  1  0.55927168  0.87513393  0.90072473  1
  N  N71  1  0.44498374  0.76011536  0.64166441  1
