# generated using pymatgen
data_Al31B5N36
_symmetry_space_group_name_H-M   'P 1'
_cell_length_a   9.11060280
_cell_length_b   9.21281422
_cell_length_c   10.23777291
_cell_angle_alpha   90.30659309
_cell_angle_beta   89.71429231
_cell_angle_gamma   60.36649904
_symmetry_Int_Tables_number   1
_chemical_formula_structural   Al31B5N36
_chemical_formula_sum   'Al31 B5 N36'
_cell_volume   746.86938597
_cell_formula_units_Z   1
loop_
 _symmetry_equiv_pos_site_id
 _symmetry_equiv_pos_as_xyz
  1  'x, y, z'
loop_
 _atom_site_type_symbol
 _atom_site_label
 _atom_site_symmetry_multiplicity
 _atom_site_fract_x
 _atom_site_fract_y
 _atom_site_fract_z
 _atom_site_occupancy
  B  B0  1  0.11790032  0.08694032  0.32857252  1
  B  B1  1  0.58942653  0.48387370  0.15489671  1
  B  B2  1  0.22972777  0.89202313  0.10677066  1
  B  B3  1  0.53961552  0.88543022  0.09473644  1
  B  B4  1  0.77701280  0.76474700  0.35558982  1
  Al  Al5  1  0.22426707  0.20000619  0.06516501  1
  Al  Al6  1  0.78146404  0.08834612  0.80902355  1
  Al  Al7  1  0.89962746  0.19150544  0.55379102  1
  Al  Al8  1  0.45362056  0.07981134  0.31310937  1
  Al  Al9  1  0.56175832  0.19561303  0.05881193  1
  Al  Al10  1  0.10975300  0.09714388  0.81228965  1
  Al  Al11  1  0.22063423  0.20266492  0.55496218  1
  Al  Al12  1  0.78472687  0.08346388  0.30958568  1
  Al  Al13  1  0.89973386  0.18623657  0.06843089  1
  Al  Al14  1  0.43886631  0.09764466  0.80737612  1
  Al  Al15  1  0.55746469  0.20288435  0.55843268  1
  Al  Al16  1  0.10643077  0.43323847  0.30776901  1
  Al  Al17  1  0.23353236  0.54981206  0.06122973  1
  Al  Al18  1  0.76404455  0.42642477  0.89096044  1
  Al  Al19  1  0.89290670  0.54138228  0.56227044  1
  Al  Al20  1  0.44351230  0.42241099  0.31042777  1
  Al  Al21  1  0.10843592  0.42487532  0.81352877  1
  Al  Al22  1  0.22574471  0.53556182  0.55866905  1
  Al  Al23  1  0.78169441  0.42902156  0.37020864  1
  Al  Al24  1  0.87008380  0.55662632  0.06916207  1
  Al  Al25  1  0.44160127  0.42131042  0.81084745  1
  Al  Al26  1  0.56380830  0.53742853  0.63467677  1
  Al  Al27  1  0.11572079  0.77019449  0.31114991  1
  Al  Al28  1  0.77777566  0.75511109  0.82105106  1
  Al  Al29  1  0.89005441  0.86526824  0.56017668  1
  Al  Al30  1  0.45125655  0.76404138  0.37750561  1
  Al  Al31  1  0.11032442  0.75473436  0.80800791  1
  Al  Al32  1  0.22909746  0.86781355  0.61811761  1
  Al  Al33  1  0.88260598  0.87266660  0.05877595  1
  Al  Al34  1  0.43847331  0.76619540  0.88912798  1
  Al  Al35  1  0.55622044  0.86496951  0.62066843  1
  N  N36  1  0.21028227  0.19501683  0.36320086  1
  N  N37  1  0.12238060  0.07719024  0.12551557  1
  N  N38  1  0.89124503  0.19588318  0.88034042  1
  N  N39  1  0.78146978  0.08892605  0.61991099  1
  N  N40  1  0.55879251  0.20483327  0.37173664  1
  N  N41  1  0.45321166  0.07747656  0.12318521  1
  N  N42  1  0.22121699  0.20629660  0.87874418  1
  N  N43  1  0.10866232  0.10135198  0.62609360  1
  N  N44  1  0.92104368  0.18376820  0.36081565  1
  N  N45  1  0.77889292  0.08771647  0.12668166  1
  N  N46  1  0.55710356  0.20143774  0.87346531  1
  N  N47  1  0.44010435  0.09915524  0.61719469  1
  N  N48  1  0.22446298  0.54206804  0.37053473  1
  N  N49  1  0.10808131  0.43816122  0.12301129  1
  N  N50  1  0.88923431  0.53430829  0.87996986  1
  N  N51  1  0.77552961  0.42333253  0.55821043  1
  N  N52  1  0.56487624  0.53900538  0.29767589  1
  N  N53  1  0.46421161  0.42298261  0.12111775  1
  N  N54  1  0.22203347  0.53751672  0.87627387  1
  N  N55  1  0.11350390  0.42313546  0.62188554  1
  N  N56  1  0.87949984  0.57139553  0.36722546  1
  N  N57  1  0.75372295  0.42936475  0.08751979  1
  N  N58  1  0.55490169  0.54291524  0.82207993  1
  N  N59  1  0.44466559  0.42046945  0.62254819  1
  N  N60  1  0.21297469  0.90252838  0.35919315  1
  N  N61  1  0.13376117  0.77958990  0.11940782  1
  N  N62  1  0.89088202  0.86949515  0.87393648  1
  N  N63  1  0.78971242  0.75149572  0.63053020  1
  N  N64  1  0.59297036  0.85776258  0.36318142  1
  N  N65  1  0.41686659  0.81546693  0.07425270  1
  N  N66  1  0.22774422  0.86717393  0.81610794  1
  N  N67  1  0.10922890  0.75297062  0.61868898  1
  N  N68  1  0.88133836  0.85671874  0.36790132  1
  N  N69  1  0.72799984  0.78671158  0.08657232  1
  N  N70  1  0.54652315  0.86992642  0.81465786  1
  N  N71  1  0.45192778  0.74672925  0.56231135  1
