# generated using pymatgen
data_Al31B5N36
_symmetry_space_group_name_H-M   'P 1'
_cell_length_a   9.15519808
_cell_length_b   9.21481712
_cell_length_c   10.17325166
_cell_angle_alpha   91.12374371
_cell_angle_beta   90.13311910
_cell_angle_gamma   60.16859967
_symmetry_Int_Tables_number   1
_chemical_formula_structural   Al31B5N36
_chemical_formula_sum   'Al31 B5 N36'
_cell_volume   744.35606509
_cell_formula_units_Z   1
loop_
 _symmetry_equiv_pos_site_id
 _symmetry_equiv_pos_as_xyz
  1  'x, y, z'
loop_
 _atom_site_type_symbol
 _atom_site_label
 _atom_site_symmetry_multiplicity
 _atom_site_fract_x
 _atom_site_fract_y
 _atom_site_fract_z
 _atom_site_occupancy
  B  B0  1  0.11380586  0.09628388  0.30767365  1
  B  B1  1  0.58296529  0.48174168  0.15848609  1
  B  B2  1  0.23117979  0.88643757  0.15149557  1
  B  B3  1  0.53807778  0.88338876  0.10348043  1
  B  B4  1  0.77333324  0.76507945  0.35622440  1
  Al  Al5  1  0.22596691  0.19479289  0.07951195  1
  Al  Al6  1  0.78122065  0.09078310  0.81815254  1
  Al  Al7  1  0.90041876  0.19168113  0.56079348  1
  Al  Al8  1  0.45354825  0.08009163  0.31984787  1
  Al  Al9  1  0.56340802  0.19093524  0.07047254  1
  Al  Al10  1  0.10706724  0.10305918  0.82016847  1
  Al  Al11  1  0.22426699  0.19426680  0.55680111  1
  Al  Al12  1  0.78315151  0.08500927  0.31776454  1
  Al  Al13  1  0.89563712  0.19153451  0.07840018  1
  Al  Al14  1  0.43629010  0.10260725  0.81528481  1
  Al  Al15  1  0.56050614  0.19805406  0.56701434  1
  Al  Al16  1  0.10377910  0.43761449  0.38135147  1
  Al  Al17  1  0.22938181  0.54846100  0.14145479  1
  Al  Al18  1  0.76761842  0.43420430  0.90047150  1
  Al  Al19  1  0.89673080  0.52371406  0.64212170  1
  Al  Al20  1  0.44391911  0.43157887  0.38898143  1
  Al  Al21  1  0.10634491  0.43378940  0.89875713  1
  Al  Al22  1  0.22243926  0.53753743  0.63748187  1
  Al  Al23  1  0.78240967  0.43156512  0.38180609  1
  Al  Al24  1  0.86032874  0.56257105  0.14123120  1
  Al  Al25  1  0.44731678  0.43419757  0.89336290  1
  Al  Al26  1  0.55702747  0.53966943  0.64126097  1
  Al  Al27  1  0.11404291  0.76625549  0.36699482  1
  Al  Al28  1  0.77346266  0.76174635  0.83329658  1
  Al  Al29  1  0.88709091  0.86405973  0.56763207  1
  Al  Al30  1  0.45381715  0.75947466  0.37686803  1
  Al  Al31  1  0.11984187  0.76155306  0.88857441  1
  Al  Al32  1  0.22829296  0.86330384  0.63777652  1
  Al  Al33  1  0.87947977  0.87168267  0.07043413  1
  Al  Al34  1  0.43719227  0.77376535  0.90214081  1
  Al  Al35  1  0.55652608  0.86543038  0.62650751  1
  N  N36  1  0.21385837  0.18787575  0.36542311  1
  N  N37  1  0.11213133  0.09134814  0.14944137  1
  N  N38  1  0.89102235  0.19921785  0.89080422  1
  N  N39  1  0.78261639  0.09002103  0.62902811  1
  N  N40  1  0.56049933  0.19818928  0.37833848  1
  N  N41  1  0.45489426  0.07624435  0.13140560  1
  N  N42  1  0.22422660  0.20020556  0.89226755  1
  N  N43  1  0.11043283  0.09997467  0.63350711  1
  N  N44  1  0.92210651  0.18220757  0.36934616  1
  N  N45  1  0.77874426  0.08959771  0.13534896  1
  N  N46  1  0.55805557  0.20007352  0.88282666  1
  N  N47  1  0.43850080  0.10256568  0.62602729  1
  N  N48  1  0.22689087  0.53720607  0.32461333  1
  N  N49  1  0.09872082  0.44548473  0.08769369  1
  N  N50  1  0.89196948  0.52401416  0.83242331  1
  N  N51  1  0.77561157  0.42765090  0.56921947  1
  N  N52  1  0.56260704  0.52613439  0.30540578  1
  N  N53  1  0.46380300  0.43427938  0.08943367  1
  N  N54  1  0.22439866  0.53487872  0.83053069  1
  N  N55  1  0.11166262  0.42855197  0.56959393  1
  N  N56  1  0.87258160  0.57134321  0.33074005  1
  N  N57  1  0.75102766  0.43577575  0.09572327  1
  N  N58  1  0.55322586  0.54530599  0.83039829  1
  N  N59  1  0.44515618  0.43191309  0.57765263  1
  N  N60  1  0.22557446  0.88695709  0.31194962  1
  N  N61  1  0.12779337  0.77786545  0.09526871  1
  N  N62  1  0.88828559  0.87263450  0.88289916  1
  N  N63  1  0.78854504  0.75387361  0.63580930  1
  N  N64  1  0.59072596  0.85534538  0.36593583  1
  N  N65  1  0.41638333  0.81774259  0.08775450  1
  N  N66  1  0.22500984  0.86845133  0.82533041  1
  N  N67  1  0.11841305  0.75716913  0.57110865  1
  N  N68  1  0.87422223  0.85709638  0.37192654  1
  N  N69  1  0.72761573  0.78264697  0.08365703  1
  N  N70  1  0.54302597  0.87300527  0.82123714  1
  N  N71  1  0.44507369  0.75391004  0.56563245  1
