# generated using pymatgen
data_Al31B5N36
_symmetry_space_group_name_H-M   'P 1'
_cell_length_a   9.14551036
_cell_length_b   9.20549458
_cell_length_c   10.22166500
_cell_angle_alpha   91.32997364
_cell_angle_beta   90.79739884
_cell_angle_gamma   60.26449110
_symmetry_Int_Tables_number   1
_chemical_formula_structural   Al31B5N36
_chemical_formula_sum   'Al31 B5 N36'
_cell_volume   747.03334293
_cell_formula_units_Z   1
loop_
 _symmetry_equiv_pos_site_id
 _symmetry_equiv_pos_as_xyz
  1  'x, y, z'
loop_
 _atom_site_type_symbol
 _atom_site_label
 _atom_site_symmetry_multiplicity
 _atom_site_fract_x
 _atom_site_fract_y
 _atom_site_fract_z
 _atom_site_occupancy
  B  B0  1  0.11842714  0.09150245  0.36010215  1
  B  B1  1  0.58409092  0.48112702  0.16941287  1
  B  B2  1  0.22670163  0.88834063  0.14126412  1
  B  B3  1  0.53897555  0.88106155  0.11432950  1
  B  B4  1  0.77389313  0.76352634  0.36909705  1
  Al  Al5  1  0.22860184  0.19843139  0.08746243  1
  Al  Al6  1  0.77405844  0.08669070  0.83135361  1
  Al  Al7  1  0.89268966  0.20601932  0.65512060  1
  Al  Al8  1  0.45431247  0.07835105  0.33072323  1
  Al  Al9  1  0.56344856  0.19059232  0.08307699  1
  Al  Al10  1  0.10987626  0.08716721  0.89459714  1
  Al  Al11  1  0.22142290  0.19604065  0.56997514  1
  Al  Al12  1  0.78251068  0.07991841  0.33356613  1
  Al  Al13  1  0.90071750  0.19727119  0.15254881  1
  Al  Al14  1  0.43286542  0.10420874  0.82346824  1
  Al  Al15  1  0.55860439  0.19869691  0.57762790  1
  Al  Al16  1  0.10340042  0.44099107  0.39347854  1
  Al  Al17  1  0.23013284  0.55143592  0.15532477  1
  Al  Al18  1  0.77163879  0.42805267  0.91044542  1
  Al  Al19  1  0.89787625  0.52487666  0.65516854  1
  Al  Al20  1  0.44584438  0.43187636  0.40043891  1
  Al  Al21  1  0.10600372  0.43674845  0.90903635  1
  Al  Al22  1  0.22304832  0.53882653  0.65037046  1
  Al  Al23  1  0.78780858  0.42555115  0.40037281  1
  Al  Al24  1  0.86059981  0.56200048  0.15357569  1
  Al  Al25  1  0.44740751  0.43412340  0.90583207  1
  Al  Al26  1  0.55563292  0.54118480  0.65292060  1
  Al  Al27  1  0.11676859  0.76760847  0.39522456  1
  Al  Al28  1  0.77405111  0.76213937  0.84296461  1
  Al  Al29  1  0.88545163  0.86597393  0.58154439  1
  Al  Al30  1  0.45218691  0.76076599  0.38656763  1
  Al  Al31  1  0.12364808  0.75962765  0.90631946  1
  Al  Al32  1  0.22540106  0.86994169  0.65045612  1
  Al  Al33  1  0.87891900  0.87252001  0.08167312  1
  Al  Al34  1  0.44336506  0.76889691  0.90995718  1
  Al  Al35  1  0.55543427  0.86603710  0.63627390  1
  N  N36  1  0.21420500  0.18890618  0.37362259  1
  N  N37  1  0.11711795  0.07265666  0.08971680  1
  N  N38  1  0.88461865  0.20978935  0.84724017  1
  N  N39  1  0.77534312  0.08654109  0.64316347  1
  N  N40  1  0.56002479  0.19847116  0.38980807  1
  N  N41  1  0.45470413  0.07451471  0.14360991  1
  N  N42  1  0.22488526  0.20641291  0.89962271  1
  N  N43  1  0.11082939  0.08969644  0.61092091  1
  N  N44  1  0.92601357  0.19053416  0.34305143  1
  N  N45  1  0.77801348  0.08739729  0.14972457  1
  N  N46  1  0.55552707  0.19999594  0.89735440  1
  N  N47  1  0.43722178  0.10303894  0.63559895  1
  N  N48  1  0.22652836  0.54228026  0.33764551  1
  N  N49  1  0.09903882  0.44726306  0.09988674  1
  N  N50  1  0.89046816  0.52706624  0.84524903  1
  N  N51  1  0.77775559  0.42354253  0.58534923  1
  N  N52  1  0.56702230  0.52375721  0.31683822  1
  N  N53  1  0.46365688  0.43434863  0.10208514  1
  N  N54  1  0.22435195  0.53693899  0.84167037  1
  N  N55  1  0.11107996  0.43013593  0.58053422  1
  N  N56  1  0.87215577  0.57030694  0.34359926  1
  N  N57  1  0.75541205  0.42895313  0.10492127  1
  N  N58  1  0.55420650  0.54371838  0.84180236  1
  N  N59  1  0.44437279  0.43240722  0.58830989  1
  N  N60  1  0.21504583  0.90056375  0.32380344  1
  N  N61  1  0.13502109  0.77449278  0.09781946  1
  N  N62  1  0.89009713  0.87151672  0.89687468  1
  N  N63  1  0.78822462  0.75388340  0.64747375  1
  N  N64  1  0.59104082  0.85469965  0.37797859  1
  N  N65  1  0.42138813  0.81057845  0.09671116  1
  N  N66  1  0.22670273  0.86616111  0.83618987  1
  N  N67  1  0.11900503  0.75682980  0.58296076  1
  N  N68  1  0.87591778  0.85505230  0.38682752  1
  N  N69  1  0.72807947  0.78210758  0.09726982  1
  N  N70  1  0.54343597  0.87390878  0.83069092  1
  N  N71  1  0.44388152  0.75325362  0.57568906  1
