# generated using pymatgen
data_Al31B5N36
_symmetry_space_group_name_H-M   'P 1'
_cell_length_a   9.15914930
_cell_length_b   9.22770724
_cell_length_c   9.78608041
_cell_angle_alpha   89.87999709
_cell_angle_beta   90.01051443
_cell_angle_gamma   60.27392318
_symmetry_Int_Tables_number   1
_chemical_formula_structural   Al31B5N36
_chemical_formula_sum   'Al31 B5 N36'
_cell_volume   718.25576870
_cell_formula_units_Z   1
loop_
 _symmetry_equiv_pos_site_id
 _symmetry_equiv_pos_as_xyz
  1  'x, y, z'
loop_
 _atom_site_type_symbol
 _atom_site_label
 _atom_site_symmetry_multiplicity
 _atom_site_fract_x
 _atom_site_fract_y
 _atom_site_fract_z
 _atom_site_occupancy
  B  B0  1  0.11624471  0.08787433  0.30349376  1
  B  B1  1  0.58090141  0.48910090  0.04566039  1
  B  B2  1  0.22877980  0.87930535  0.06287397  1
  B  B3  1  0.53420170  0.88413125  0.06011371  1
  B  B4  1  0.76808641  0.76423198  0.30278808  1
  Al  Al5  1  0.22310258  0.19957496  0.06744785  1
  Al  Al6  1  0.78155531  0.09056493  0.80918009  1
  Al  Al7  1  0.89564678  0.20225839  0.55530779  1
  Al  Al8  1  0.44947859  0.08276387  0.30648754  1
  Al  Al9  1  0.56101914  0.19644884  0.05815094  1
  Al  Al10  1  0.11374365  0.09217985  0.81726823  1
  Al  Al11  1  0.22021015  0.20156021  0.55523916  1
  Al  Al12  1  0.78169258  0.08767678  0.31120466  1
  Al  Al13  1  0.89421988  0.19704743  0.06650883  1
  Al  Al14  1  0.44403411  0.08992134  0.81516487  1
  Al  Al15  1  0.55476238  0.20471795  0.55993104  1
  Al  Al16  1  0.10541052  0.43089015  0.30896523  1
  Al  Al17  1  0.22917575  0.54691929  0.05940914  1
  Al  Al18  1  0.78133630  0.42425072  0.81341913  1
  Al  Al19  1  0.88415678  0.54480325  0.55540117  1
  Al  Al20  1  0.44839412  0.43029451  0.30594612  1
  Al  Al21  1  0.10970964  0.42828423  0.81147727  1
  Al  Al22  1  0.22307410  0.54023289  0.55978518  1
  Al  Al23  1  0.77337293  0.43204604  0.30704107  1
  Al  Al24  1  0.87362054  0.54912317  0.06623483  1
  Al  Al25  1  0.44572297  0.42478724  0.81275287  1
  Al  Al26  1  0.55308610  0.54365211  0.56195148  1
  Al  Al27  1  0.11142205  0.76841234  0.30736990  1
  Al  Al28  1  0.77475664  0.76264651  0.81904126  1
  Al  Al29  1  0.88775485  0.86712231  0.55569944  1
  Al  Al30  1  0.44372744  0.77020130  0.29529510  1
  Al  Al31  1  0.11204192  0.76531870  0.81721008  1
  Al  Al32  1  0.22439256  0.87573864  0.56097118  1
  Al  Al33  1  0.88944723  0.86931674  0.06905909  1
  Al  Al34  1  0.44578903  0.75833639  0.84168734  1
  Al  Al35  1  0.55854956  0.86664439  0.56050803  1
  N  N36  1  0.21141833  0.19247331  0.35755290  1
  N  N37  1  0.11860699  0.07778753  0.13418192  1
  N  N38  1  0.89072139  0.20313223  0.87345194  1
  N  N39  1  0.78113798  0.09118070  0.61351038  1
  N  N40  1  0.55287944  0.20721213  0.36575169  1
  N  N41  1  0.45444013  0.07570162  0.11328547  1
  N  N42  1  0.22106671  0.20730816  0.87415818  1
  N  N43  1  0.11243091  0.09258117  0.62636940  1
  N  N44  1  0.91302324  0.19516408  0.35834944  1
  N  N45  1  0.77900283  0.09087656  0.12136046  1
  N  N46  1  0.55764203  0.20208589  0.86658920  1
  N  N47  1  0.44408598  0.09027663  0.61899549  1
  N  N48  1  0.22391981  0.54071363  0.36486543  1
  N  N49  1  0.11044681  0.43212446  0.11738272  1
  N  N50  1  0.88688173  0.54031049  0.87381064  1
  N  N51  1  0.77861705  0.42576036  0.61806204  1
  N  N52  1  0.55007931  0.54837131  0.36909948  1
  N  N53  1  0.46458600  0.43108537  0.10935130  1
  N  N54  1  0.22271880  0.54043922  0.86793958  1
  N  N55  1  0.11017462  0.42633833  0.61396045  1
  N  N56  1  0.87305403  0.56365895  0.35766891  1
  N  N57  1  0.75265112  0.43286918  0.11180265  1
  N  N58  1  0.56187696  0.52707521  0.89260031  1
  N  N59  1  0.44655110  0.42680008  0.62078031  1
  N  N60  1  0.21280384  0.89841711  0.36605671  1
  N  N61  1  0.13004081  0.77367823  0.11538701  1
  N  N62  1  0.88911011  0.87108379  0.87538188  1
  N  N63  1  0.77690047  0.76049994  0.62713950  1
  N  N64  1  0.57990132  0.85803586  0.36609079  1
  N  N65  1  0.42295934  0.80325371  0.10639989  1
  N  N66  1  0.21922174  0.87784324  0.89637590  1
  N  N67  1  0.11185971  0.76321032  0.61991753  1
  N  N68  1  0.87846310  0.85678381  0.35891488  1
  N  N69  1  0.75425650  0.77138718  0.13581019  1
  N  N70  1  0.55680807  0.87372935  0.89657450  1
  N  N71  1  0.44489392  0.76004206  0.63682973  1
