# generated using pymatgen
data_Al31B5N36
_symmetry_space_group_name_H-M   'P 1'
_cell_length_a   9.14905092
_cell_length_b   9.21770160
_cell_length_c   10.16370400
_cell_angle_alpha   91.23726883
_cell_angle_beta   90.68142660
_cell_angle_gamma   60.26435085
_symmetry_Int_Tables_number   1
_chemical_formula_structural   Al31B5N36
_chemical_formula_sum   'Al31 B5 N36'
_cell_volume   744.09839686
_cell_formula_units_Z   1
loop_
 _symmetry_equiv_pos_site_id
 _symmetry_equiv_pos_as_xyz
  1  'x, y, z'
loop_
 _atom_site_type_symbol
 _atom_site_label
 _atom_site_symmetry_multiplicity
 _atom_site_fract_x
 _atom_site_fract_y
 _atom_site_fract_z
 _atom_site_occupancy
  B  B0  1  0.11535850  0.09124085  0.37909648  1
  B  B1  1  0.58406230  0.48120788  0.16879374  1
  B  B2  1  0.22579616  0.89029013  0.15007106  1
  B  B3  1  0.53957184  0.88102956  0.11489969  1
  B  B4  1  0.77360422  0.76378631  0.36866456  1
  Al  Al5  1  0.22831331  0.19921783  0.09099633  1
  Al  Al6  1  0.77575868  0.08675656  0.83011802  1
  Al  Al7  1  0.89505083  0.20355581  0.64910073  1
  Al  Al8  1  0.45336980  0.07903949  0.33070028  1
  Al  Al9  1  0.56428664  0.19072612  0.08313232  1
  Al  Al10  1  0.10981826  0.08640590  0.90173263  1
  Al  Al11  1  0.22323718  0.19695325  0.56762490  1
  Al  Al12  1  0.78166282  0.08101831  0.33476098  1
  Al  Al13  1  0.90123460  0.19806530  0.15636834  1
  Al  Al14  1  0.43345634  0.10349116  0.82496043  1
  Al  Al15  1  0.55805024  0.19851051  0.57807885  1
  Al  Al16  1  0.10335812  0.44031862  0.39266870  1
  Al  Al17  1  0.22997655  0.55123564  0.15496858  1
  Al  Al18  1  0.77272475  0.42685259  0.90907241  1
  Al  Al19  1  0.89699507  0.52597386  0.65588722  1
  Al  Al20  1  0.44572138  0.43159050  0.40029221  1
  Al  Al21  1  0.10639700  0.43633575  0.90932163  1
  Al  Al22  1  0.22282835  0.53862486  0.65061201  1
  Al  Al23  1  0.78679557  0.42632295  0.40033053  1
  Al  Al24  1  0.86061135  0.56190409  0.15279907  1
  Al  Al25  1  0.44750820  0.43418480  0.90551389  1
  Al  Al26  1  0.55566100  0.54099190  0.65303265  1
  Al  Al27  1  0.11683629  0.76661829  0.39334863  1
  Al  Al28  1  0.77368243  0.76271319  0.84545432  1
  Al  Al29  1  0.88562378  0.86500506  0.58092844  1
  Al  Al30  1  0.45258110  0.76009106  0.38459436  1
  Al  Al31  1  0.12368331  0.76085752  0.90647810  1
  Al  Al32  1  0.22531283  0.86941734  0.64660790  1
  Al  Al33  1  0.87950007  0.87302976  0.08287806  1
  Al  Al34  1  0.44259468  0.76962709  0.91120845  1
  Al  Al35  1  0.55570922  0.86532815  0.63601314  1
  N  N36  1  0.21459413  0.19125915  0.37309320  1
  N  N37  1  0.11705647  0.07339245  0.09282503  1
  N  N38  1  0.88945505  0.20834154  0.84227558  1
  N  N39  1  0.77603511  0.08593738  0.64124552  1
  N  N40  1  0.55890153  0.19875060  0.38974329  1
  N  N41  1  0.45584789  0.07418362  0.14269666  1
  N  N42  1  0.22416256  0.20607195  0.89964947  1
  N  N43  1  0.10916386  0.08351209  0.58092851  1
  N  N44  1  0.92255448  0.19242223  0.34551616  1
  N  N45  1  0.77842911  0.08820593  0.14969980  1
  N  N46  1  0.55668003  0.20029111  0.89616831  1
  N  N47  1  0.43651917  0.10228326  0.63635221  1
  N  N48  1  0.22667333  0.54144576  0.33795380  1
  N  N49  1  0.09943855  0.44674128  0.10057824  1
  N  N50  1  0.89052623  0.52776204  0.84639957  1
  N  N51  1  0.77809914  0.42380698  0.58610995  1
  N  N52  1  0.56673714  0.52387274  0.31673532  1
  N  N53  1  0.46363192  0.43425267  0.10184449  1
  N  N54  1  0.22422386  0.53786032  0.84252164  1
  N  N55  1  0.11063072  0.42965351  0.58212783  1
  N  N56  1  0.87163942  0.57076270  0.34369614  1
  N  N57  1  0.75579486  0.42834813  0.10414838  1
  N  N58  1  0.55405151  0.54440059  0.84238621  1
  N  N59  1  0.44459653  0.43183934  0.58923911  1
  N  N60  1  0.21497244  0.89980662  0.32221254  1
  N  N61  1  0.13402554  0.77480104  0.09928675  1
  N  N62  1  0.89046702  0.87242332  0.89662639  1
  N  N63  1  0.78786290  0.75416413  0.64777567  1
  N  N64  1  0.59070466  0.85517927  0.37791827  1
  N  N65  1  0.42162718  0.81076874  0.09929845  1
  N  N66  1  0.22505206  0.87000827  0.83382585  1
  N  N67  1  0.11897926  0.75571865  0.58246622  1
  N  N68  1  0.87578501  0.85495709  0.38571537  1
  N  N69  1  0.72876252  0.78204277  0.09643476  1
  N  N70  1  0.54334322  0.87376540  0.83158903  1
  N  N71  1  0.44445195  0.75249506  0.57509197  1
