# generated using pymatgen
data_Al31B5N36
_symmetry_space_group_name_H-M   'P 1'
_cell_length_a   9.12519958
_cell_length_b   9.20777022
_cell_length_c   10.06200233
_cell_angle_alpha   89.66524102
_cell_angle_beta   89.92756382
_cell_angle_gamma   60.35037865
_symmetry_Int_Tables_number   1
_chemical_formula_structural   Al31B5N36
_chemical_formula_sum   'Al31 B5 N36'
_cell_volume   734.72743331
_cell_formula_units_Z   1
loop_
 _symmetry_equiv_pos_site_id
 _symmetry_equiv_pos_as_xyz
  1  'x, y, z'
loop_
 _atom_site_type_symbol
 _atom_site_label
 _atom_site_symmetry_multiplicity
 _atom_site_fract_x
 _atom_site_fract_y
 _atom_site_fract_z
 _atom_site_occupancy
  B  B0  1  0.11194548  0.09185933  0.30978885  1
  B  B1  1  0.58867176  0.47385705  0.04921773  1
  B  B2  1  0.22431589  0.89008194  0.08620998  1
  B  B3  1  0.54164570  0.88372925  0.10488746  1
  B  B4  1  0.77401377  0.76516637  0.35346182  1
  Al  Al5  1  0.22279825  0.20127778  0.06936481  1
  Al  Al6  1  0.78221812  0.08958834  0.80874184  1
  Al  Al7  1  0.89364271  0.20456467  0.55655052  1
  Al  Al8  1  0.45138717  0.08507884  0.31498501  1
  Al  Al9  1  0.56279285  0.19237455  0.05919361  1
  Al  Al10  1  0.11662168  0.08834112  0.81600040  1
  Al  Al11  1  0.21940050  0.20388415  0.55441220  1
  Al  Al12  1  0.78222618  0.08751415  0.31139626  1
  Al  Al13  1  0.89728941  0.19248693  0.06427413  1
  Al  Al14  1  0.43928042  0.09586995  0.81115903  1
  Al  Al15  1  0.55489266  0.20577348  0.55971398  1
  Al  Al16  1  0.10492094  0.43449896  0.30925064  1
  Al  Al17  1  0.22860765  0.55009488  0.05859369  1
  Al  Al18  1  0.78103167  0.42247096  0.81482435  1
  Al  Al19  1  0.88588860  0.54237644  0.56245023  1
  Al  Al20  1  0.45032697  0.42805944  0.30416695  1
  Al  Al21  1  0.11246728  0.42501855  0.81119638  1
  Al  Al22  1  0.22446786  0.53921107  0.56006153  1
  Al  Al23  1  0.77641007  0.43235971  0.30478227  1
  Al  Al24  1  0.86682542  0.55237460  0.05780367  1
  Al  Al25  1  0.44653216  0.42501180  0.81557985  1
  Al  Al26  1  0.55767746  0.53272840  0.55824836  1
  Al  Al27  1  0.11207593  0.76775601  0.30844865  1
  Al  Al28  1  0.77893839  0.75801578  0.82044467  1
  Al  Al29  1  0.88724349  0.86838146  0.56132157  1
  Al  Al30  1  0.45023872  0.76909834  0.37035511  1
  Al  Al31  1  0.11548001  0.76227607  0.81213678  1
  Al  Al32  1  0.21206459  0.88234145  0.55971606  1
  Al  Al33  1  0.88367121  0.87103285  0.06025414  1
  Al  Al34  1  0.44665051  0.76355840  0.91072964  1
  Al  Al35  1  0.55107049  0.86632844  0.62526731  1
  N  N36  1  0.20993622  0.19552858  0.36070285  1
  N  N37  1  0.11835362  0.07935051  0.14006905  1
  N  N38  1  0.89208311  0.20068779  0.87564434  1
  N  N39  1  0.78048148  0.09246283  0.61692704  1
  N  N40  1  0.55581310  0.20803328  0.36993173  1
  N  N41  1  0.45369378  0.07789645  0.12363304  1
  N  N42  1  0.22132395  0.20576312  0.88010444  1
  N  N43  1  0.11038050  0.09655852  0.62777274  1
  N  N44  1  0.91246282  0.19734980  0.36172321  1
  N  N45  1  0.78107641  0.08778071  0.12486981  1
  N  N46  1  0.55846023  0.19968404  0.87175743  1
  N  N47  1  0.43861562  0.10131023  0.61883989  1
  N  N48  1  0.22648184  0.54036132  0.36781109  1
  N  N49  1  0.10420710  0.43865448  0.12078347  1
  N  N50  1  0.89097785  0.53376128  0.87166163  1
  N  N51  1  0.77761210  0.42530861  0.62382669  1
  N  N52  1  0.56022421  0.53315309  0.36917678  1
  N  N53  1  0.46551660  0.42663175  0.11207302  1
  N  N54  1  0.22319023  0.53887951  0.87131513  1
  N  N55  1  0.11212222  0.42541383  0.61759362  1
  N  N56  1  0.87309834  0.56780582  0.36655231  1
  N  N57  1  0.75730480  0.42751424  0.11396410  1
  N  N58  1  0.56538842  0.52148187  0.90253108  1
  N  N59  1  0.44680431  0.42618217  0.62692443  1
  N  N60  1  0.20219937  0.90579768  0.36723581  1
  N  N61  1  0.12995223  0.77670721  0.12052178  1
  N  N62  1  0.89242857  0.87011343  0.87215761  1
  N  N63  1  0.78567528  0.75524310  0.62837414  1
  N  N64  1  0.59125039  0.86053978  0.35983145  1
  N  N65  1  0.42203098  0.81312714  0.09623536  1
  N  N66  1  0.21749936  0.87449090  0.88533127  1
  N  N67  1  0.11158416  0.76098518  0.62016540  1
  N  N68  1  0.87988749  0.85567777  0.36710452  1
  N  N69  1  0.73052906  0.78326506  0.08638223  1
  N  N70  1  0.54592410  0.86525249  0.81952961  1
  N  N71  1  0.44101282  0.76020017  0.56741728  1
