# generated using pymatgen
data_Al31B5N36
_symmetry_space_group_name_H-M   'P 1'
_cell_length_a   9.14185695
_cell_length_b   9.18533987
_cell_length_c   10.35940472
_cell_angle_alpha   91.44132246
_cell_angle_beta   90.84002622
_cell_angle_gamma   60.22241693
_symmetry_Int_Tables_number   1
_chemical_formula_structural   Al31B5N36
_chemical_formula_sum   'Al31 B5 N36'
_cell_volume   754.78853028
_cell_formula_units_Z   1
loop_
 _symmetry_equiv_pos_site_id
 _symmetry_equiv_pos_as_xyz
  1  'x, y, z'
loop_
 _atom_site_type_symbol
 _atom_site_label
 _atom_site_symmetry_multiplicity
 _atom_site_fract_x
 _atom_site_fract_y
 _atom_site_fract_z
 _atom_site_occupancy
  B  B0  1  0.11861690  0.08557651  0.35991876  1
  B  B1  1  0.58545355  0.47889879  0.16814028  1
  B  B2  1  0.22781975  0.89008104  0.09943507  1
  B  B3  1  0.53753794  0.88312204  0.10618994  1
  B  B4  1  0.77202258  0.76281297  0.36662503  1
  Al  Al5  1  0.22749931  0.19461031  0.07688358  1
  Al  Al6  1  0.77425222  0.08768249  0.82839409  1
  Al  Al7  1  0.88461249  0.21074430  0.65133231  1
  Al  Al8  1  0.45079846  0.07762232  0.32635574  1
  Al  Al9  1  0.56340050  0.19060879  0.08125710  1
  Al  Al10  1  0.11506281  0.09705952  0.83834312  1
  Al  Al11  1  0.22222988  0.19624480  0.56906340  1
  Al  Al12  1  0.78164018  0.07785831  0.33039509  1
  Al  Al13  1  0.90356000  0.19352197  0.15195252  1
  Al  Al14  1  0.43661676  0.10677348  0.82062101  1
  Al  Al15  1  0.55788522  0.19838826  0.57204319  1
  Al  Al16  1  0.10291067  0.43977966  0.39191419  1
  Al  Al17  1  0.23019435  0.55403707  0.15251278  1
  Al  Al18  1  0.77304456  0.42714913  0.90946745  1
  Al  Al19  1  0.89852814  0.52373135  0.65231777  1
  Al  Al20  1  0.44438547  0.43176404  0.39645628  1
  Al  Al21  1  0.10620948  0.43905057  0.90668412  1
  Al  Al22  1  0.22382100  0.53715467  0.64901689  1
  Al  Al23  1  0.78676686  0.42518036  0.39642854  1
  Al  Al24  1  0.86080414  0.56193539  0.15131580  1
  Al  Al25  1  0.44809597  0.43531680  0.90525954  1
  Al  Al26  1  0.55691454  0.53887205  0.65104079  1
  Al  Al27  1  0.11482971  0.76628773  0.39948176  1
  Al  Al28  1  0.77595686  0.76099599  0.83796925  1
  Al  Al29  1  0.88287516  0.86554025  0.57904653  1
  Al  Al30  1  0.44846803  0.76291917  0.39205440  1
  Al  Al31  1  0.12342152  0.76131359  0.89812599  1
  Al  Al32  1  0.22715079  0.86630084  0.64309158  1
  Al  Al33  1  0.87862405  0.87328144  0.07494402  1
  Al  Al34  1  0.44505658  0.76829106  0.89948628  1
  Al  Al35  1  0.55572298  0.86679353  0.63758795  1
  N  N36  1  0.21252107  0.18666911  0.37831617  1
  N  N37  1  0.11940796  0.07192716  0.09452488  1
  N  N38  1  0.88118025  0.21236229  0.84228798  1
  N  N39  1  0.77383774  0.08666122  0.64029020  1
  N  N40  1  0.55807344  0.19729612  0.38657453  1
  N  N41  1  0.45226068  0.07565315  0.14012285  1
  N  N42  1  0.22744449  0.20745263  0.89467768  1
  N  N43  1  0.11445941  0.09954656  0.64426741  1
  N  N44  1  0.92396420  0.18896350  0.34288546  1
  N  N45  1  0.77822528  0.08537037  0.14844690  1
  N  N46  1  0.55769368  0.20048922  0.89739397  1
  N  N47  1  0.43810684  0.10411287  0.63477178  1
  N  N48  1  0.22424102  0.54326823  0.33369655  1
  N  N49  1  0.09895358  0.44877627  0.09458165  1
  N  N50  1  0.89175741  0.52559922  0.84092138  1
  N  N51  1  0.77754415  0.42419711  0.58011515  1
  N  N52  1  0.56574907  0.52390188  0.31379459  1
  N  N53  1  0.46396110  0.43482519  0.10009187  1
  N  N54  1  0.22623936  0.53606617  0.83795742  1
  N  N55  1  0.11073469  0.43101470  0.57724877  1
  N  N56  1  0.87199705  0.56909761  0.33983389  1
  N  N57  1  0.75655242  0.42719512  0.10344050  1
  N  N58  1  0.55660531  0.54141526  0.83798877  1
  N  N59  1  0.44385857  0.43306294  0.58312762  1
  N  N60  1  0.21014163  0.90217413  0.36303956  1
  N  N61  1  0.13968420  0.77573805  0.08719290  1
  N  N62  1  0.88977427  0.87182248  0.89291049  1
  N  N63  1  0.78789099  0.75301502  0.64575115  1
  N  N64  1  0.58903928  0.85369623  0.37362563  1
  N  N65  1  0.41968762  0.81300781  0.08143242  1
  N  N66  1  0.22950413  0.86321070  0.82838438  1
  N  N67  1  0.11592479  0.75576690  0.58425984  1
  N  N68  1  0.87390992  0.85417805  0.38723935  1
  N  N69  1  0.72733065  0.78223548  0.09329620  1
  N  N70  1  0.54530701  0.87600884  0.82749556  1
  N  N71  1  0.44817136  0.75140935  0.57787200  1
