# generated using pymatgen
data_Al31B5N36
_symmetry_space_group_name_H-M   'P 1'
_cell_length_a   9.15091909
_cell_length_b   9.22904141
_cell_length_c   9.88299148
_cell_angle_alpha   89.98759282
_cell_angle_beta   90.33042034
_cell_angle_gamma   60.35229320
_symmetry_Int_Tables_number   1
_chemical_formula_structural   Al31B5N36
_chemical_formula_sum   'Al31 B5 N36'
_cell_volume   725.37274165
_cell_formula_units_Z   1
loop_
 _symmetry_equiv_pos_site_id
 _symmetry_equiv_pos_as_xyz
  1  'x, y, z'
loop_
 _atom_site_type_symbol
 _atom_site_label
 _atom_site_symmetry_multiplicity
 _atom_site_fract_x
 _atom_site_fract_y
 _atom_site_fract_z
 _atom_site_occupancy
  B  B0  1  0.11175089  0.08919673  0.30648084  1
  B  B1  1  0.58862153  0.47232224  0.04983821  1
  B  B2  1  0.21215813  0.89009140  0.07229626  1
  B  B3  1  0.54259006  0.88535616  0.09682151  1
  B  B4  1  0.76759095  0.76705022  0.30872680  1
  Al  Al5  1  0.22356465  0.19893609  0.06902909  1
  Al  Al6  1  0.78093206  0.08948674  0.80973671  1
  Al  Al7  1  0.89530811  0.20317529  0.55832553  1
  Al  Al8  1  0.44777418  0.08728064  0.31581172  1
  Al  Al9  1  0.56132880  0.19244990  0.05792025  1
  Al  Al10  1  0.11640597  0.09041705  0.81892832  1
  Al  Al11  1  0.21899159  0.20312644  0.55678514  1
  Al  Al12  1  0.78202227  0.08786357  0.31200014  1
  Al  Al13  1  0.89440534  0.19465460  0.06450253  1
  Al  Al14  1  0.44401283  0.08770440  0.81057311  1
  Al  Al15  1  0.55535718  0.20731691  0.56149040  1
  Al  Al16  1  0.10512197  0.43216127  0.31065257  1
  Al  Al17  1  0.22893298  0.54653898  0.06002821  1
  Al  Al18  1  0.77985089  0.42594586  0.81417273  1
  Al  Al19  1  0.88472028  0.54438082  0.55554068  1
  Al  Al20  1  0.44919856  0.42791921  0.30642335  1
  Al  Al21  1  0.11016272  0.42802064  0.81275855  1
  Al  Al22  1  0.22405180  0.54178625  0.56255423  1
  Al  Al23  1  0.77678449  0.42879845  0.30712290  1
  Al  Al24  1  0.87150979  0.54926510  0.06631138  1
  Al  Al25  1  0.44573582  0.42585933  0.81443496  1
  Al  Al26  1  0.55434635  0.54221016  0.55812753  1
  Al  Al27  1  0.10952378  0.76806402  0.30880131  1
  Al  Al28  1  0.77519719  0.76075485  0.81349684  1
  Al  Al29  1  0.88911804  0.86769859  0.55642895  1
  Al  Al30  1  0.44394506  0.76861346  0.31762588  1
  Al  Al31  1  0.11396895  0.76580604  0.81870281  1
  Al  Al32  1  0.22100585  0.87857994  0.55810204  1
  Al  Al33  1  0.88679136  0.86971176  0.06758472  1
  Al  Al34  1  0.44988035  0.75969174  0.91752130  1
  Al  Al35  1  0.55962903  0.86843524  0.56286058  1
  N  N36  1  0.20916451  0.19440024  0.35996518  1
  N  N37  1  0.11656745  0.07818690  0.13661447  1
  N  N38  1  0.89106576  0.20266633  0.87375641  1
  N  N39  1  0.78157294  0.09122366  0.61567021  1
  N  N40  1  0.55512135  0.20786702  0.36911791  1
  N  N41  1  0.45497733  0.07547720  0.12268194  1
  N  N42  1  0.22290391  0.20694311  0.87734695  1
  N  N43  1  0.11256301  0.09338160  0.62926861  1
  N  N44  1  0.91318904  0.19496622  0.36117326  1
  N  N45  1  0.77918747  0.08949075  0.12276426  1
  N  N46  1  0.55671779  0.20142574  0.86833286  1
  N  N47  1  0.44311273  0.09492305  0.61647191  1
  N  N48  1  0.22509032  0.54096425  0.36760359  1
  N  N49  1  0.10900327  0.43332296  0.11984746  1
  N  N50  1  0.88739131  0.54013579  0.87594709  1
  N  N51  1  0.77889582  0.42622993  0.62053707  1
  N  N52  1  0.55677207  0.53854676  0.36621636  1
  N  N53  1  0.46531898  0.42551424  0.11185367  1
  N  N54  1  0.22308857  0.54100974  0.87047786  1
  N  N55  1  0.11069281  0.42725195  0.61643446  1
  N  N56  1  0.87324313  0.56409633  0.35846091  1
  N  N57  1  0.75676560  0.42696162  0.11395564  1
  N  N58  1  0.56398254  0.52265645  0.90216540  1
  N  N59  1  0.44776541  0.42777622  0.62433362  1
  N  N60  1  0.20400115  0.90313098  0.36433091  1
  N  N61  1  0.12721351  0.77392647  0.11898500  1
  N  N62  1  0.88969962  0.86949952  0.87633183  1
  N  N63  1  0.78147835  0.75891340  0.62433218  1
  N  N64  1  0.58294092  0.86212456  0.36808248  1
  N  N65  1  0.42785723  0.80309603  0.11539188  1
  N  N66  1  0.21523668  0.88043992  0.90742012  1
  N  N67  1  0.11175759  0.76471203  0.62307987  1
  N  N68  1  0.87849238  0.85704182  0.36011842  1
  N  N69  1  0.74532301  0.77537691  0.13920462  1
  N  N70  1  0.55800993  0.87170088  0.87496778  1
  N  N71  1  0.44261412  0.76165281  0.59407437  1
