# generated using pymatgen
data_Al31B5N36
_symmetry_space_group_name_H-M   'P 1'
_cell_length_a   9.11648863
_cell_length_b   9.19392111
_cell_length_c   10.19631882
_cell_angle_alpha   89.69288955
_cell_angle_beta   89.98407324
_cell_angle_gamma   60.31356042
_symmetry_Int_Tables_number   1
_chemical_formula_structural   Al31B5N36
_chemical_formula_sum   'Al31 B5 N36'
_cell_volume   742.43443006
_cell_formula_units_Z   1
loop_
 _symmetry_equiv_pos_site_id
 _symmetry_equiv_pos_as_xyz
  1  'x, y, z'
loop_
 _atom_site_type_symbol
 _atom_site_label
 _atom_site_symmetry_multiplicity
 _atom_site_fract_x
 _atom_site_fract_y
 _atom_site_fract_z
 _atom_site_occupancy
  B  B0  1  0.11202191  0.09388653  0.36495809  1
  B  B1  1  0.58712883  0.47535541  0.06048968  1
  B  B2  1  0.22530597  0.89489437  0.11410489  1
  B  B3  1  0.53966503  0.88349759  0.11192322  1
  B  B4  1  0.77298089  0.76552108  0.36585110  1
  Al  Al5  1  0.22301728  0.20051054  0.07293232  1
  Al  Al6  1  0.78042694  0.08886468  0.81835685  1
  Al  Al7  1  0.89420166  0.20345964  0.57357239  1
  Al  Al8  1  0.45072868  0.08384308  0.32550721  1
  Al  Al9  1  0.56131687  0.19216887  0.07058175  1
  Al  Al10  1  0.11342683  0.09262056  0.83236407  1
  Al  Al11  1  0.22098301  0.20380537  0.57122910  1
  Al  Al12  1  0.78291162  0.08753463  0.32230510  1
  Al  Al13  1  0.89331621  0.19304681  0.06908039  1
  Al  Al14  1  0.44156261  0.09523602  0.81991242  1
  Al  Al15  1  0.55572624  0.20597201  0.56934554  1
  Al  Al16  1  0.10358269  0.43501742  0.31992354  1
  Al  Al17  1  0.22870189  0.54927301  0.07068708  1
  Al  Al18  1  0.77839096  0.42452092  0.82441016  1
  Al  Al19  1  0.88731213  0.54181467  0.57331698  1
  Al  Al20  1  0.45007963  0.42922079  0.31448708  1
  Al  Al21  1  0.11279170  0.42477252  0.82006629  1
  Al  Al22  1  0.22516177  0.53848501  0.56819893  1
  Al  Al23  1  0.77511169  0.43480213  0.31630350  1
  Al  Al24  1  0.86601658  0.55163394  0.06759774  1
  Al  Al25  1  0.44650028  0.42445082  0.82696968  1
  Al  Al26  1  0.55920869  0.53123533  0.56888702  1
  Al  Al27  1  0.11273482  0.77135524  0.32060012  1
  Al  Al28  1  0.78060698  0.75681636  0.83056684  1
  Al  Al29  1  0.88981571  0.86786230  0.56976298  1
  Al  Al30  1  0.44265291  0.77514168  0.39317943  1
  Al  Al31  1  0.11064694  0.75390199  0.82047444  1
  Al  Al32  1  0.22942297  0.86930867  0.63931354  1
  Al  Al33  1  0.88267359  0.87195090  0.07208277  1
  Al  Al34  1  0.44275357  0.76430573  0.91432718  1
  Al  Al35  1  0.55635253  0.86577579  0.63639214  1
  N  N36  1  0.20800706  0.19535287  0.37908644  1
  N  N37  1  0.11913303  0.07484882  0.10639217  1
  N  N38  1  0.88628630  0.20278740  0.88284618  1
  N  N39  1  0.78033254  0.09107440  0.62873446  1
  N  N40  1  0.55542096  0.20837974  0.38089701  1
  N  N41  1  0.45131341  0.07781481  0.13603982  1
  N  N42  1  0.22468388  0.20692525  0.88662647  1
  N  N43  1  0.10862363  0.10211596  0.64209539  1
  N  N44  1  0.91446139  0.19705051  0.37974908  1
  N  N45  1  0.77967822  0.08879679  0.13750339  1
  N  N46  1  0.55851975  0.19894220  0.88443579  1
  N  N47  1  0.44174840  0.10053159  0.63015314  1
  N  N48  1  0.22604940  0.54092149  0.37755081  1
  N  N49  1  0.10374645  0.43703720  0.13282671  1
  N  N50  1  0.89161435  0.53260756  0.88297756  1
  N  N51  1  0.77752214  0.42659486  0.63560879  1
  N  N52  1  0.55826866  0.53565025  0.38166757  1
  N  N53  1  0.46506894  0.42686397  0.12375079  1
  N  N54  1  0.22361355  0.53593288  0.88543512  1
  N  N55  1  0.11313963  0.42609282  0.62902501  1
  N  N56  1  0.87305728  0.56805499  0.37896311  1
  N  N57  1  0.75644887  0.42745236  0.12588449  1
  N  N58  1  0.56478049  0.52106323  0.91469660  1
  N  N59  1  0.44711837  0.42631193  0.63879637  1
  N  N60  1  0.20297326  0.91070924  0.37004977  1
  N  N61  1  0.13191349  0.77772270  0.13032672  1
  N  N62  1  0.89247832  0.87014832  0.88582462  1
  N  N63  1  0.78941724  0.75442500  0.63980952  1
  N  N64  1  0.58997848  0.85997652  0.37199926  1
  N  N65  1  0.41779539  0.81412116  0.09719900  1
  N  N66  1  0.23477426  0.85972448  0.83299644  1
  N  N67  1  0.10937138  0.75525242  0.63029583  1
  N  N68  1  0.87941741  0.85643038  0.37775286  1
  N  N69  1  0.72839545  0.78353153  0.09624560  1
  N  N70  1  0.54889054  0.86436560  0.82890922  1
  N  N71  1  0.44493461  0.75981548  0.57991559  1
