# generated using pymatgen
data_Al31B5N36
_symmetry_space_group_name_H-M   'P 1'
_cell_length_a   9.18755996
_cell_length_b   9.25287790
_cell_length_c   9.96700060
_cell_angle_alpha   90.70280934
_cell_angle_beta   90.30307615
_cell_angle_gamma   60.17846301
_symmetry_Int_Tables_number   1
_chemical_formula_structural   Al31B5N36
_chemical_formula_sum   'Al31 B5 N36'
_cell_volume   735.05098183
_cell_formula_units_Z   1
loop_
 _symmetry_equiv_pos_site_id
 _symmetry_equiv_pos_as_xyz
  1  'x, y, z'
loop_
 _atom_site_type_symbol
 _atom_site_label
 _atom_site_symmetry_multiplicity
 _atom_site_fract_x
 _atom_site_fract_y
 _atom_site_fract_z
 _atom_site_occupancy
  B  B0  1  0.10983649  0.09039593  0.40034290  1
  B  B1  1  0.58450526  0.48374968  0.16854435  1
  B  B2  1  0.22918295  0.88998261  0.16113276  1
  B  B3  1  0.55458865  0.86799409  0.16279856  1
  B  B4  1  0.77148401  0.75550775  0.39932823  1
  Al  Al5  1  0.23230361  0.19761991  0.09382508  1
  Al  Al6  1  0.78028959  0.08401244  0.83417201  1
  Al  Al7  1  0.89374265  0.20335118  0.64524821  1
  Al  Al8  1  0.44486549  0.08828460  0.33244794  1
  Al  Al9  1  0.56577990  0.19132765  0.08493232  1
  Al  Al10  1  0.11098444  0.08682511  0.90500928  1
  Al  Al11  1  0.22126164  0.20041371  0.57342630  1
  Al  Al12  1  0.77943349  0.08369247  0.33693466  1
  Al  Al13  1  0.90452056  0.19935457  0.16051062  1
  Al  Al14  1  0.43747110  0.10133714  0.82972693  1
  Al  Al15  1  0.55659422  0.19876789  0.58400184  1
  Al  Al16  1  0.10258503  0.43781205  0.39515985  1
  Al  Al17  1  0.23355572  0.54687937  0.15450719  1
  Al  Al18  1  0.77442646  0.42852165  0.90620818  1
  Al  Al19  1  0.88479875  0.54109755  0.64927999  1
  Al  Al20  1  0.44550255  0.42950700  0.40159639  1
  Al  Al21  1  0.10547577  0.43785742  0.90566048  1
  Al  Al22  1  0.22135962  0.53938033  0.65350960  1
  Al  Al23  1  0.78503484  0.42470971  0.40185840  1
  Al  Al24  1  0.86898760  0.55548865  0.15945129  1
  Al  Al25  1  0.44949047  0.43471387  0.90525145  1
  Al  Al26  1  0.55309177  0.54332689  0.65380785  1
  Al  Al27  1  0.11510761  0.76458495  0.38879807  1
  Al  Al28  1  0.76478630  0.76470524  0.90727541  1
  Al  Al29  1  0.88362426  0.86896729  0.57297733  1
  Al  Al30  1  0.44835939  0.75920046  0.37663872  1
  Al  Al31  1  0.12436174  0.76259227  0.90909541  1
  Al  Al32  1  0.22409888  0.86810327  0.64318765  1
  Al  Al33  1  0.89109263  0.87215509  0.10120596  1
  Al  Al34  1  0.44291702  0.77219487  0.92059202  1
  Al  Al35  1  0.55297530  0.86381405  0.64135323  1
  N  N36  1  0.21137517  0.19469316  0.37791923  1
  N  N37  1  0.12113315  0.07248309  0.09741055  1
  N  N38  1  0.89289747  0.20837317  0.84070895  1
  N  N39  1  0.77696316  0.08330012  0.64189431  1
  N  N40  1  0.55773395  0.19735741  0.39377550  1
  N  N41  1  0.45679991  0.07935251  0.14451634  1
  N  N42  1  0.22314690  0.20715005  0.89579833  1
  N  N43  1  0.10747072  0.08145371  0.56729807  1
  N  N44  1  0.91797201  0.19282115  0.35237885  1
  N  N45  1  0.77992873  0.09315376  0.14853983  1
  N  N46  1  0.55851779  0.20130812  0.89369711  1
  N  N47  1  0.43602956  0.09877845  0.63768978  1
  N  N48  1  0.22693143  0.53777955  0.34065137  1
  N  N49  1  0.10230443  0.44384904  0.10042741  1
  N  N50  1  0.88433843  0.54302568  0.84271545  1
  N  N51  1  0.77554568  0.42518640  0.59032492  1
  N  N52  1  0.56643896  0.52166578  0.31936007  1
  N  N53  1  0.46634604  0.43379677  0.10226848  1
  N  N54  1  0.22557173  0.54009859  0.84670756  1
  N  N55  1  0.10690149  0.43197655  0.59026846  1
  N  N56  1  0.87342686  0.56363572  0.34809585  1
  N  N57  1  0.75904140  0.42907479  0.10443370  1
  N  N58  1  0.55353112  0.54887917  0.84539830  1
  N  N59  1  0.44372661  0.43169085  0.59427207  1
  N  N60  1  0.21136706  0.89962080  0.32809965  1
  N  N61  1  0.13794212  0.77353718  0.10535797  1
  N  N62  1  0.89233065  0.87017537  0.90169139  1
  N  N63  1  0.76665333  0.75401531  0.56659691  1
  N  N64  1  0.58418324  0.85136425  0.33278487  1
  N  N65  1  0.42629838  0.80633031  0.11283181  1
  N  N66  1  0.22737353  0.87237868  0.83435441  1
  N  N67  1  0.11491913  0.75574142  0.58488718  1
  N  N68  1  0.87792305  0.85639348  0.37556531  1
  N  N69  1  0.74057701  0.77524782  0.09801643  1
  N  N70  1  0.55523877  0.86788893  0.83284285  1
  N  N71  1  0.44322939  0.75505890  0.57234667  1
