# generated using pymatgen
data_Al31B5N36
_symmetry_space_group_name_H-M   'P 1'
_cell_length_a   9.14185841
_cell_length_b   9.18539749
_cell_length_c   10.35914780
_cell_angle_alpha   91.43981340
_cell_angle_beta   90.83961616
_cell_angle_gamma   60.22278955
_symmetry_Int_Tables_number   1
_chemical_formula_structural   Al31B5N36
_chemical_formula_sum   'Al31 B5 N36'
_cell_volume   754.77796100
_cell_formula_units_Z   1
loop_
 _symmetry_equiv_pos_site_id
 _symmetry_equiv_pos_as_xyz
  1  'x, y, z'
loop_
 _atom_site_type_symbol
 _atom_site_label
 _atom_site_symmetry_multiplicity
 _atom_site_fract_x
 _atom_site_fract_y
 _atom_site_fract_z
 _atom_site_occupancy
  B  B0  1  0.11846873  0.08576995  0.35097122  1
  B  B1  1  0.58529781  0.47908405  0.15919979  1
  B  B2  1  0.22765059  0.89025497  0.09048517  1
  B  B3  1  0.53737459  0.88329859  0.09725947  1
  B  B4  1  0.77188126  0.76300892  0.35770237  1
  Al  Al5  1  0.22734742  0.19477395  0.06795246  1
  Al  Al6  1  0.77410780  0.08785498  0.81944700  1
  Al  Al7  1  0.88448461  0.21091448  0.64238923  1
  Al  Al8  1  0.45065012  0.07781642  0.31743805  1
  Al  Al9  1  0.56324265  0.19077880  0.07232340  1
  Al  Al10  1  0.11492282  0.09722253  0.82942732  1
  Al  Al11  1  0.22209226  0.19642664  0.56012718  1
  Al  Al12  1  0.78148821  0.07804701  0.32145335  1
  Al  Al13  1  0.90340235  0.19369907  0.14300348  1
  Al  Al14  1  0.43648707  0.10692556  0.81166904  1
  Al  Al15  1  0.55774954  0.19857995  0.56310608  1
  Al  Al16  1  0.10276397  0.43996958  0.38297532  1
  Al  Al17  1  0.23003671  0.55420702  0.14356967  1
  Al  Al18  1  0.77291010  0.42731358  0.90052657  1
  Al  Al19  1  0.89840608  0.52389191  0.64337245  1
  Al  Al20  1  0.44423582  0.43196187  0.38751899  1
  Al  Al21  1  0.10608046  0.43920373  0.89773958  1
  Al  Al22  1  0.22368922  0.53733992  0.64007434  1
  Al  Al23  1  0.78662001  0.42536746  0.38748738  1
  Al  Al24  1  0.86064999  0.56211706  0.14237861  1
  Al  Al25  1  0.44795829  0.43548206  0.89632224  1
  Al  Al26  1  0.55678390  0.53905145  0.64210776  1
  Al  Al27  1  0.11469112  0.76648456  0.39052324  1
  Al  Al28  1  0.77582263  0.76115711  0.82899595  1
  Al  Al29  1  0.88275520  0.86571591  0.57010449  1
  Al  Al30  1  0.44832778  0.76310195  0.38310791  1
  Al  Al31  1  0.12327846  0.76147638  0.88918400  1
  Al  Al32  1  0.22702410  0.86647926  0.63416046  1
  Al  Al33  1  0.87845756  0.87345989  0.06599172  1
  Al  Al34  1  0.44492783  0.76845950  0.89053939  1
  Al  Al35  1  0.55560435  0.86696742  0.62859049  1
  N  N36  1  0.21236291  0.18686770  0.36937362  1
  N  N37  1  0.11923879  0.07209395  0.08554227  1
  N  N38  1  0.88103685  0.21253182  0.83334345  1
  N  N39  1  0.77370632  0.08683435  0.63134128  1
  N  N40  1  0.55792584  0.19749768  0.37763335  1
  N  N41  1  0.45210351  0.07582318  0.13120228  1
  N  N42  1  0.22732279  0.20760886  0.88574036  1
  N  N43  1  0.11432979  0.09972178  0.63533534  1
  N  N44  1  0.92381554  0.18914654  0.33394202  1
  N  N45  1  0.77807292  0.08554326  0.13949968  1
  N  N46  1  0.55755052  0.20065518  0.88845287  1
  N  N47  1  0.43797874  0.10428758  0.62581556  1
  N  N48  1  0.22409118  0.54346037  0.32475806  1
  N  N49  1  0.09880188  0.44893883  0.08564667  1
  N  N50  1  0.89162469  0.52576410  0.83197906  1
  N  N51  1  0.77741072  0.42437097  0.57117625  1
  N  N52  1  0.56559451  0.52410493  0.30485367  1
  N  N53  1  0.46380866  0.43499655  0.09115812  1
  N  N54  1  0.22610305  0.53623390  0.82902023  1
  N  N55  1  0.11061228  0.43118973  0.56831408  1
  N  N56  1  0.87184692  0.56929582  0.33090326  1
  N  N57  1  0.75639947  0.42737480  0.09450448  1
  N  N58  1  0.55646901  0.54158371  0.82905718  1
  N  N59  1  0.44372672  0.43324680  0.57419464  1
  N  N60  1  0.21000953  0.90236046  0.35406791  1
  N  N61  1  0.13951697  0.77591087  0.07825537  1
  N  N62  1  0.88963033  0.87198606  0.88395223  1
  N  N63  1  0.78777473  0.75317259  0.63678487  1
  N  N64  1  0.58890282  0.85389602  0.36473819  1
  N  N65  1  0.41952451  0.81318755  0.07249075  1
  N  N66  1  0.22936801  0.86337362  0.81945345  1
  N  N67  1  0.11579994  0.75595130  0.57530999  1
  N  N68  1  0.87377274  0.85436930  0.37829667  1
  N  N69  1  0.72716383  0.78241843  0.08436679  1
  N  N70  1  0.54517778  0.87616364  0.81852192  1
  N  N71  1  0.44803275  0.75158088  0.56892742  1
