# generated using pymatgen
data_Al31B5N36
_symmetry_space_group_name_H-M   'P 1'
_cell_length_a   9.17836655
_cell_length_b   9.29090153
_cell_length_c   10.17956891
_cell_angle_alpha   90.59198419
_cell_angle_beta   89.48629732
_cell_angle_gamma   59.87086803
_symmetry_Int_Tables_number   1
_chemical_formula_structural   Al31B5N36
_chemical_formula_sum   'Al31 B5 N36'
_cell_volume   750.64631557
_cell_formula_units_Z   1
loop_
 _symmetry_equiv_pos_site_id
 _symmetry_equiv_pos_as_xyz
  1  'x, y, z'
loop_
 _atom_site_type_symbol
 _atom_site_label
 _atom_site_symmetry_multiplicity
 _atom_site_fract_x
 _atom_site_fract_y
 _atom_site_fract_z
 _atom_site_occupancy
  B  B0  1  0.11186103  0.10416286  0.30941333  1
  B  B1  1  0.59069503  0.48052339  0.16170983  1
  B  B2  1  0.25527462  0.91680783  0.16067101  1
  B  B3  1  0.53945534  0.89198126  0.10237439  1
  B  B4  1  0.77562296  0.75838494  0.39969513  1
  Al  Al5  1  0.22779802  0.20357203  0.06882708  1
  Al  Al6  1  0.78136777  0.09030696  0.81507288  1
  Al  Al7  1  0.90127169  0.19055504  0.55873935  1
  Al  Al8  1  0.45770086  0.07917613  0.31939086  1
  Al  Al9  1  0.56420710  0.19884337  0.06411805  1
  Al  Al10  1  0.10759601  0.09930906  0.81776998  1
  Al  Al11  1  0.22162752  0.19955688  0.55740511  1
  Al  Al12  1  0.78796684  0.08338964  0.31568732  1
  Al  Al13  1  0.89950205  0.19143856  0.07486388  1
  Al  Al14  1  0.44258989  0.09449334  0.80802598  1
  Al  Al15  1  0.55857223  0.20287785  0.56407181  1
  Al  Al16  1  0.11201166  0.42849995  0.31547944  1
  Al  Al17  1  0.22430369  0.54080007  0.06684454  1
  Al  Al18  1  0.76471681  0.43516639  0.89707468  1
  Al  Al19  1  0.88468794  0.53574056  0.63456814  1
  Al  Al20  1  0.44412684  0.42181777  0.31755685  1
  Al  Al21  1  0.11660291  0.41965672  0.81741817  1
  Al  Al22  1  0.22359086  0.53469366  0.56501182  1
  Al  Al23  1  0.78698981  0.43184944  0.38279666  1
  Al  Al24  1  0.85778344  0.56678198  0.14533944  1
  Al  Al25  1  0.44229205  0.42192976  0.81777533  1
  Al  Al26  1  0.55811394  0.54023793  0.63926682  1
  Al  Al27  1  0.10811950  0.76254254  0.30354762  1
  Al  Al28  1  0.76132469  0.76144505  0.88052018  1
  Al  Al29  1  0.89461802  0.86722239  0.56197511  1
  Al  Al30  1  0.45629317  0.76010239  0.37571902  1
  Al  Al31  1  0.10635208  0.75338061  0.82122945  1
  Al  Al32  1  0.22976184  0.86231301  0.63884507  1
  Al  Al33  1  0.88455454  0.87235600  0.06613975  1
  Al  Al34  1  0.43325127  0.77183081  0.89803397  1
  Al  Al35  1  0.55695634  0.86388413  0.61306472  1
  N  N36  1  0.21302147  0.19401335  0.36711342  1
  N  N37  1  0.11850716  0.09733269  0.14621424  1
  N  N38  1  0.89005581  0.20061383  0.88730733  1
  N  N39  1  0.78246970  0.09016654  0.62646858  1
  N  N40  1  0.56049150  0.20446410  0.37699083  1
  N  N41  1  0.45782724  0.08125506  0.12729836  1
  N  N42  1  0.22368960  0.20182596  0.88266155  1
  N  N43  1  0.11220554  0.09526090  0.62923650  1
  N  N44  1  0.92338752  0.18531475  0.36607196  1
  N  N45  1  0.78126264  0.09062957  0.13077346  1
  N  N46  1  0.55605981  0.20114641  0.87763086  1
  N  N47  1  0.44180988  0.09808537  0.61927185  1
  N  N48  1  0.22408861  0.54107188  0.37730192  1
  N  N49  1  0.10931278  0.42700420  0.12674998  1
  N  N50  1  0.88025408  0.53719708  0.82749361  1
  N  N51  1  0.77642268  0.42501891  0.56857124  1
  N  N52  1  0.56936871  0.53229390  0.30575655  1
  N  N53  1  0.46356671  0.42524522  0.12638290  1
  N  N54  1  0.22175468  0.53338241  0.88097517  1
  N  N55  1  0.11942152  0.41750613  0.62549999  1
  N  N56  1  0.87386370  0.57049807  0.33291184  1
  N  N57  1  0.75280375  0.43700576  0.09207164  1
  N  N58  1  0.55048316  0.54679887  0.83079869  1
  N  N59  1  0.44430473  0.42125623  0.62816594  1
  N  N60  1  0.23248716  0.89279357  0.30672872  1
  N  N61  1  0.09895561  0.75361910  0.12429400  1
  N  N62  1  0.88379259  0.87245883  0.87729649  1
  N  N63  1  0.78350013  0.74603138  0.56127522  1
  N  N64  1  0.58828483  0.85857178  0.36199573  1
  N  N65  1  0.41796625  0.83095297  0.08362674  1
  N  N66  1  0.22195850  0.86907532  0.82861078  1
  N  N67  1  0.10814518  0.75148243  0.62990244  1
  N  N68  1  0.88612407  0.86379810  0.37623530  1
  N  N69  1  0.72789142  0.78349638  0.07161056  1
  N  N70  1  0.55114386  0.86348227  0.80918929  1
  N  N71  1  0.44194123  0.74994764  0.56231377  1
