# generated using pymatgen
data_Al31B5N36
_symmetry_space_group_name_H-M   'P 1'
_cell_length_a   9.14869789
_cell_length_b   9.18942007
_cell_length_c   10.30885311
_cell_angle_alpha   91.39546915
_cell_angle_beta   90.64370283
_cell_angle_gamma   60.24815187
_symmetry_Int_Tables_number   1
_chemical_formula_structural   Al31B5N36
_chemical_formula_sum   'Al31 B5 N36'
_cell_volume   752.21136878
_cell_formula_units_Z   1
loop_
 _symmetry_equiv_pos_site_id
 _symmetry_equiv_pos_as_xyz
  1  'x, y, z'
loop_
 _atom_site_type_symbol
 _atom_site_label
 _atom_site_symmetry_multiplicity
 _atom_site_fract_x
 _atom_site_fract_y
 _atom_site_fract_z
 _atom_site_occupancy
  B  B0  1  0.11613045  0.08556888  0.35200172  1
  B  B1  1  0.58401608  0.48125141  0.15948598  1
  B  B2  1  0.22940641  0.88939240  0.09510860  1
  B  B3  1  0.53830331  0.88211745  0.09794479  1
  B  B4  1  0.77195878  0.76421097  0.35785775  1
  Al  Al5  1  0.22797762  0.19410290  0.07054042  1
  Al  Al6  1  0.77754013  0.09037789  0.82125152  1
  Al  Al7  1  0.89139568  0.20039335  0.59260749  1
  Al  Al8  1  0.45172327  0.07774992  0.31825054  1
  Al  Al9  1  0.56235305  0.19054337  0.07205603  1
  Al  Al10  1  0.11083410  0.09987874  0.82831167  1
  Al  Al11  1  0.22286750  0.19689231  0.56045528  1
  Al  Al12  1  0.78581262  0.08137692  0.31887455  1
  Al  Al13  1  0.89639436  0.19107428  0.08696799  1
  Al  Al14  1  0.43676843  0.10569633  0.81258189  1
  Al  Al15  1  0.55759265  0.19901666  0.56353672  1
  Al  Al16  1  0.10274936  0.43928514  0.38244878  1
  Al  Al17  1  0.22995199  0.55394647  0.14339497  1
  Al  Al18  1  0.76991463  0.43254672  0.89995546  1
  Al  Al19  1  0.89783918  0.52396826  0.64304088  1
  Al  Al20  1  0.44405053  0.43173543  0.38710653  1
  Al  Al21  1  0.10644493  0.43799020  0.89781908  1
  Al  Al22  1  0.22295306  0.53775969  0.64028939  1
  Al  Al23  1  0.78503520  0.42754447  0.38381448  1
  Al  Al24  1  0.86111535  0.56190789  0.14272624  1
  Al  Al25  1  0.44776346  0.43471121  0.89593357  1
  Al  Al26  1  0.55599812  0.53913116  0.64192426  1
  Al  Al27  1  0.11451535  0.76669043  0.38981127  1
  Al  Al28  1  0.77562237  0.76135801  0.82913977  1
  Al  Al29  1  0.88246011  0.86597714  0.57006723  1
  Al  Al30  1  0.44776557  0.76356276  0.38267395  1
  Al  Al31  1  0.12328853  0.76160286  0.88945169  1
  Al  Al32  1  0.22703436  0.86618251  0.63462784  1
  Al  Al33  1  0.87832834  0.87173509  0.06619553  1
  Al  Al34  1  0.44367638  0.76912026  0.89125085  1
  Al  Al35  1  0.55587204  0.86619659  0.62765225  1
  N  N36  1  0.21223414  0.18653530  0.36961718  1
  N  N37  1  0.12417831  0.07029234  0.09757910  1
  N  N38  1  0.88645641  0.20309805  0.87873916  1
  N  N39  1  0.77583317  0.08998005  0.63338442  1
  N  N40  1  0.56019373  0.19710862  0.37706687  1
  N  N41  1  0.45341097  0.07464213  0.13125653  1
  N  N42  1  0.22690100  0.20631382  0.88650621  1
  N  N43  1  0.11077337  0.10295630  0.63891505  1
  N  N44  1  0.92273416  0.18535057  0.36004345  1
  N  N45  1  0.77898948  0.08637269  0.13695598  1
  N  N46  1  0.55753629  0.20023402  0.88695980  1
  N  N47  1  0.43848193  0.10346179  0.62567166  1
  N  N48  1  0.22403239  0.54304411  0.32517017  1
  N  N49  1  0.09893306  0.44853603  0.08611381  1
  N  N50  1  0.89209793  0.52502529  0.83118469  1
  N  N51  1  0.77444166  0.42899773  0.57044048  1
  N  N52  1  0.56352726  0.52612530  0.30529864  1
  N  N53  1  0.46391559  0.43445227  0.09116320  1
  N  N54  1  0.22600534  0.53610304  0.82950584  1
  N  N55  1  0.11052909  0.43106105  0.56887486  1
  N  N56  1  0.87211095  0.57023583  0.33101484  1
  N  N57  1  0.75266007  0.43358190  0.09539995  1
  N  N58  1  0.55572999  0.54154445  0.82844478  1
  N  N59  1  0.44317284  0.43317461  0.57455801  1
  N  N60  1  0.21082071  0.90146691  0.35547639  1
  N  N61  1  0.13941714  0.77597609  0.07914588  1
  N  N62  1  0.88998930  0.87106736  0.88290410  1
  N  N63  1  0.78745872  0.75355410  0.63621114  1
  N  N64  1  0.58910935  0.85409425  0.36588509  1
  N  N65  1  0.42118123  0.81104075  0.07442573  1
  N  N66  1  0.22862845  0.86487490  0.82004297  1
  N  N67  1  0.11480961  0.75681370  0.57601460  1
  N  N68  1  0.87329441  0.85615043  0.37736885  1
  N  N69  1  0.72781155  0.78187766  0.08435057  1
  N  N70  1  0.54535535  0.87528199  0.81886904  1
  N  N71  1  0.44720662  0.75195788  0.56942402  1
