# generated using pymatgen
data_Al31B5N36
_symmetry_space_group_name_H-M   'P 1'
_cell_length_a   9.13747200
_cell_length_b   9.15187925
_cell_length_c   10.27204970
_cell_angle_alpha   89.99856028
_cell_angle_beta   90.04633878
_cell_angle_gamma   60.09571335
_symmetry_Int_Tables_number   1
_chemical_formula_structural   Al31B5N36
_chemical_formula_sum   'Al31 B5 N36'
_cell_volume   744.63242962
_cell_formula_units_Z   1
loop_
 _symmetry_equiv_pos_site_id
 _symmetry_equiv_pos_as_xyz
  1  'x, y, z'
loop_
 _atom_site_type_symbol
 _atom_site_label
 _atom_site_symmetry_multiplicity
 _atom_site_fract_x
 _atom_site_fract_y
 _atom_site_fract_z
 _atom_site_occupancy
  B  B0  1  0.11400865  0.09091742  0.35770032  1
  B  B1  1  0.55998335  0.53284151  0.15125836  1
  B  B2  1  0.22604592  0.87785302  0.10279377  1
  B  B3  1  0.55401205  0.86883743  0.10162066  1
  B  B4  1  0.77447362  0.76476614  0.35896397  1
  Al  Al5  1  0.22870809  0.19034857  0.06159154  1
  Al  Al6  1  0.77976762  0.09145495  0.80995962  1
  Al  Al7  1  0.89433638  0.20220605  0.56219124  1
  Al  Al8  1  0.45212542  0.07926124  0.31361882  1
  Al  Al9  1  0.56109928  0.19951580  0.06253099  1
  Al  Al10  1  0.11319313  0.09366961  0.82209860  1
  Al  Al11  1  0.22125780  0.20374756  0.56227350  1
  Al  Al12  1  0.78297298  0.08727363  0.31155713  1
  Al  Al13  1  0.89229690  0.19747589  0.06108794  1
  Al  Al14  1  0.44190861  0.09734878  0.81029350  1
  Al  Al15  1  0.55574591  0.20487981  0.55781417  1
  Al  Al16  1  0.10515603  0.43173422  0.31014210  1
  Al  Al17  1  0.23030419  0.54419281  0.06233195  1
  Al  Al18  1  0.78661041  0.42122254  0.81166871  1
  Al  Al19  1  0.88911843  0.54109472  0.56321300  1
  Al  Al20  1  0.44123227  0.42690278  0.30804877  1
  Al  Al21  1  0.11329333  0.42527713  0.81080630  1
  Al  Al22  1  0.22330523  0.53793629  0.55854104  1
  Al  Al23  1  0.78544912  0.43183768  0.31076215  1
  Al  Al24  1  0.87229148  0.54544022  0.05925466  1
  Al  Al25  1  0.44311075  0.42190124  0.81502920  1
  Al  Al26  1  0.55221295  0.54408091  0.63610004  1
  Al  Al27  1  0.11175916  0.77026690  0.31313880  1
  Al  Al28  1  0.78127106  0.75720873  0.82065166  1
  Al  Al29  1  0.88908372  0.86854244  0.56161075  1
  Al  Al30  1  0.44585883  0.76936351  0.38407048  1
  Al  Al31  1  0.11077831  0.75487946  0.81076036  1
  Al  Al32  1  0.22834722  0.86974545  0.62782080  1
  Al  Al33  1  0.88412631  0.87274689  0.06160569  1
  Al  Al34  1  0.44674071  0.75713994  0.89289609  1
  Al  Al35  1  0.55655354  0.86623183  0.62597127  1
  N  N36  1  0.20934981  0.19278450  0.37004644  1
  N  N37  1  0.12831333  0.05957034  0.09030920  1
  N  N38  1  0.88723269  0.20375925  0.87563750  1
  N  N39  1  0.77910035  0.09272319  0.62057087  1
  N  N40  1  0.55584434  0.20631007  0.37069048  1
  N  N41  1  0.45710510  0.06539198  0.12361117  1
  N  N42  1  0.22527641  0.20673835  0.87696938  1
  N  N43  1  0.10828998  0.10266068  0.63170424  1
  N  N44  1  0.91588459  0.19422138  0.37051651  1
  N  N45  1  0.78028306  0.09059519  0.12843556  1
  N  N46  1  0.55845089  0.20046280  0.87738578  1
  N  N47  1  0.44150399  0.10052716  0.62084509  1
  N  N48  1  0.22185452  0.54111439  0.37135131  1
  N  N49  1  0.10946757  0.42797794  0.12425445  1
  N  N50  1  0.89345834  0.53259266  0.87511067  1
  N  N51  1  0.78459410  0.42331399  0.61884814  1
  N  N52  1  0.54831578  0.55384231  0.30660617  1
  N  N53  1  0.45814442  0.43280894  0.12062902  1
  N  N54  1  0.22291020  0.53665130  0.87787441  1
  N  N55  1  0.11273089  0.42633401  0.62142058  1
  N  N56  1  0.87622352  0.56746731  0.37275837  1
  N  N57  1  0.76122014  0.43185452  0.12388999  1
  N  N58  1  0.55558756  0.54125738  0.82457459  1
  N  N59  1  0.44159888  0.42218127  0.62361893  1
  N  N60  1  0.20515863  0.90745804  0.36133784  1
  N  N61  1  0.13022141  0.77306271  0.12284354  1
  N  N62  1  0.89254659  0.87127360  0.87679063  1
  N  N63  1  0.78925771  0.75465735  0.63121091  1
  N  N64  1  0.59143022  0.85772857  0.36507151  1
  N  N65  1  0.43811488  0.77408966  0.08696682  1
  N  N66  1  0.23329426  0.86217995  0.82109630  1
  N  N67  1  0.10841616  0.75579384  0.62149666  1
  N  N68  1  0.87904639  0.85727639  0.36999623  1
  N  N69  1  0.73839102  0.77756667  0.08930353  1
  N  N70  1  0.54969618  0.86749299  0.81988953  1
  N  N71  1  0.44726019  0.75466888  0.56626514  1
