# generated using pymatgen
data_Al31B5N36
_symmetry_space_group_name_H-M   'P 1'
_cell_length_a   9.14297449
_cell_length_b   9.22378965
_cell_length_c   10.21902228
_cell_angle_alpha   91.00629411
_cell_angle_beta   89.84023273
_cell_angle_gamma   60.14984581
_symmetry_Int_Tables_number   1
_chemical_formula_structural   Al31B5N36
_chemical_formula_sum   'Al31 B5 N36'
_cell_volume   747.28331375
_cell_formula_units_Z   1
loop_
 _symmetry_equiv_pos_site_id
 _symmetry_equiv_pos_as_xyz
  1  'x, y, z'
loop_
 _atom_site_type_symbol
 _atom_site_label
 _atom_site_symmetry_multiplicity
 _atom_site_fract_x
 _atom_site_fract_y
 _atom_site_fract_z
 _atom_site_occupancy
  B  B0  1  0.11484109  0.09911681  0.30964443  1
  B  B1  1  0.58462467  0.48160823  0.15937650  1
  B  B2  1  0.23298965  0.89019229  0.15525449  1
  B  B3  1  0.53626218  0.88502787  0.10796318  1
  B  B4  1  0.77492012  0.76127171  0.38533992  1
  Al  Al5  1  0.22607632  0.19520601  0.07864379  1
  Al  Al6  1  0.77930382  0.09149470  0.81791926  1
  Al  Al7  1  0.89949117  0.19218447  0.56125817  1
  Al  Al8  1  0.45462894  0.07932357  0.31841314  1
  Al  Al9  1  0.56596823  0.18964275  0.07038232  1
  Al  Al10  1  0.10598172  0.10298074  0.82029758  1
  Al  Al11  1  0.22453015  0.19251924  0.55605143  1
  Al  Al12  1  0.78455623  0.08522249  0.31818500  1
  Al  Al13  1  0.89594374  0.19445270  0.07835585  1
  Al  Al14  1  0.43617316  0.10247388  0.81491906  1
  Al  Al15  1  0.56212675  0.19494916  0.56537636  1
  Al  Al16  1  0.10390587  0.43847904  0.38392547  1
  Al  Al17  1  0.23290130  0.54216198  0.14045166  1
  Al  Al18  1  0.76640044  0.43549351  0.89904351  1
  Al  Al19  1  0.89094168  0.53231562  0.64011445  1
  Al  Al20  1  0.44391063  0.43190135  0.38863309  1
  Al  Al21  1  0.10464098  0.43403003  0.89853058  1
  Al  Al22  1  0.22902597  0.52220416  0.63916151  1
  Al  Al23  1  0.78346517  0.43169580  0.38427425  1
  Al  Al24  1  0.86079186  0.56398229  0.14703197  1
  Al  Al25  1  0.44649494  0.43423213  0.89511564  1
  Al  Al26  1  0.55629681  0.53881194  0.64135208  1
  Al  Al27  1  0.10722627  0.77389199  0.31737964  1
  Al  Al28  1  0.76164315  0.76276431  0.88326272  1
  Al  Al29  1  0.89331202  0.86325631  0.56457521  1
  Al  Al30  1  0.45545458  0.76127495  0.37735980  1
  Al  Al31  1  0.10513420  0.76008257  0.81944103  1
  Al  Al32  1  0.23095942  0.86476692  0.63843679  1
  Al  Al33  1  0.89562438  0.87214110  0.06864621  1
  Al  Al34  1  0.43205819  0.77444056  0.90254256  1
  Al  Al35  1  0.55832244  0.86334021  0.62845378  1
  N  N36  1  0.21479733  0.18981373  0.36561483  1
  N  N37  1  0.11235954  0.09285467  0.15047804  1
  N  N38  1  0.88905132  0.20103794  0.89064216  1
  N  N39  1  0.78273359  0.08886324  0.63000503  1
  N  N40  1  0.56104128  0.19762016  0.37775103  1
  N  N41  1  0.45515052  0.07724444  0.13023567  1
  N  N42  1  0.22284345  0.19998778  0.89200105  1
  N  N43  1  0.10989129  0.09892142  0.63312006  1
  N  N44  1  0.92216942  0.18395590  0.37024595  1
  N  N45  1  0.78114923  0.08953767  0.13500356  1
  N  N46  1  0.55758900  0.19923013  0.88400153  1
  N  N47  1  0.43830522  0.10146023  0.62720079  1
  N  N48  1  0.22663409  0.53828377  0.32668219  1
  N  N49  1  0.09815462  0.44553926  0.08678731  1
  N  N50  1  0.88698613  0.53376792  0.83082922  1
  N  N51  1  0.77544923  0.42679376  0.57149789  1
  N  N52  1  0.56369976  0.52580540  0.30543844  1
  N  N53  1  0.46592861  0.43335941  0.08967466  1
  N  N54  1  0.22820966  0.52611416  0.83139327  1
  N  N55  1  0.11035367  0.42582203  0.57104445  1
  N  N56  1  0.87468820  0.56936395  0.33282728  1
  N  N57  1  0.75146049  0.43837364  0.09494467  1
  N  N58  1  0.55121139  0.54596179  0.83045214  1
  N  N59  1  0.44711516  0.42943377  0.57608310  1
  N  N60  1  0.22935002  0.89312576  0.31625849  1
  N  N61  1  0.12492085  0.77947775  0.12589334  1
  N  N62  1  0.88798555  0.87156649  0.88271933  1
  N  N63  1  0.78099172  0.74873196  0.58093648  1
  N  N64  1  0.59113755  0.85505435  0.35441956  1
  N  N65  1  0.41615253  0.81956465  0.08760511  1
  N  N66  1  0.22346725  0.87131288  0.82852403  1
  N  N67  1  0.10926817  0.75436377  0.62591199  1
  N  N68  1  0.88243039  0.85998245  0.37577460  1
  N  N69  1  0.73098527  0.78128032  0.07449230  1
  N  N70  1  0.54802718  0.86896281  0.81892291  1
  N  N71  1  0.44468913  0.75319494  0.56534263  1
