# generated using pymatgen
data_Al31B5N36
_symmetry_space_group_name_H-M   'P 1'
_cell_length_a   9.16041835
_cell_length_b   9.23924599
_cell_length_c   10.09217730
_cell_angle_alpha   90.98714200
_cell_angle_beta   90.38207652
_cell_angle_gamma   60.23785444
_symmetry_Int_Tables_number   1
_chemical_formula_structural   Al31B5N36
_chemical_formula_sum   'Al31 B5 N36'
_cell_volume   741.37474133
_cell_formula_units_Z   1
loop_
 _symmetry_equiv_pos_site_id
 _symmetry_equiv_pos_as_xyz
  1  'x, y, z'
loop_
 _atom_site_type_symbol
 _atom_site_label
 _atom_site_symmetry_multiplicity
 _atom_site_fract_x
 _atom_site_fract_y
 _atom_site_fract_z
 _atom_site_occupancy
  B  B0  1  0.11158962  0.08965610  0.39719851  1
  B  B1  1  0.58494705  0.47965518  0.16957722  1
  B  B2  1  0.22524671  0.89189578  0.15567547  1
  B  B3  1  0.53945514  0.88173546  0.11515294  1
  B  B4  1  0.77260425  0.76345229  0.36890255  1
  Al  Al5  1  0.22766073  0.20013136  0.09585898  1
  Al  Al6  1  0.77849864  0.08663537  0.82869287  1
  Al  Al7  1  0.89615226  0.20241361  0.64268399  1
  Al  Al8  1  0.45176564  0.07930709  0.33138694  1
  Al  Al9  1  0.56604509  0.19045531  0.08413123  1
  Al  Al10  1  0.11035243  0.08726204  0.90495427  1
  Al  Al11  1  0.22550745  0.19844300  0.56724942  1
  Al  Al12  1  0.77983295  0.08133528  0.33806721  1
  Al  Al13  1  0.90225153  0.19779008  0.16205220  1
  Al  Al14  1  0.43438341  0.10347202  0.82838119  1
  Al  Al15  1  0.55734906  0.19814356  0.57955600  1
  Al  Al16  1  0.10242130  0.43973345  0.39247111  1
  Al  Al17  1  0.23037519  0.55115207  0.15538306  1
  Al  Al18  1  0.77432893  0.42453823  0.90868982  1
  Al  Al19  1  0.89574569  0.52783929  0.65917530  1
  Al  Al20  1  0.44494262  0.43090118  0.40084595  1
  Al  Al21  1  0.10724524  0.43642452  0.91111610  1
  Al  Al22  1  0.22254591  0.53849989  0.65179967  1
  Al  Al23  1  0.78493122  0.42771979  0.40125564  1
  Al  Al24  1  0.86043648  0.56190780  0.15200540  1
  Al  Al25  1  0.44826053  0.43401349  0.90594393  1
  Al  Al26  1  0.55583060  0.54066043  0.65402874  1
  Al  Al27  1  0.11623135  0.76507036  0.39235217  1
  Al  Al28  1  0.77218846  0.76347305  0.85514118  1
  Al  Al29  1  0.88527523  0.86317482  0.58167947  1
  Al  Al30  1  0.45218979  0.75960739  0.38369355  1
  Al  Al31  1  0.12399422  0.76249995  0.90629939  1
  Al  Al32  1  0.22568176  0.86850071  0.64326148  1
  Al  Al33  1  0.88132783  0.87398328  0.08496735  1
  Al  Al34  1  0.44130919  0.77004369  0.91291985  1
  Al  Al35  1  0.55598628  0.86433968  0.63984611  1
  N  N36  1  0.21402468  0.19322346  0.37373960  1
  N  N37  1  0.11691565  0.07414750  0.09631619  1
  N  N38  1  0.89373797  0.20727490  0.83736360  1
  N  N39  1  0.77734278  0.08531208  0.63838467  1
  N  N40  1  0.55634677  0.19882464  0.39043781  1
  N  N41  1  0.45703821  0.07383818  0.14212351  1
  N  N42  1  0.22407512  0.20695169  0.90153105  1
  N  N43  1  0.11022950  0.08026584  0.56341207  1
  N  N44  1  0.91811328  0.19322302  0.35120052  1
  N  N45  1  0.77925021  0.08852135  0.15149126  1
  N  N46  1  0.55901858  0.20049149  0.89552672  1
  N  N47  1  0.43635855  0.10112822  0.63859041  1
  N  N48  1  0.22633421  0.54048496  0.33927754  1
  N  N49  1  0.10006578  0.44679401  0.10295320  1
  N  N50  1  0.89077515  0.52846480  0.85036039  1
  N  N51  1  0.77855941  0.42509653  0.58791157  1
  N  N52  1  0.56600670  0.52365393  0.31775890  1
  N  N53  1  0.46440264  0.43340732  0.10279082  1
  N  N54  1  0.22470836  0.53892955  0.84451088  1
  N  N55  1  0.10984585  0.42963853  0.58498810  1
  N  N56  1  0.87051303  0.57100271  0.34403292  1
  N  N57  1  0.75701119  0.42654272  0.10495785  1
  N  N58  1  0.55453362  0.54498463  0.84404067  1
  N  N59  1  0.44507192  0.43115577  0.59119633  1
  N  N60  1  0.21436111  0.89803534  0.32503123  1
  N  N61  1  0.13437128  0.77517516  0.10085551  1
  N  N62  1  0.89153464  0.87374227  0.89699842  1
  N  N63  1  0.78684148  0.75466597  0.65060829  1
  N  N64  1  0.58996621  0.85484366  0.37594770  1
  N  N65  1  0.42135140  0.81182662  0.10200823  1
  N  N66  1  0.22426155  0.87339777  0.83200910  1
  N  N67  1  0.11845251  0.75526154  0.58316543  1
  N  N68  1  0.87512109  0.85375744  0.38543887  1
  N  N69  1  0.72958761  0.78172650  0.09247000  1
  N  N70  1  0.54270142  0.87457727  0.83518979  1
  N  N71  1  0.44575825  0.75198829  0.57603171  1
