# generated using pymatgen
data_Al31B5N36
_symmetry_space_group_name_H-M   'P 1'
_cell_length_a   9.14220365
_cell_length_b   9.19565287
_cell_length_c   10.30343119
_cell_angle_alpha   91.37017207
_cell_angle_beta   90.84085320
_cell_angle_gamma   60.26099024
_symmetry_Int_Tables_number   1
_chemical_formula_structural   Al31B5N36
_chemical_formula_sum   'Al31 B5 N36'
_cell_volume   751.89232085
_cell_formula_units_Z   1
loop_
 _symmetry_equiv_pos_site_id
 _symmetry_equiv_pos_as_xyz
  1  'x, y, z'
loop_
 _atom_site_type_symbol
 _atom_site_label
 _atom_site_symmetry_multiplicity
 _atom_site_fract_x
 _atom_site_fract_y
 _atom_site_fract_z
 _atom_site_occupancy
  B  B0  1  0.11992045  0.08662770  0.36179693  1
  B  B1  1  0.58550411  0.47895482  0.17089699  1
  B  B2  1  0.22787008  0.88776637  0.10635069  1
  B  B3  1  0.53744703  0.88289274  0.11100440  1
  B  B4  1  0.77311980  0.76326984  0.36994078  1
  Al  Al5  1  0.22824159  0.19714437  0.08320142  1
  Al  Al6  1  0.77293551  0.08713510  0.83165753  1
  Al  Al7  1  0.88892539  0.20880707  0.65722320  1
  Al  Al8  1  0.45268738  0.07793594  0.33090121  1
  Al  Al9  1  0.56329219  0.19034805  0.08374546  1
  Al  Al10  1  0.11151558  0.09194794  0.87023844  1
  Al  Al11  1  0.22137735  0.19628940  0.57203499  1
  Al  Al12  1  0.78289916  0.07875261  0.33332551  1
  Al  Al13  1  0.90311467  0.19415991  0.15247149  1
  Al  Al14  1  0.43405060  0.10562954  0.82272723  1
  Al  Al15  1  0.55884138  0.19855072  0.57616370  1
  Al  Al16  1  0.10352401  0.44045380  0.39434600  1
  Al  Al17  1  0.23092415  0.55317034  0.15587178  1
  Al  Al18  1  0.77160482  0.42808863  0.91212858  1
  Al  Al19  1  0.89853288  0.52386787  0.65495333  1
  Al  Al20  1  0.44533255  0.43198012  0.40002195  1
  Al  Al21  1  0.10570228  0.43809077  0.90932649  1
  Al  Al22  1  0.22360029  0.53791575  0.65107643  1
  Al  Al23  1  0.78789737  0.42484940  0.39984942  1
  Al  Al24  1  0.86031564  0.56215136  0.15463216  1
  Al  Al25  1  0.44774507  0.43405693  0.90702436  1
  Al  Al26  1  0.55669923  0.53955742  0.65337746  1
  Al  Al27  1  0.11626181  0.76774246  0.40096239  1
  Al  Al28  1  0.77488569  0.76122566  0.84083174  1
  Al  Al29  1  0.88422256  0.86602815  0.58227823  1
  Al  Al30  1  0.44895344  0.76303653  0.39282924  1
  Al  Al31  1  0.12294182  0.75905109  0.90204140  1
  Al  Al32  1  0.22612459  0.86918551  0.64952224  1
  Al  Al33  1  0.87784348  0.87299703  0.07928680  1
  Al  Al34  1  0.44532689  0.76713642  0.90416353  1
  Al  Al35  1  0.55569886  0.86660556  0.63801623  1
  N  N36  1  0.21343143  0.18791150  0.37813324  1
  N  N37  1  0.11739062  0.07173795  0.08557028  1
  N  N38  1  0.88011087  0.21180351  0.84830049  1
  N  N39  1  0.77485669  0.08671844  0.64390947  1
  N  N40  1  0.55974884  0.19793854  0.38958399  1
  N  N41  1  0.45297861  0.07495599  0.14398534  1
  N  N42  1  0.22684043  0.20781263  0.89922850  1
  N  N43  1  0.11397405  0.09719735  0.63963440  1
  N  N44  1  0.92592366  0.18956950  0.34311596  1
  N  N45  1  0.77834310  0.08583098  0.15038218  1
  N  N46  1  0.55586572  0.19978681  0.89923049  1
  N  N47  1  0.43827096  0.10364036  0.63632392  1
  N  N48  1  0.22530631  0.54379449  0.33733539  1
  N  N49  1  0.09865963  0.44894243  0.09889192  1
  N  N50  1  0.89072807  0.52618278  0.84450053  1
  N  N51  1  0.77803465  0.42322316  0.58420274  1
  N  N52  1  0.56654658  0.52401907  0.31681652  1
  N  N53  1  0.46421212  0.43418412  0.10274239  1
  N  N54  1  0.22540784  0.53561961  0.84107755  1
  N  N55  1  0.11098526  0.43097800  0.58013379  1
  N  N56  1  0.87223167  0.56988074  0.34342799  1
  N  N57  1  0.75623465  0.42789154  0.10596876  1
  N  N58  1  0.55545880  0.54172226  0.84114036  1
  N  N59  1  0.44420409  0.43267347  0.58705686  1
  N  N60  1  0.21178082  0.90244843  0.35576683  1
  N  N61  1  0.13909945  0.77533777  0.09221574  1
  N  N62  1  0.88946795  0.87116257  0.89647777  1
  N  N63  1  0.78824117  0.75323275  0.64808507  1
  N  N64  1  0.59012349  0.85408273  0.37800594  1
  N  N65  1  0.41934684  0.81242558  0.08788728  1
  N  N66  1  0.22863489  0.86279677  0.83469966  1
  N  N67  1  0.11729655  0.75672578  0.58680770  1
  N  N68  1  0.87517603  0.85471270  0.38907115  1
  N  N69  1  0.72670638  0.78235593  0.09730179  1
  N  N70  1  0.54433694  0.87509957  0.83025295  1
  N  N71  1  0.44637428  0.75204702  0.57980069  1
