# generated using pymatgen
data_Al31B5N36
_symmetry_space_group_name_H-M   'P 1'
_cell_length_a   9.15303391
_cell_length_b   9.13956824
_cell_length_c   10.26273484
_cell_angle_alpha   89.80632278
_cell_angle_beta   90.01529896
_cell_angle_gamma   60.00475390
_symmetry_Int_Tables_number   1
_chemical_formula_structural   Al31B5N36
_chemical_formula_sum   'Al31 B5 N36'
_cell_volume   743.53549006
_cell_formula_units_Z   1
loop_
 _symmetry_equiv_pos_site_id
 _symmetry_equiv_pos_as_xyz
  1  'x, y, z'
loop_
 _atom_site_type_symbol
 _atom_site_label
 _atom_site_symmetry_multiplicity
 _atom_site_fract_x
 _atom_site_fract_y
 _atom_site_fract_z
 _atom_site_occupancy
  B  B0  1  0.11518665  0.08851546  0.35701799  1
  B  B1  1  0.55384780  0.54548717  0.10583393  1
  B  B2  1  0.21709570  0.87527221  0.10251464  1
  B  B3  1  0.56300818  0.86433784  0.10180889  1
  B  B4  1  0.77535140  0.76252724  0.35812409  1
  Al  Al5  1  0.23040441  0.18675963  0.06086873  1
  Al  Al6  1  0.77814911  0.09484242  0.80994437  1
  Al  Al7  1  0.89533126  0.20215100  0.56054662  1
  Al  Al8  1  0.45249814  0.07628147  0.31304272  1
  Al  Al9  1  0.56114635  0.20144084  0.06265914  1
  Al  Al10  1  0.11036892  0.09694707  0.82217689  1
  Al  Al11  1  0.22189629  0.20280010  0.56242877  1
  Al  Al12  1  0.78248609  0.08725791  0.31204813  1
  Al  Al13  1  0.89059045  0.19921280  0.06098017  1
  Al  Al14  1  0.44124255  0.10108774  0.81171411  1
  Al  Al15  1  0.55486486  0.20440356  0.55576737  1
  Al  Al16  1  0.10627300  0.42927996  0.31033784  1
  Al  Al17  1  0.22893665  0.54416761  0.06177940  1
  Al  Al18  1  0.78139585  0.42588728  0.80699152  1
  Al  Al19  1  0.88997210  0.54139571  0.56252089  1
  Al  Al20  1  0.44796549  0.43095107  0.31354725  1
  Al  Al21  1  0.11285263  0.42598078  0.81038087  1
  Al  Al22  1  0.22289072  0.53789408  0.55719014  1
  Al  Al23  1  0.77502076  0.43682144  0.31586732  1
  Al  Al24  1  0.87483480  0.54477922  0.05883973  1
  Al  Al25  1  0.44376148  0.42668548  0.80950106  1
  Al  Al26  1  0.55682404  0.53589298  0.59400410  1
  Al  Al27  1  0.11092322  0.76910105  0.31471759  1
  Al  Al28  1  0.78219179  0.75748045  0.82171058  1
  Al  Al29  1  0.88852297  0.86913849  0.56214415  1
  Al  Al30  1  0.44638321  0.76830991  0.39275688  1
  Al  Al31  1  0.10979680  0.75514296  0.81123081  1
  Al  Al32  1  0.22709537  0.87092123  0.63236090  1
  Al  Al33  1  0.88403407  0.87451739  0.06087847  1
  Al  Al34  1  0.44666221  0.75693739  0.88594729  1
  Al  Al35  1  0.55632022  0.86792473  0.63233484  1
  N  N36  1  0.21091816  0.18981963  0.36982118  1
  N  N37  1  0.12929185  0.05625913  0.08979183  1
  N  N38  1  0.88528190  0.20745904  0.87647599  1
  N  N39  1  0.77827777  0.09429857  0.61977128  1
  N  N40  1  0.55438787  0.20372184  0.36740564  1
  N  N41  1  0.45901020  0.06049773  0.12199740  1
  N  N42  1  0.22461045  0.20708466  0.87719279  1
  N  N43  1  0.10725079  0.10368259  0.63227867  1
  N  N44  1  0.91773312  0.19263916  0.36811021  1
  N  N45  1  0.77951860  0.09233805  0.12841629  1
  N  N46  1  0.55681699  0.20475308  0.87828916  1
  N  N47  1  0.44146909  0.10176021  0.62231360  1
  N  N48  1  0.22276054  0.53936110  0.36889804  1
  N  N49  1  0.11167293  0.42419156  0.12398861  1
  N  N50  1  0.89333792  0.53220979  0.87522343  1
  N  N51  1  0.78818343  0.42223283  0.61911193  1
  N  N52  1  0.55939789  0.53258490  0.37986801  1
  N  N53  1  0.45925160  0.44499331  0.12104468  1
  N  N54  1  0.22352223  0.53623092  0.87774598  1
  N  N55  1  0.11303184  0.42640417  0.62082595  1
  N  N56  1  0.87800957  0.56589737  0.37091474  1
  N  N57  1  0.74835975  0.44374949  0.12402080  1
  N  N58  1  0.55563616  0.54126605  0.82787232  1
  N  N59  1  0.44044341  0.42139200  0.62237055  1
  N  N60  1  0.20694494  0.90421856  0.35952325  1
  N  N61  1  0.12581186  0.77290996  0.12260550  1
  N  N62  1  0.89169871  0.87334651  0.87652648  1
  N  N63  1  0.78889511  0.75507646  0.63211603  1
  N  N64  1  0.59246468  0.85330778  0.36156238  1
  N  N65  1  0.45008177  0.75328307  0.08649340  1
  N  N66  1  0.22921369  0.86511022  0.82463533  1
  N  N67  1  0.10836467  0.75603399  0.62171539  1
  N  N68  1  0.87856923  0.85678456  0.37043672  1
  N  N69  1  0.74453432  0.77606243  0.09005854  1
  N  N70  1  0.55076382  0.87098775  0.82467226  1
  N  N71  1  0.44247049  0.76605056  0.57509288  1
