# generated using pymatgen
data_Al31B5N36
_symmetry_space_group_name_H-M   'P 1'
_cell_length_a   9.16094018
_cell_length_b   9.24123433
_cell_length_c   9.76848721
_cell_angle_alpha   90.22898401
_cell_angle_beta   90.01662552
_cell_angle_gamma   60.22569267
_symmetry_Int_Tables_number   1
_chemical_formula_structural   Al31B5N36
_chemical_formula_sum   'Al31 B5 N36'
_cell_volume   717.80565771
_cell_formula_units_Z   1
loop_
 _symmetry_equiv_pos_site_id
 _symmetry_equiv_pos_as_xyz
  1  'x, y, z'
loop_
 _atom_site_type_symbol
 _atom_site_label
 _atom_site_symmetry_multiplicity
 _atom_site_fract_x
 _atom_site_fract_y
 _atom_site_fract_z
 _atom_site_occupancy
  B  B0  1  0.11003767  0.10997472  0.38554169  1
  B  B1  1  0.58070053  0.50098588  0.15257295  1
  B  B2  1  0.22608087  0.90946938  0.14708189  1
  B  B3  1  0.54966381  0.89043058  0.14495148  1
  B  B4  1  0.77575818  0.77649506  0.38345944  1
  Al  Al5  1  0.22152964  0.21256867  0.14113508  1
  Al  Al6  1  0.77907144  0.10601045  0.88533542  1
  Al  Al7  1  0.89134026  0.21812766  0.63001337  1
  Al  Al8  1  0.44462930  0.10054765  0.38096457  1
  Al  Al9  1  0.55924868  0.21320671  0.13785584  1
  Al  Al10  1  0.11347610  0.10348394  0.88757071  1
  Al  Al11  1  0.21958189  0.21822547  0.62929520  1
  Al  Al12  1  0.78064918  0.10104128  0.38787850  1
  Al  Al13  1  0.89693998  0.20817205  0.14254884  1
  Al  Al14  1  0.44386632  0.10331593  0.88948679  1
  Al  Al15  1  0.55290364  0.21926516  0.63735022  1
  Al  Al16  1  0.10407212  0.44615884  0.38528969  1
  Al  Al17  1  0.22704390  0.56120363  0.13672203  1
  Al  Al18  1  0.77152152  0.44375609  0.88895913  1
  Al  Al19  1  0.88297282  0.55844256  0.63084924  1
  Al  Al20  1  0.44452514  0.43963371  0.38607696  1
  Al  Al21  1  0.10795313  0.44260743  0.88707059  1
  Al  Al22  1  0.22065348  0.55560925  0.63751631  1
  Al  Al23  1  0.78183529  0.44181283  0.38424830  1
  Al  Al24  1  0.86868763  0.56676144  0.14144459  1
  Al  Al25  1  0.44769487  0.44488638  0.88977442  1
  Al  Al26  1  0.55135171  0.55926454  0.63596870  1
  Al  Al27  1  0.10685178  0.78109064  0.37799580  1
  Al  Al28  1  0.76727243  0.77901250  0.88756342  1
  Al  Al29  1  0.88667946  0.88305683  0.62987211  1
  Al  Al30  1  0.44644270  0.77537254  0.35485538  1
  Al  Al31  1  0.11228854  0.78006137  0.89068380  1
  Al  Al32  1  0.22457817  0.88585947  0.62533177  1
  Al  Al33  1  0.88336020  0.88273795  0.13848581  1
  Al  Al34  1  0.43906933  0.78323867  0.90403621  1
  Al  Al35  1  0.55229528  0.88349927  0.62508344  1
  N  N36  1  0.20592853  0.21109399  0.33473274  1
  N  N37  1  0.11944478  0.09055823  0.08071335  1
  N  N38  1  0.88950109  0.22077016  0.82681638  1
  N  N39  1  0.77676138  0.10704359  0.57957068  1
  N  N40  1  0.55551557  0.21797014  0.32897681  1
  N  N41  1  0.45231513  0.09187468  0.08778995  1
  N  N42  1  0.21978894  0.21967442  0.82637357  1
  N  N43  1  0.11185728  0.10531675  0.55294667  1
  N  N44  1  0.91224827  0.20679965  0.33575549  1
  N  N45  1  0.78111304  0.10370188  0.07954449  1
  N  N46  1  0.55236923  0.22113424  0.83259086  1
  N  N47  1  0.44355066  0.10711243  0.57341844  1
  N  N48  1  0.22262481  0.55339814  0.32746246  1
  N  N49  1  0.10540206  0.44465252  0.08300307  1
  N  N50  1  0.88328841  0.55629933  0.82816407  1
  N  N51  1  0.77467785  0.44195168  0.57562823  1
  N  N52  1  0.56206589  0.53943146  0.30469506  1
  N  N53  1  0.46362704  0.44659969  0.08644957  1
  N  N54  1  0.22211709  0.55472985  0.83399213  1
  N  N55  1  0.10887250  0.44340072  0.57860347  1
  N  N56  1  0.87306030  0.58012215  0.33386268  1
  N  N57  1  0.75571143  0.44356107  0.08940192  1
  N  N58  1  0.55011127  0.56301013  0.83004052  1
  N  N59  1  0.44484514  0.44171064  0.57848001  1
  N  N60  1  0.20667875  0.91574717  0.31354102  1
  N  N61  1  0.12045124  0.78890589  0.08674087  1
  N  N62  1  0.88764377  0.88233943  0.82653143  1
  N  N63  1  0.77290817  0.77677432  0.55220788  1
  N  N64  1  0.57774664  0.87690853  0.31320607  1
  N  N65  1  0.42195662  0.82022432  0.09966277  1
  N  N66  1  0.22353902  0.88689033  0.82001091  1
  N  N67  1  0.11065531  0.77495099  0.57191430  1
  N  N68  1  0.87487154  0.87296896  0.33223532  1
  N  N69  1  0.74311039  0.78954709  0.07976192  1
  N  N70  1  0.55055436  0.88614970  0.81917703  1
  N  N71  1  0.44458217  0.77089011  0.55539203  1
