# generated using pymatgen
data_Al31B5N36
_symmetry_space_group_name_H-M   'P 1'
_cell_length_a   9.15916559
_cell_length_b   9.22769996
_cell_length_c   9.78607557
_cell_angle_alpha   89.87987450
_cell_angle_beta   90.01011142
_cell_angle_gamma   60.27406547
_symmetry_Int_Tables_number   1
_chemical_formula_structural   Al31B5N36
_chemical_formula_sum   'Al31 B5 N36'
_cell_volume   718.25714634
_cell_formula_units_Z   1
loop_
 _symmetry_equiv_pos_site_id
 _symmetry_equiv_pos_as_xyz
  1  'x, y, z'
loop_
 _atom_site_type_symbol
 _atom_site_label
 _atom_site_symmetry_multiplicity
 _atom_site_fract_x
 _atom_site_fract_y
 _atom_site_fract_z
 _atom_site_occupancy
  B  B0  1  0.11610236  0.08805275  0.29448400  1
  B  B1  1  0.58075872  0.48928092  0.03664958  1
  B  B2  1  0.22863643  0.87948124  0.05386372  1
  B  B3  1  0.53404114  0.88431714  0.05109750  1
  B  B4  1  0.76795004  0.76440773  0.29377838  1
  Al  Al5  1  0.22295819  0.19975428  0.05843955  1
  Al  Al6  1  0.78141256  0.09074333  0.80017143  1
  Al  Al7  1  0.89550453  0.20243732  0.54629826  1
  Al  Al8  1  0.44933800  0.08294038  0.29747634  1
  Al  Al9  1  0.56087734  0.19662624  0.04914129  1
  Al  Al10  1  0.11360008  0.09235839  0.80826008  1
  Al  Al11  1  0.22006791  0.20173825  0.54622909  1
  Al  Al12  1  0.78155109  0.08785503  0.30219657  1
  Al  Al13  1  0.89407601  0.19722718  0.05750024  1
  Al  Al14  1  0.44388954  0.09010159  0.80615343  1
  Al  Al15  1  0.55462024  0.20489618  0.55092154  1
  Al  Al16  1  0.10527008  0.43106756  0.29995799  1
  Al  Al17  1  0.22903415  0.54709698  0.05040103  1
  Al  Al18  1  0.78119390  0.42442951  0.80440989  1
  Al  Al19  1  0.88401512  0.54498160  0.54639318  1
  Al  Al20  1  0.44825299  0.43047248  0.29693526  1
  Al  Al21  1  0.10956702  0.42846269  0.80246915  1
  Al  Al22  1  0.22293220  0.54041104  0.55077660  1
  Al  Al23  1  0.77323176  0.43222524  0.29803027  1
  Al  Al24  1  0.87348178  0.54930118  0.05722650  1
  Al  Al25  1  0.44558043  0.42496555  0.80374317  1
  Al  Al26  1  0.55294491  0.54382911  0.55293994  1
  Al  Al27  1  0.11128131  0.76859050  0.29836075  1
  Al  Al28  1  0.77461246  0.76282598  0.81003503  1
  Al  Al29  1  0.88761307  0.86730058  0.54669107  1
  Al  Al30  1  0.44358645  0.77038017  0.28628545  1
  Al  Al31  1  0.11189783  0.76549667  0.80820155  1
  Al  Al32  1  0.22424863  0.87591791  0.55196116  1
  Al  Al33  1  0.88930636  0.86949448  0.06005275  1
  Al  Al34  1  0.44564414  0.75851455  0.83266718  1
  Al  Al35  1  0.55840892  0.86682285  0.55149727  1
  N  N36  1  0.21127793  0.19265035  0.34854337  1
  N  N37  1  0.11846231  0.07796735  0.12517317  1
  N  N38  1  0.89057787  0.20331112  0.86444323  1
  N  N39  1  0.78099508  0.09135959  0.60450142  1
  N  N40  1  0.55273723  0.20739004  0.35674160  1
  N  N41  1  0.45429612  0.07587882  0.10427376  1
  N  N42  1  0.22092323  0.20748670  0.86514958  1
  N  N43  1  0.11228770  0.09275998  0.61736072  1
  N  N44  1  0.91288100  0.19534338  0.34934025  1
  N  N45  1  0.77885944  0.09105554  0.11235235  1
  N  N46  1  0.55749899  0.20226405  0.85757961  1
  N  N47  1  0.44394294  0.09045513  0.60998508  1
  N  N48  1  0.22377924  0.54089175  0.35585647  1
  N  N49  1  0.11030701  0.43230097  0.10837539  1
  N  N50  1  0.88673940  0.54048920  0.86480212  1
  N  N51  1  0.77847407  0.42593918  0.60905304  1
  N  N52  1  0.54993814  0.54854932  0.36008839  1
  N  N53  1  0.46444404  0.43126390  0.10034090  1
  N  N54  1  0.22257653  0.54061715  0.85893128  1
  N  N55  1  0.11003253  0.42651628  0.60495208  1
  N  N56  1  0.87291444  0.56383538  0.34866218  1
  N  N57  1  0.75250779  0.43304980  0.10279211  1
  N  N58  1  0.56173354  0.52725540  0.88358938  1
  N  N59  1  0.44640865  0.42697845  0.61177056  1
  N  N60  1  0.21266218  0.89859550  0.35704728  1
  N  N61  1  0.12990007  0.77385672  0.10637764  1
  N  N62  1  0.88896640  0.87126285  0.86637488  1
  N  N63  1  0.77675735  0.76067887  0.61813238  1
  N  N64  1  0.57976183  0.85821314  0.35708046  1
  N  N65  1  0.42281298  0.80343499  0.09739053  1
  N  N66  1  0.21907954  0.87802031  0.88736539  1
  N  N67  1  0.11171702  0.76338845  0.61090919  1
  N  N68  1  0.87832378  0.85696221  0.34990784  1
  N  N69  1  0.75412890  0.77155915  0.12680543  1
  N  N70  1  0.55665978  0.87390871  0.88756338  1
  N  N71  1  0.44475084  0.76022054  0.62781584  1
