# generated using pymatgen
data_Al31B5N36
_symmetry_space_group_name_H-M   'P 1'
_cell_length_a   9.13775089
_cell_length_b   9.13719496
_cell_length_c   10.24626247
_cell_angle_alpha   89.87620794
_cell_angle_beta   90.02722684
_cell_angle_gamma   60.05346788
_symmetry_Int_Tables_number   1
_chemical_formula_structural   Al31B5N36
_chemical_formula_sum   'Al31 B5 N36'
_cell_volume   741.27668104
_cell_formula_units_Z   1
loop_
 _symmetry_equiv_pos_site_id
 _symmetry_equiv_pos_as_xyz
  1  'x, y, z'
loop_
 _atom_site_type_symbol
 _atom_site_label
 _atom_site_symmetry_multiplicity
 _atom_site_fract_x
 _atom_site_fract_y
 _atom_site_fract_z
 _atom_site_occupancy
  B  B0  1  0.11429586  0.08969157  0.35680089  1
  B  B1  1  0.55972371  0.53296517  0.07143118  1
  B  B2  1  0.22291508  0.87572297  0.10299922  1
  B  B3  1  0.55796055  0.86566106  0.10202976  1
  B  B4  1  0.77525166  0.76247322  0.35796080  1
  Al  Al5  1  0.22946988  0.18829681  0.06143072  1
  Al  Al6  1  0.77861042  0.09385258  0.80996034  1
  Al  Al7  1  0.89486596  0.20263410  0.56240832  1
  Al  Al8  1  0.45269721  0.07785489  0.31252823  1
  Al  Al9  1  0.56030601  0.20115827  0.06211561  1
  Al  Al10  1  0.11058617  0.09656931  0.82206904  1
  Al  Al11  1  0.22222173  0.20229037  0.56179448  1
  Al  Al12  1  0.78246407  0.08754553  0.31205540  1
  Al  Al13  1  0.89149444  0.19883385  0.06062768  1
  Al  Al14  1  0.44137375  0.10077545  0.81132343  1
  Al  Al15  1  0.55514495  0.20478493  0.55751333  1
  Al  Al16  1  0.10626538  0.42983231  0.31064310  1
  Al  Al17  1  0.22901983  0.54400914  0.06154118  1
  Al  Al18  1  0.77632381  0.42814718  0.81265621  1
  Al  Al19  1  0.88909376  0.54105805  0.56410479  1
  Al  Al20  1  0.44819613  0.43076600  0.30811629  1
  Al  Al21  1  0.11316170  0.42536669  0.81045642  1
  Al  Al22  1  0.22408125  0.53776630  0.55868335  1
  Al  Al23  1  0.77524160  0.43676553  0.31003712  1
  Al  Al24  1  0.87433909  0.54486321  0.05847298  1
  Al  Al25  1  0.44629575  0.42894364  0.81497467  1
  Al  Al26  1  0.55983739  0.53019486  0.56496497  1
  Al  Al27  1  0.11111817  0.76882953  0.31374410  1
  Al  Al28  1  0.78231861  0.75749145  0.82219598  1
  Al  Al29  1  0.88875801  0.86869739  0.56172896  1
  Al  Al30  1  0.44411629  0.77234194  0.38927403  1
  Al  Al31  1  0.10943739  0.75503504  0.81135378  1
  Al  Al32  1  0.22823752  0.86948158  0.63179071  1
  Al  Al33  1  0.88367946  0.87430433  0.06160938  1
  Al  Al34  1  0.44297428  0.76424283  0.89223686  1
  Al  Al35  1  0.55660452  0.86649779  0.63172911  1
  N  N36  1  0.21092647  0.19018787  0.36968282  1
  N  N37  1  0.12849984  0.05784288  0.09020323  1
  N  N38  1  0.88568130  0.20655891  0.87519166  1
  N  N39  1  0.77873252  0.09355864  0.61983030  1
  N  N40  1  0.55425788  0.20542340  0.36890373  1
  N  N41  1  0.45811349  0.06301173  0.12226350  1
  N  N42  1  0.22490878  0.20673199  0.87713568  1
  N  N43  1  0.10786754  0.10309037  0.63201600  1
  N  N44  1  0.91675578  0.19419773  0.36929991  1
  N  N45  1  0.77925947  0.09240414  0.12840170  1
  N  N46  1  0.55723905  0.20394646  0.87695148  1
  N  N47  1  0.44164709  0.10135401  0.62194385  1
  N  N48  1  0.22442930  0.53903420  0.36995690  1
  N  N49  1  0.11066868  0.42579471  0.12415228  1
  N  N50  1  0.89338047  0.53227786  0.87416199  1
  N  N51  1  0.78057368  0.42571967  0.62416761  1
  N  N52  1  0.55985094  0.53233129  0.37837576  1
  N  N53  1  0.45897877  0.44090947  0.11916349  1
  N  N54  1  0.22335528  0.53631669  0.87677568  1
  N  N55  1  0.11355133  0.42559525  0.62059317  1
  N  N56  1  0.87708312  0.56548908  0.37176444  1
  N  N57  1  0.75187336  0.43985395  0.12147956  1
  N  N58  1  0.56047277  0.53192792  0.88605619  1
  N  N59  1  0.44494695  0.42532686  0.62697583  1
  N  N60  1  0.20569542  0.90534310  0.35992698  1
  N  N61  1  0.12758384  0.77291835  0.12244887  1
  N  N62  1  0.89174373  0.87323388  0.87679086  1
  N  N63  1  0.78912464  0.75496305  0.63210106  1
  N  N64  1  0.59207768  0.85438704  0.36122624  1
  N  N65  1  0.44193661  0.76718994  0.08687316  1
  N  N66  1  0.23066623  0.86365256  0.82309386  1
  N  N67  1  0.10825833  0.75584978  0.62178823  1
  N  N68  1  0.87864728  0.85648528  0.37005185  1
  N  N69  1  0.74160450  0.77666199  0.08921958  1
  N  N70  1  0.55056614  0.86968188  0.82283095  1
  N  N71  1  0.44467317  0.76153589  0.57454461  1
