# generated using pymatgen
data_Al31B5N36
_symmetry_space_group_name_H-M   'P 1'
_cell_length_a   9.17486275
_cell_length_b   9.28438426
_cell_length_c   10.18611484
_cell_angle_alpha   90.64777395
_cell_angle_beta   89.57632245
_cell_angle_gamma   59.92644520
_symmetry_Int_Tables_number   1
_chemical_formula_structural   Al31B5N36
_chemical_formula_sum   'Al31 B5 N36'
_cell_volume   750.74472350
_cell_formula_units_Z   1
loop_
 _symmetry_equiv_pos_site_id
 _symmetry_equiv_pos_as_xyz
  1  'x, y, z'
loop_
 _atom_site_type_symbol
 _atom_site_label
 _atom_site_symmetry_multiplicity
 _atom_site_fract_x
 _atom_site_fract_y
 _atom_site_fract_z
 _atom_site_occupancy
  B  B0  1  0.11205495  0.10386215  0.30606218  1
  B  B1  1  0.59117952  0.48010175  0.15856321  1
  B  B2  1  0.25565458  0.91583473  0.15787881  1
  B  B3  1  0.54028959  0.89070407  0.09925026  1
  B  B4  1  0.77632182  0.76013768  0.39151395  1
  Al  Al5  1  0.22827629  0.20240129  0.06519206  1
  Al  Al6  1  0.78145269  0.08990820  0.81086172  1
  Al  Al7  1  0.90152506  0.19057829  0.55474036  1
  Al  Al8  1  0.45760518  0.07957039  0.31481408  1
  Al  Al9  1  0.56435972  0.19871245  0.06029782  1
  Al  Al10  1  0.10754684  0.09893625  0.81391406  1
  Al  Al11  1  0.22212187  0.19960071  0.55419473  1
  Al  Al12  1  0.78764881  0.08315246  0.31193236  1
  Al  Al13  1  0.90009228  0.19003230  0.07139369  1
  Al  Al14  1  0.44199735  0.09537962  0.80551348  1
  Al  Al15  1  0.55874129  0.20252267  0.56046415  1
  Al  Al16  1  0.11253237  0.42840707  0.31090448  1
  Al  Al17  1  0.22494034  0.54070353  0.06304750  1
  Al  Al18  1  0.76470951  0.43399860  0.89414307  1
  Al  Al19  1  0.88511158  0.53549242  0.63259805  1
  Al  Al20  1  0.44452023  0.42193207  0.31433598  1
  Al  Al21  1  0.11704792  0.41926473  0.81492393  1
  Al  Al22  1  0.22363673  0.53449871  0.56128600  1
  Al  Al23  1  0.78782652  0.43265709  0.37913542  1
  Al  Al24  1  0.85894719  0.56562696  0.13992141  1
  Al  Al25  1  0.44252225  0.42221345  0.81348425  1
  Al  Al26  1  0.55884235  0.54032155  0.63520019  1
  Al  Al27  1  0.10806377  0.76201193  0.30035516  1
  Al  Al28  1  0.76147961  0.76075661  0.87623680  1
  Al  Al29  1  0.89368143  0.86667171  0.55873505  1
  Al  Al30  1  0.45773489  0.76035902  0.37215347  1
  Al  Al31  1  0.10631295  0.75318699  0.81604482  1
  Al  Al32  1  0.23039050  0.86248848  0.63450750  1
  Al  Al33  1  0.88467772  0.87155859  0.06170568  1
  Al  Al34  1  0.43250002  0.77146999  0.89557173  1
  Al  Al35  1  0.55761951  0.86330210  0.61431659  1
  N  N36  1  0.21319418  0.19419616  0.36362255  1
  N  N37  1  0.11898626  0.09635493  0.14303578  1
  N  N38  1  0.89046681  0.19950445  0.88392290  1
  N  N39  1  0.78275860  0.09015255  0.62236082  1
  N  N40  1  0.56050949  0.20441387  0.37344689  1
  N  N41  1  0.45815672  0.08072520  0.12295033  1
  N  N42  1  0.22350433  0.20148182  0.87942497  1
  N  N43  1  0.11233938  0.09544672  0.62556169  1
  N  N44  1  0.92356987  0.18503751  0.36236120  1
  N  N45  1  0.78139238  0.08960703  0.12710880  1
  N  N46  1  0.55634155  0.20164904  0.87387458  1
  N  N47  1  0.44229230  0.09760015  0.61657789  1
  N  N48  1  0.22443576  0.54069817  0.37373557  1
  N  N49  1  0.11032888  0.42603622  0.12237300  1
  N  N50  1  0.88098757  0.53566016  0.82565360  1
  N  N51  1  0.77720475  0.42507991  0.56474613  1
  N  N52  1  0.57007552  0.53220230  0.30246775  1
  N  N53  1  0.46380430  0.42497476  0.12323996  1
  N  N54  1  0.22230160  0.53369920  0.87717585  1
  N  N55  1  0.11987496  0.41743615  0.62307655  1
  N  N56  1  0.87456697  0.57121464  0.32772997  1
  N  N57  1  0.75328623  0.43562989  0.08869147  1
  N  N58  1  0.55097449  0.54686641  0.82692884  1
  N  N59  1  0.44469141  0.42140788  0.62402973  1
  N  N60  1  0.23279531  0.89227575  0.30393539  1
  N  N61  1  0.09847151  0.75310097  0.12126783  1
  N  N62  1  0.88409317  0.87185311  0.87281192  1
  N  N63  1  0.78258035  0.74670867  0.56142938  1
  N  N64  1  0.59003297  0.85804991  0.35383968  1
  N  N65  1  0.41812945  0.82976148  0.08089470  1
  N  N66  1  0.22211665  0.86866741  0.82437269  1
  N  N67  1  0.10853405  0.75183313  0.62483843  1
  N  N68  1  0.88495535  0.86287138  0.37237522  1
  N  N69  1  0.72834415  0.78249351  0.06689380  1
  N  N70  1  0.54956277  0.86452442  0.80812869  1
  N  N71  1  0.44315709  0.75070432  0.55876496  1
