# generated using pymatgen
data_Al31B5N36
_symmetry_space_group_name_H-M   'P 1'
_cell_length_a   9.15060940
_cell_length_b   9.24767890
_cell_length_c   10.15964922
_cell_angle_alpha   90.74085462
_cell_angle_beta   89.67159335
_cell_angle_gamma   60.20953353
_symmetry_Int_Tables_number   1
_chemical_formula_structural   Al31B5N36
_chemical_formula_sum   'Al31 B5 N36'
_cell_volume   745.97845727
_cell_formula_units_Z   1
loop_
 _symmetry_equiv_pos_site_id
 _symmetry_equiv_pos_as_xyz
  1  'x, y, z'
loop_
 _atom_site_type_symbol
 _atom_site_label
 _atom_site_symmetry_multiplicity
 _atom_site_fract_x
 _atom_site_fract_y
 _atom_site_fract_z
 _atom_site_occupancy
  B  B0  1  0.11519734  0.09776973  0.31023819  1
  B  B1  1  0.59168419  0.48325652  0.16567341  1
  B  B2  1  0.23514559  0.89270650  0.15706222  1
  B  B3  1  0.53612988  0.88713213  0.11013329  1
  B  B4  1  0.77436578  0.75733228  0.40322862  1
  Al  Al5  1  0.22780158  0.19620325  0.08244897  1
  Al  Al6  1  0.77988759  0.09078087  0.81901972  1
  Al  Al7  1  0.90015830  0.19143289  0.56351098  1
  Al  Al8  1  0.45829967  0.07691188  0.32206557  1
  Al  Al9  1  0.56304777  0.19662587  0.06762439  1
  Al  Al10  1  0.10610115  0.10131780  0.82156503  1
  Al  Al11  1  0.22170212  0.19741217  0.55720162  1
  Al  Al12  1  0.78727035  0.08442106  0.32033958  1
  Al  Al13  1  0.89661640  0.19456341  0.07897382  1
  Al  Al14  1  0.43797062  0.09708954  0.81278426  1
  Al  Al15  1  0.55659098  0.20274523  0.56849965  1
  Al  Al16  1  0.10817155  0.43002754  0.34732894  1
  Al  Al17  1  0.23520833  0.55189010  0.07618941  1
  Al  Al18  1  0.76201443  0.43619217  0.90031465  1
  Al  Al19  1  0.89242944  0.53247228  0.63909094  1
  Al  Al20  1  0.44739678  0.42039892  0.32080942  1
  Al  Al21  1  0.10355800  0.42945771  0.88780517  1
  Al  Al22  1  0.22417278  0.53626966  0.56527780  1
  Al  Al23  1  0.78651648  0.43116790  0.38918292  1
  Al  Al24  1  0.85762046  0.56678819  0.15104418  1
  Al  Al25  1  0.44028164  0.42228695  0.82039924  1
  Al  Al26  1  0.55766010  0.54091741  0.64300359  1
  Al  Al27  1  0.11101996  0.76716728  0.31489544  1
  Al  Al28  1  0.75956476  0.76436270  0.88789042  1
  Al  Al29  1  0.89300962  0.86717612  0.56466869  1
  Al  Al30  1  0.45418420  0.76163377  0.37911430  1
  Al  Al31  1  0.10613328  0.75485684  0.82122741  1
  Al  Al32  1  0.22971517  0.86422744  0.64127822  1
  Al  Al33  1  0.89229924  0.87494544  0.07172194  1
  Al  Al34  1  0.43248540  0.77129375  0.90273702  1
  Al  Al35  1  0.55710015  0.86330292  0.62027632  1
  N  N36  1  0.21679746  0.18860751  0.36438249  1
  N  N37  1  0.11327414  0.09195163  0.15017478  1
  N  N38  1  0.88831939  0.20223275  0.89056142  1
  N  N39  1  0.78104749  0.08938852  0.63041583  1
  N  N40  1  0.56002897  0.20383916  0.38123180  1
  N  N41  1  0.45768362  0.07766275  0.13153662  1
  N  N42  1  0.22348216  0.19971095  0.89326491  1
  N  N43  1  0.11115639  0.09666169  0.63329718  1
  N  N44  1  0.92305590  0.18524605  0.37123696  1
  N  N45  1  0.77940945  0.09192453  0.13516426  1
  N  N46  1  0.55455691  0.20187209  0.88126482  1
  N  N47  1  0.43930057  0.09795853  0.62405617  1
  N  N48  1  0.22780215  0.54516163  0.37482150  1
  N  N49  1  0.10420670  0.43887281  0.11255508  1
  N  N50  1  0.88258932  0.53789843  0.83325333  1
  N  N51  1  0.77535551  0.42547527  0.57520016  1
  N  N52  1  0.57086816  0.53269134  0.31027034  1
  N  N53  1  0.46681174  0.42373180  0.13008338  1
  N  N54  1  0.22347075  0.54039906  0.88933637  1
  N  N55  1  0.11183345  0.42168101  0.58676134  1
  N  N56  1  0.87345814  0.56963548  0.33624956  1
  N  N57  1  0.75283961  0.43835517  0.09525090  1
  N  N58  1  0.54949141  0.54737762  0.83375686  1
  N  N59  1  0.44221787  0.42181580  0.63158849  1
  N  N60  1  0.22928868  0.89264548  0.31646928  1
  N  N61  1  0.12409977  0.77737543  0.12775485  1
  N  N62  1  0.88651189  0.87220126  0.88369823  1
  N  N63  1  0.78140505  0.74645498  0.56596736  1
  N  N64  1  0.58935459  0.85678808  0.36309892  1
  N  N65  1  0.41672254  0.82121083  0.08879812  1
  N  N66  1  0.22183527  0.87067696  0.83109265  1
  N  N67  1  0.10729796  0.75260271  0.63136591  1
  N  N68  1  0.88627940  0.86178179  0.37711561  1
  N  N69  1  0.73039390  0.78292613  0.07825607  1
  N  N70  1  0.55070840  0.86494009  0.81532280  1
  N  N71  1  0.44181740  0.75034692  0.56632271  1
