# generated using pymatgen
data_Al31B5N36
_symmetry_space_group_name_H-M   'P 1'
_cell_length_a   9.18105118
_cell_length_b   9.28396853
_cell_length_c   10.19237080
_cell_angle_alpha   90.68431525
_cell_angle_beta   89.74622813
_cell_angle_gamma   59.95692248
_symmetry_Int_Tables_number   1
_chemical_formula_structural   Al31B5N36
_chemical_formula_sum   'Al31 B5 N36'
_cell_volume   751.93596176
_cell_formula_units_Z   1
loop_
 _symmetry_equiv_pos_site_id
 _symmetry_equiv_pos_as_xyz
  1  'x, y, z'
loop_
 _atom_site_type_symbol
 _atom_site_label
 _atom_site_symmetry_multiplicity
 _atom_site_fract_x
 _atom_site_fract_y
 _atom_site_fract_z
 _atom_site_occupancy
  B  B0  1  0.11179672  0.10377359  0.30574728  1
  B  B1  1  0.59094271  0.47965054  0.15865585  1
  B  B2  1  0.25681950  0.91548628  0.15880557  1
  B  B3  1  0.54241484  0.88896362  0.09296998  1
  B  B4  1  0.77747170  0.76602656  0.35342445  1
  Al  Al5  1  0.22887679  0.20101127  0.06505531  1
  Al  Al6  1  0.78171647  0.09053337  0.80983777  1
  Al  Al7  1  0.90181680  0.19099289  0.55420860  1
  Al  Al8  1  0.45670782  0.08109864  0.31440456  1
  Al  Al9  1  0.56467042  0.19787284  0.06004371  1
  Al  Al10  1  0.10754785  0.09889075  0.81433905  1
  Al  Al11  1  0.22219103  0.20038698  0.55491482  1
  Al  Al12  1  0.78649666  0.08361853  0.31168654  1
  Al  Al13  1  0.90055981  0.18689852  0.07118181  1
  Al  Al14  1  0.44009219  0.09740532  0.80698270  1
  Al  Al15  1  0.55879387  0.20299619  0.56066893  1
  Al  Al16  1  0.11290653  0.42918993  0.30872218  1
  Al  Al17  1  0.22434699  0.54133328  0.06262243  1
  Al  Al18  1  0.76449796  0.43273085  0.89621146  1
  Al  Al19  1  0.88759826  0.53046994  0.63885008  1
  Al  Al20  1  0.44443294  0.42204691  0.31427804  1
  Al  Al21  1  0.11836346  0.41830401  0.81729395  1
  Al  Al22  1  0.22362966  0.53505595  0.56149263  1
  Al  Al23  1  0.78737157  0.43458380  0.37762298  1
  Al  Al24  1  0.86043449  0.56395687  0.13000014  1
  Al  Al25  1  0.44284936  0.42302491  0.81308861  1
  Al  Al26  1  0.55963370  0.54111014  0.63525081  1
  Al  Al27  1  0.10852674  0.76050742  0.30018241  1
  Al  Al28  1  0.76688681  0.76165125  0.84021481  1
  Al  Al29  1  0.88908834  0.86299827  0.56341567  1
  Al  Al30  1  0.45848042  0.75915639  0.37278190  1
  Al  Al31  1  0.10623839  0.75409640  0.81449122  1
  Al  Al32  1  0.23091677  0.86334975  0.63442541  1
  Al  Al33  1  0.88059564  0.86890944  0.05770089  1
  Al  Al34  1  0.43162289  0.77163995  0.89774811  1
  Al  Al35  1  0.55584784  0.86463361  0.62081272  1
  N  N36  1  0.21254225  0.19484418  0.36362611  1
  N  N37  1  0.11944839  0.09542684  0.14354453  1
  N  N38  1  0.89075074  0.19838774  0.88434898  1
  N  N39  1  0.78324106  0.09082775  0.62022985  1
  N  N40  1  0.56035319  0.20444289  0.37327770  1
  N  N41  1  0.45870625  0.07925469  0.12307363  1
  N  N42  1  0.22325190  0.20158195  0.88027372  1
  N  N43  1  0.11229091  0.09649871  0.62571536  1
  N  N44  1  0.92352750  0.18483384  0.36187462  1
  N  N45  1  0.78158355  0.08716376  0.12754553  1
  N  N46  1  0.55653527  0.20257713  0.87356553  1
  N  N47  1  0.44225274  0.09847886  0.61646236  1
  N  N48  1  0.22460613  0.54020608  0.37355551  1
  N  N49  1  0.11125236  0.42462871  0.12148887  1
  N  N50  1  0.88580209  0.52689124  0.83286263  1
  N  N51  1  0.77774759  0.42683976  0.56282571  1
  N  N52  1  0.56971089  0.53282341  0.30259160  1
  N  N53  1  0.46348993  0.42469560  0.12360892  1
  N  N54  1  0.22296011  0.53456501  0.87685465  1
  N  N55  1  0.12089843  0.41749843  0.62380925  1
  N  N56  1  0.87327759  0.57570577  0.32339033  1
  N  N57  1  0.75329121  0.43291235  0.08986244  1
  N  N58  1  0.55174495  0.54711923  0.82677641  1
  N  N59  1  0.44528521  0.42225492  0.62338429  1
  N  N60  1  0.23279649  0.89163280  0.30485031  1
  N  N61  1  0.09394128  0.75243980  0.12230925  1
  N  N62  1  0.88553495  0.87370059  0.87214189  1
  N  N63  1  0.78501384  0.75473561  0.62635301  1
  N  N64  1  0.59391458  0.85710598  0.35775507  1
  N  N65  1  0.41831162  0.82822211  0.08303845  1
  N  N66  1  0.22192434  0.86848482  0.82419236  1
  N  N67  1  0.10949906  0.75334057  0.62165204  1
  N  N68  1  0.88006232  0.85810452  0.37198108  1
  N  N69  1  0.72729291  0.78267364  0.06652699  1
  N  N70  1  0.53841878  0.87100770  0.81478235  1
  N  N71  1  0.44433849  0.75201336  0.55857312  1
