# generated using pymatgen
data_Al31B5N36
_symmetry_space_group_name_H-M   'P 1'
_cell_length_a   9.15681555
_cell_length_b   9.23447135
_cell_length_c   9.80635261
_cell_angle_alpha   89.94208972
_cell_angle_beta   90.14195723
_cell_angle_gamma   60.27679493
_symmetry_Int_Tables_number   1
_chemical_formula_structural   Al31B5N36
_chemical_formula_sum   'Al31 B5 N36'
_cell_volume   720.10601845
_cell_formula_units_Z   1
loop_
 _symmetry_equiv_pos_site_id
 _symmetry_equiv_pos_as_xyz
  1  'x, y, z'
loop_
 _atom_site_type_symbol
 _atom_site_label
 _atom_site_symmetry_multiplicity
 _atom_site_fract_x
 _atom_site_fract_y
 _atom_site_fract_z
 _atom_site_occupancy
  B  B0  1  0.11523820  0.08769336  0.30660274  1
  B  B1  1  0.58669170  0.47723407  0.04980913  1
  B  B2  1  0.21782633  0.88676628  0.06839161  1
  B  B3  1  0.54442352  0.88750027  0.06719696  1
  B  B4  1  0.76636767  0.76592751  0.30544011  1
  Al  Al5  1  0.22384305  0.19918996  0.06948618  1
  Al  Al6  1  0.78162814  0.09028349  0.81072258  1
  Al  Al7  1  0.89561312  0.20212823  0.55768970  1
  Al  Al8  1  0.44896135  0.08426628  0.31094389  1
  Al  Al9  1  0.56118698  0.19563538  0.05940384  1
  Al  Al10  1  0.11445001  0.09185590  0.81806355  1
  Al  Al11  1  0.22013468  0.20166477  0.55757600  1
  Al  Al12  1  0.78163497  0.08755003  0.31298842  1
  Al  Al13  1  0.89487613  0.19563375  0.06693573  1
  Al  Al14  1  0.44462843  0.08848778  0.81580217  1
  Al  Al15  1  0.55505780  0.20514100  0.56263016  1
  Al  Al16  1  0.10498880  0.43124505  0.31114826  1
  Al  Al17  1  0.22906860  0.54688881  0.06150321  1
  Al  Al18  1  0.78057921  0.42498119  0.81387864  1
  Al  Al19  1  0.88358747  0.54529747  0.55706592  1
  Al  Al20  1  0.44870848  0.42917508  0.30906948  1
  Al  Al21  1  0.10997288  0.42818526  0.81340766  1
  Al  Al22  1  0.22327047  0.54075945  0.56201416  1
  Al  Al23  1  0.77439973  0.43046012  0.30997100  1
  Al  Al24  1  0.87303228  0.54873746  0.06794374  1
  Al  Al25  1  0.44563689  0.42542189  0.81382544  1
  Al  Al26  1  0.55151437  0.54681111  0.56309486  1
  Al  Al27  1  0.11040861  0.76838976  0.31055914  1
  Al  Al28  1  0.77478645  0.76220673  0.81925874  1
  Al  Al29  1  0.88725661  0.86752738  0.55764357  1
  Al  Al30  1  0.44403511  0.76905887  0.29648027  1
  Al  Al31  1  0.11294588  0.76555353  0.81753450  1
  Al  Al32  1  0.22701571  0.87484115  0.56234922  1
  Al  Al33  1  0.88913213  0.86936750  0.06951792  1
  Al  Al34  1  0.44644026  0.75781436  0.89441749  1
  Al  Al35  1  0.55694679  0.86563965  0.56203448  1
  N  N36  1  0.21060151  0.19313622  0.35977230  1
  N  N37  1  0.11824259  0.07735871  0.13664144  1
  N  N38  1  0.89082267  0.20352195  0.87456805  1
  N  N39  1  0.78138509  0.09111862  0.61579911  1
  N  N40  1  0.55372439  0.20701597  0.36899118  1
  N  N41  1  0.45496656  0.07719327  0.11826051  1
  N  N42  1  0.22194424  0.20673727  0.87654028  1
  N  N43  1  0.11255614  0.09251427  0.62798456  1
  N  N44  1  0.91344927  0.19417110  0.36087118  1
  N  N45  1  0.77938070  0.09022160  0.12294513  1
  N  N46  1  0.55726164  0.20219738  0.86828732  1
  N  N47  1  0.44451147  0.09053979  0.62046793  1
  N  N48  1  0.22390393  0.54057161  0.36705019  1
  N  N49  1  0.10979980  0.43246739  0.11948404  1
  N  N50  1  0.88656309  0.54025626  0.87587589  1
  N  N51  1  0.77844004  0.42581176  0.61929697  1
  N  N52  1  0.55109939  0.54683936  0.36906196  1
  N  N53  1  0.46527110  0.42820680  0.11294525  1
  N  N54  1  0.22296373  0.54099303  0.87032273  1
  N  N55  1  0.11012693  0.42674302  0.61616803  1
  N  N56  1  0.87258657  0.56417211  0.35890933  1
  N  N57  1  0.75514823  0.42933624  0.11522550  1
  N  N58  1  0.56462078  0.52160381  0.89940167  1
  N  N59  1  0.44703003  0.42716732  0.62269218  1
  N  N60  1  0.21198755  0.89896501  0.36615625  1
  N  N61  1  0.12829417  0.77406190  0.11900886  1
  N  N62  1  0.88984288  0.87038059  0.87653157  1
  N  N63  1  0.77673686  0.76085713  0.62822121  1
  N  N64  1  0.57940590  0.85875158  0.36647816  1
  N  N65  1  0.42416315  0.80209297  0.10403113  1
  N  N66  1  0.21288913  0.88150123  0.90264442  1
  N  N67  1  0.11151548  0.76390950  0.62112513  1
  N  N68  1  0.87736975  0.85700109  0.36074305  1
  N  N69  1  0.75021326  0.77381644  0.13708193  1
  N  N70  1  0.56141468  0.87625501  0.90286607  1
  N  N71  1  0.44454593  0.76089631  0.63098358  1
