# generated using pymatgen
data_Al31B5N36
_symmetry_space_group_name_H-M   'P 1'
_cell_length_a   9.16093604
_cell_length_b   9.24123009
_cell_length_c   9.76849263
_cell_angle_alpha   90.22916023
_cell_angle_beta   90.01688651
_cell_angle_gamma   60.22577707
_symmetry_Int_Tables_number   1
_chemical_formula_structural   Al31B5N36
_chemical_formula_sum   'Al31 B5 N36'
_cell_volume   717.80600406
_cell_formula_units_Z   1
loop_
 _symmetry_equiv_pos_site_id
 _symmetry_equiv_pos_as_xyz
  1  'x, y, z'
loop_
 _atom_site_type_symbol
 _atom_site_label
 _atom_site_symmetry_multiplicity
 _atom_site_fract_x
 _atom_site_fract_y
 _atom_site_fract_z
 _atom_site_occupancy
  B  B0  1  0.11118462  0.10103610  0.38638236  1
  B  B1  1  0.58184780  0.49204616  0.15341433  1
  B  B2  1  0.22722328  0.90053068  0.14792147  1
  B  B3  1  0.55080914  0.88149324  0.14579212  1
  B  B4  1  0.77690444  0.76755736  0.38429993  1
  Al  Al5  1  0.22267567  0.20363184  0.14197531  1
  Al  Al6  1  0.78021758  0.09707238  0.88617799  1
  Al  Al7  1  0.89248698  0.20918908  0.63085314  1
  Al  Al8  1  0.44577557  0.09160988  0.38180417  1
  Al  Al9  1  0.56039449  0.20426947  0.13869735  1
  Al  Al10  1  0.11462164  0.09454666  0.88841162  1
  Al  Al11  1  0.22072902  0.20928692  0.63013513  1
  Al  Al12  1  0.78179540  0.09210355  0.38871923  1
  Al  Al13  1  0.89808591  0.19923507  0.14339098  1
  Al  Al14  1  0.44501229  0.09437835  0.89032670  1
  Al  Al15  1  0.55405071  0.21032629  0.63819104  1
  Al  Al16  1  0.10521887  0.43722130  0.38613157  1
  Al  Al17  1  0.22819171  0.55226676  0.13756480  1
  Al  Al18  1  0.77266853  0.43481721  0.88979905  1
  Al  Al19  1  0.88411998  0.54950419  0.63168923  1
  Al  Al20  1  0.44567215  0.43069567  0.38692016  1
  Al  Al21  1  0.10910032  0.43366939  0.88791110  1
  Al  Al22  1  0.22180076  0.54667086  0.63835735  1
  Al  Al23  1  0.78298162  0.43287535  0.38508983  1
  Al  Al24  1  0.86983403  0.55782361  0.14228512  1
  Al  Al25  1  0.44884183  0.43594766  0.89061474  1
  Al  Al26  1  0.55249871  0.55032666  0.63681116  1
  Al  Al27  1  0.10799810  0.77215374  0.37883914  1
  Al  Al28  1  0.76841902  0.77007399  0.88840417  1
  Al  Al29  1  0.88782538  0.87411916  0.63071296  1
  Al  Al30  1  0.44758859  0.76643499  0.35569370  1
  Al  Al31  1  0.11343583  0.77112337  0.89152433  1
  Al  Al32  1  0.22572539  0.87692136  0.62617368  1
  Al  Al33  1  0.88450736  0.87380026  0.13932634  1
  Al  Al34  1  0.44021596  0.77430097  0.90487782  1
  Al  Al35  1  0.55344167  0.87456127  0.62592407  1
  N  N36  1  0.20707536  0.20215604  0.33557316  1
  N  N37  1  0.12058952  0.08162163  0.08155392  1
  N  N38  1  0.89064689  0.21183074  0.82765616  1
  N  N39  1  0.77790709  0.09810490  0.58041083  1
  N  N40  1  0.55666159  0.20903200  0.32981799  1
  N  N41  1  0.45346069  0.08293801  0.08862989  1
  N  N42  1  0.22093554  0.21073580  0.82721342  1
  N  N43  1  0.11300417  0.09637777  0.55378729  1
  N  N44  1  0.91339435  0.19786164  0.33659718  1
  N  N45  1  0.78225843  0.09476394  0.08038638  1
  N  N46  1  0.55351589  0.21219506  0.83343102  1
  N  N47  1  0.44469742  0.09817383  0.57425805  1
  N  N48  1  0.22377216  0.54446006  0.32830508  1
  N  N49  1  0.10654884  0.43571605  0.08384356  1
  N  N50  1  0.88443574  0.54735981  0.82900396  1
  N  N51  1  0.77582434  0.43301240  0.57646940  1
  N  N52  1  0.56321227  0.53049233  0.30553604  1
  N  N53  1  0.46477338  0.43766080  0.08729011  1
  N  N54  1  0.22326443  0.54579060  0.83483284  1
  N  N55  1  0.11002028  0.43446107  0.57944459  1
  N  N56  1  0.87420714  0.57118375  0.33470355  1
  N  N57  1  0.75685778  0.43462214  0.09024276  1
  N  N58  1  0.55125772  0.55407113  0.83088209  1
  N  N59  1  0.44599258  0.43277062  0.57932242  1
  N  N60  1  0.20782381  0.90681031  0.31438256  1
  N  N61  1  0.12160199  0.77996997  0.08758277  1
  N  N62  1  0.88879014  0.87340104  0.82737280  1
  N  N63  1  0.77405447  0.76783592  0.55304834  1
  N  N64  1  0.57889328  0.86797047  0.31404639  1
  N  N65  1  0.42310214  0.81128725  0.10050364  1
  N  N66  1  0.22468571  0.87795227  0.82085214  1
  N  N67  1  0.11180155  0.76601211  0.57275675  1
  N  N68  1  0.87601814  0.86403080  0.33307572  1
  N  N69  1  0.74425708  0.78060898  0.08060230  1
  N  N70  1  0.55170047  0.87721168  0.82001740  1
  N  N71  1  0.44572888  0.76195075  0.55623223  1
