# generated using pymatgen
data_Al31B5N36
_symmetry_space_group_name_H-M   'P 1'
_cell_length_a   9.14828485
_cell_length_b   9.21438503
_cell_length_c   10.17936065
_cell_angle_alpha   91.26893561
_cell_angle_beta   90.71994604
_cell_angle_gamma   60.26555914
_symmetry_Int_Tables_number   1
_chemical_formula_structural   Al31B5N36
_chemical_formula_sum   'Al31 B5 N36'
_cell_volume   744.91354382
_cell_formula_units_Z   1
loop_
 _symmetry_equiv_pos_site_id
 _symmetry_equiv_pos_as_xyz
  1  'x, y, z'
loop_
 _atom_site_type_symbol
 _atom_site_label
 _atom_site_symmetry_multiplicity
 _atom_site_fract_x
 _atom_site_fract_y
 _atom_site_fract_z
 _atom_site_occupancy
  B  B0  1  0.11652798  0.09192801  0.37068105  1
  B  B1  1  0.58393590  0.48138315  0.16889328  1
  B  B2  1  0.22604769  0.88974124  0.14849250  1
  B  B3  1  0.53952229  0.88092678  0.11491522  1
  B  B4  1  0.77375569  0.76376206  0.36873612  1
  Al  Al5  1  0.22847240  0.19897176  0.08995888  1
  Al  Al6  1  0.77524011  0.08670619  0.83052709  1
  Al  Al7  1  0.89451811  0.20417452  0.65122501  1
  Al  Al8  1  0.45390170  0.07883470  0.33067234  1
  Al  Al9  1  0.56398932  0.19073196  0.08301280  1
  Al  Al10  1  0.10981224  0.08640382  0.90015647  1
  Al  Al11  1  0.22234820  0.19633319  0.56838501  1
  Al  Al12  1  0.78195155  0.08074567  0.33436393  1
  Al  Al13  1  0.90078871  0.19808962  0.15485783  1
  Al  Al14  1  0.43317180  0.10363517  0.82443677  1
  Al  Al15  1  0.55818564  0.19854993  0.57805447  1
  Al  Al16  1  0.10332502  0.44067929  0.39294650  1
  Al  Al17  1  0.22998918  0.55118220  0.15506102  1
  Al  Al18  1  0.77235307  0.42724001  0.90942616  1
  Al  Al19  1  0.89727802  0.52562229  0.65565691  1
  Al  Al20  1  0.44579608  0.43171955  0.40043736  1
  Al  Al21  1  0.10629453  0.43634490  0.90922683  1
  Al  Al22  1  0.22285776  0.53864695  0.65050268  1
  Al  Al23  1  0.78713741  0.42619271  0.40041179  1
  Al  Al24  1  0.86064836  0.56192026  0.15298102  1
  Al  Al25  1  0.44744754  0.43416760  0.90549952  1
  Al  Al26  1  0.55561512  0.54110798  0.65298082  1
  Al  Al27  1  0.11677380  0.76698798  0.39377545  1
  Al  Al28  1  0.77375643  0.76257700  0.84475668  1
  Al  Al29  1  0.88565557  0.86532656  0.58114472  1
  Al  Al30  1  0.45272497  0.76020499  0.38499825  1
  Al  Al31  1  0.12368769  0.76042789  0.90672104  1
  Al  Al32  1  0.22529308  0.86955710  0.64808227  1
  Al  Al33  1  0.87934969  0.87287167  0.08264042  1
  Al  Al34  1  0.44279071  0.76941594  0.91113916  1
  Al  Al35  1  0.55558077  0.86550210  0.63601106  1
  N  N36  1  0.21441477  0.19052641  0.37278815  1
  N  N37  1  0.11709191  0.07321004  0.09216257  1
  N  N38  1  0.88795595  0.20873597  0.84409823  1
  N  N39  1  0.77578032  0.08612864  0.64185321  1
  N  N40  1  0.55932302  0.19873185  0.38978036  1
  N  N41  1  0.45559048  0.07425910  0.14296969  1
  N  N42  1  0.22431887  0.20605187  0.89969093  1
  N  N43  1  0.10950950  0.08511676  0.59104208  1
  N  N44  1  0.92389347  0.19192664  0.34448114  1
  N  N45  1  0.77822122  0.08809004  0.14967290  1
  N  N46  1  0.55623682  0.20020646  0.89641734  1
  N  N47  1  0.43663998  0.10246371  0.63594669  1
  N  N48  1  0.22671785  0.54168031  0.33787890  1
  N  N49  1  0.09934658  0.44676078  0.10044045  1
  N  N50  1  0.89050246  0.52757822  0.84608197  1
  N  N51  1  0.77797588  0.42368105  0.58591804  1
  N  N52  1  0.56685475  0.52383898  0.31677824  1
  N  N53  1  0.46358508  0.43433126  0.10186423  1
  N  N54  1  0.22418000  0.53759029  0.84230838  1
  N  N55  1  0.11083156  0.42961854  0.58154700  1
  N  N56  1  0.87180460  0.57068577  0.34366700  1
  N  N57  1  0.75555077  0.42871312  0.10433043  1
  N  N58  1  0.55405129  0.54427006  0.84223407  1
  N  N59  1  0.44453104  0.43197260  0.58905023  1
  N  N60  1  0.21502782  0.90034913  0.32154999  1
  N  N61  1  0.13405462  0.77468067  0.09920166  1
  N  N62  1  0.89036496  0.87214672  0.89677675  1
  N  N63  1  0.78797906  0.75408493  0.64763692  1
  N  N64  1  0.59088526  0.85509860  0.37791273  1
  N  N65  1  0.42173508  0.81054256  0.09897155  1
  N  N66  1  0.22561663  0.86867213  0.83492137  1
  N  N67  1  0.11909157  0.75593080  0.58245225  1
  N  N68  1  0.87587124  0.85506352  0.38592680  1
  N  N69  1  0.72863820  0.78205742  0.09675622  1
  N  N70  1  0.54332248  0.87373575  0.83134734  1
  N  N71  1  0.44418994  0.75270228  0.57506109  1
