# generated using pymatgen
data_Al31B5N36
_symmetry_space_group_name_H-M   'P 1'
_cell_length_a   9.16940048
_cell_length_b   9.25763024
_cell_length_c   10.16601589
_cell_angle_alpha   90.86417019
_cell_angle_beta   89.73301226
_cell_angle_gamma   60.19911858
_symmetry_Int_Tables_number   1
_chemical_formula_structural   Al31B5N36
_chemical_formula_sum   'Al31 B5 N36'
_cell_volume   748.68315997
_cell_formula_units_Z   1
loop_
 _symmetry_equiv_pos_site_id
 _symmetry_equiv_pos_as_xyz
  1  'x, y, z'
loop_
 _atom_site_type_symbol
 _atom_site_label
 _atom_site_symmetry_multiplicity
 _atom_site_fract_x
 _atom_site_fract_y
 _atom_site_fract_z
 _atom_site_occupancy
  B  B0  1  0.11534371  0.09697948  0.30990934  1
  B  B1  1  0.58677797  0.48003738  0.16024797  1
  B  B2  1  0.23394570  0.89293363  0.15602199  1
  B  B3  1  0.53551317  0.88644300  0.10863781  1
  B  B4  1  0.77333413  0.75690886  0.40241389  1
  Al  Al5  1  0.22638608  0.19599105  0.08239713  1
  Al  Al6  1  0.78136520  0.09011993  0.81930383  1
  Al  Al7  1  0.89953410  0.19255655  0.56292759  1
  Al  Al8  1  0.45741507  0.07564326  0.32035889  1
  Al  Al9  1  0.56471812  0.19218833  0.07226240  1
  Al  Al10  1  0.10715658  0.10176973  0.82200983  1
  Al  Al11  1  0.22376403  0.19307102  0.55664876  1
  Al  Al12  1  0.78809230  0.08241388  0.31919792  1
  Al  Al13  1  0.89580524  0.19590114  0.07904684  1
  Al  Al14  1  0.43773702  0.09938898  0.81352810  1
  Al  Al15  1  0.56048755  0.19628527  0.56699781  1
  Al  Al16  1  0.10206166  0.43123012  0.37464436  1
  Al  Al17  1  0.22783621  0.55431730  0.08411453  1
  Al  Al18  1  0.76774060  0.43640794  0.89865054  1
  Al  Al19  1  0.89201834  0.53247310  0.63787040  1
  Al  Al20  1  0.45288577  0.42527725  0.38089545  1
  Al  Al21  1  0.10209361  0.43197965  0.90147049  1
  Al  Al22  1  0.21901426  0.54249802  0.56463523  1
  Al  Al23  1  0.78409273  0.43028364  0.38593193  1
  Al  Al24  1  0.85820878  0.56568746  0.15109571  1
  Al  Al25  1  0.45376137  0.42839965  0.88779869  1
  Al  Al26  1  0.55582049  0.53810535  0.64128441  1
  Al  Al27  1  0.10975430  0.76735411  0.31325332  1
  Al  Al28  1  0.76129125  0.76389672  0.88630490  1
  Al  Al29  1  0.89233118  0.86788493  0.56402807  1
  Al  Al30  1  0.45343414  0.76084041  0.37739193  1
  Al  Al31  1  0.10863689  0.75359783  0.82232778  1
  Al  Al32  1  0.22995302  0.86474653  0.64120497  1
  Al  Al33  1  0.89160864  0.87523771  0.07036913  1
  Al  Al34  1  0.43329986  0.77400690  0.90124746  1
  Al  Al35  1  0.55708899  0.86314309  0.62051076  1
  N  N36  1  0.21669374  0.18638339  0.36431980  1
  N  N37  1  0.11253526  0.09190423  0.14992549  1
  N  N38  1  0.88921701  0.20247432  0.89028057  1
  N  N39  1  0.78175360  0.08950484  0.63100702  1
  N  N40  1  0.56375273  0.19455600  0.37746045  1
  N  N41  1  0.45621717  0.07682288  0.13101124  1
  N  N42  1  0.22427584  0.19976926  0.89268099  1
  N  N43  1  0.11027323  0.09762413  0.63363854  1
  N  N44  1  0.92271128  0.18427369  0.37096427  1
  N  N45  1  0.78062524  0.09142828  0.13493410  1
  N  N46  1  0.55848247  0.19707412  0.88285929  1
  N  N47  1  0.43847535  0.09960374  0.62538811  1
  N  N48  1  0.22273359  0.54633503  0.36719296  1
  N  N49  1  0.09514007  0.44199864  0.09647266  1
  N  N50  1  0.88727662  0.53704844  0.82971668  1
  N  N51  1  0.77543844  0.42642668  0.57379017  1
  N  N52  1  0.56600919  0.52668417  0.30603881  1
  N  N53  1  0.46916598  0.43112198  0.09475829  1
  N  N54  1  0.22395051  0.54100627  0.88904254  1
  N  N55  1  0.10811827  0.42329858  0.57006438  1
  N  N56  1  0.87232063  0.56832565  0.33579252  1
  N  N57  1  0.75222596  0.43892540  0.09499780  1
  N  N58  1  0.55319613  0.54611952  0.83021260  1
  N  N59  1  0.44943424  0.42706496  0.57917316  1
  N  N60  1  0.22908739  0.89186432  0.31538895  1
  N  N61  1  0.12110009  0.78070088  0.12698998  1
  N  N62  1  0.88815698  0.87141257  0.88287924  1
  N  N63  1  0.78113348  0.74699149  0.56550173  1
  N  N64  1  0.58891691  0.85487909  0.36191721  1
  N  N65  1  0.41583753  0.82152471  0.08723339  1
  N  N66  1  0.22312548  0.87073890  0.83030532  1
  N  N67  1  0.10587996  0.75450920  0.63236514  1
  N  N68  1  0.88622843  0.86077901  0.37692535  1
  N  N69  1  0.72981719  0.78252447  0.07688257  1
  N  N70  1  0.55195552  0.86562808  0.81456104  1
  N  N71  1  0.44171776  0.75132302  0.56603802  1
