# generated using pymatgen
data_Al31B5N36
_symmetry_space_group_name_H-M   'P 1'
_cell_length_a   9.17340497
_cell_length_b   9.28048678
_cell_length_c   10.20511949
_cell_angle_alpha   90.70883224
_cell_angle_beta   89.66676249
_cell_angle_gamma   59.95337497
_symmetry_Int_Tables_number   1
_chemical_formula_structural   Al31B5N36
_chemical_formula_sum   'Al31 B5 N36'
_cell_volume   751.91849012
_cell_formula_units_Z   1
loop_
 _symmetry_equiv_pos_site_id
 _symmetry_equiv_pos_as_xyz
  1  'x, y, z'
loop_
 _atom_site_type_symbol
 _atom_site_label
 _atom_site_symmetry_multiplicity
 _atom_site_fract_x
 _atom_site_fract_y
 _atom_site_fract_z
 _atom_site_occupancy
  B  B0  1  0.11185171  0.10408668  0.30599715  1
  B  B1  1  0.59126859  0.47973421  0.15887765  1
  B  B2  1  0.25603631  0.91560748  0.15845907  1
  B  B3  1  0.54077066  0.89010236  0.09544101  1
  B  B4  1  0.77746043  0.76548474  0.36178401  1
  Al  Al5  1  0.22857547  0.20157132  0.06483658  1
  Al  Al6  1  0.78163765  0.08937727  0.80971595  1
  Al  Al7  1  0.90161602  0.19077765  0.55461339  1
  Al  Al8  1  0.45664828  0.08134088  0.31401388  1
  Al  Al9  1  0.56464547  0.19844569  0.05980948  1
  Al  Al10  1  0.10734881  0.09880166  0.81385381  1
  Al  Al11  1  0.22224869  0.19992623  0.55504723  1
  Al  Al12  1  0.78678243  0.08420655  0.31171433  1
  Al  Al13  1  0.90043723  0.18844914  0.07100805  1
  Al  Al14  1  0.44073606  0.09654678  0.80644730  1
  Al  Al15  1  0.55883219  0.20224319  0.56076643  1
  Al  Al16  1  0.11297921  0.42909903  0.30953994  1
  Al  Al17  1  0.22507397  0.54109333  0.06255948  1
  Al  Al18  1  0.76434728  0.43265395  0.89520133  1
  Al  Al19  1  0.88583544  0.53382002  0.63799638  1
  Al  Al20  1  0.44456430  0.42215890  0.31456187  1
  Al  Al21  1  0.11771363  0.41858204  0.81645611  1
  Al  Al22  1  0.22309933  0.53472477  0.56160892  1
  Al  Al23  1  0.78751050  0.43468952  0.37931035  1
  Al  Al24  1  0.86045604  0.56364119  0.13362509  1
  Al  Al25  1  0.44256043  0.42259557  0.81278939  1
  Al  Al26  1  0.55935943  0.54085344  0.63494744  1
  Al  Al27  1  0.10894737  0.76107018  0.30035187  1
  Al  Al28  1  0.76271033  0.76069988  0.86595790  1
  Al  Al29  1  0.89008504  0.86345893  0.56097461  1
  Al  Al30  1  0.45872968  0.75990469  0.37265834  1
  Al  Al31  1  0.10558476  0.75345765  0.81399178  1
  Al  Al32  1  0.23076089  0.86293701  0.63406491  1
  Al  Al33  1  0.88394654  0.87076582  0.05969457  1
  Al  Al34  1  0.43102256  0.77156525  0.89675070  1
  Al  Al35  1  0.55825701  0.86270384  0.62103942  1
  N  N36  1  0.21275937  0.19493603  0.36375050  1
  N  N37  1  0.11917241  0.09598877  0.14351732  1
  N  N38  1  0.89047557  0.19833166  0.88415443  1
  N  N39  1  0.78323099  0.09019324  0.62077785  1
  N  N40  1  0.56028806  0.20456480  0.37349796  1
  N  N41  1  0.45858073  0.07995595  0.12267409  1
  N  N42  1  0.22315998  0.20139404  0.88005290  1
  N  N43  1  0.11226265  0.09595390  0.62567557  1
  N  N44  1  0.92361239  0.18513809  0.36224664  1
  N  N45  1  0.78145738  0.08864093  0.12752892  1
  N  N46  1  0.55642584  0.20219455  0.87365595  1
  N  N47  1  0.44244548  0.09729284  0.61683423  1
  N  N48  1  0.22446748  0.54060051  0.37381616  1
  N  N49  1  0.11125464  0.42521664  0.12195735  1
  N  N50  1  0.88372132  0.53035054  0.83150763  1
  N  N51  1  0.77790290  0.42573946  0.56406872  1
  N  N52  1  0.57022975  0.53256775  0.30263433  1
  N  N53  1  0.46372792  0.42479024  0.12380483  1
  N  N54  1  0.22259295  0.53429663  0.87703124  1
  N  N55  1  0.12049791  0.41706036  0.62435597  1
  N  N56  1  0.87355302  0.57497044  0.32398832  1
  N  N57  1  0.75317558  0.43405532  0.08916465  1
  N  N58  1  0.55122778  0.54700918  0.82665488  1
  N  N59  1  0.44490937  0.42180534  0.62354733  1
  N  N60  1  0.23301589  0.89210802  0.30452383  1
  N  N61  1  0.09712663  0.75284167  0.12213872  1
  N  N62  1  0.88489072  0.87252540  0.87302009  1
  N  N63  1  0.78388015  0.75051754  0.59922230  1
  N  N64  1  0.59297727  0.85739804  0.35173583  1
  N  N65  1  0.41800465  0.82896759  0.08199196  1
  N  N66  1  0.22153791  0.86841108  0.82384905  1
  N  N67  1  0.10907671  0.75295989  0.62227619  1
  N  N68  1  0.88134800  0.86003319  0.37042994  1
  N  N69  1  0.72821033  0.78210784  0.06434525  1
  N  N70  1  0.54293392  0.86824125  0.81353478  1
  N  N71  1  0.44420894  0.75194022  0.55841206  1
