# generated using pymatgen
data_Al31B5N36
_symmetry_space_group_name_H-M   'P 1'
_cell_length_a   9.15915681
_cell_length_b   9.22768718
_cell_length_c   9.78610452
_cell_angle_alpha   89.87982844
_cell_angle_beta   90.01009092
_cell_angle_gamma   60.27407454
_symmetry_Int_Tables_number   1
_chemical_formula_structural   Al31B5N36
_chemical_formula_sum   'Al31 B5 N36'
_cell_volume   718.25765131
_cell_formula_units_Z   1
loop_
 _symmetry_equiv_pos_site_id
 _symmetry_equiv_pos_as_xyz
  1  'x, y, z'
loop_
 _atom_site_type_symbol
 _atom_site_label
 _atom_site_symmetry_multiplicity
 _atom_site_fract_x
 _atom_site_fract_y
 _atom_site_fract_z
 _atom_site_occupancy
  B  B0  1  0.11620847  0.08792016  0.30122288  1
  B  B1  1  0.58086468  0.48914870  0.04338835  1
  B  B2  1  0.22874319  0.87934726  0.06060228  1
  B  B3  1  0.53414465  0.88418452  0.05783517  1
  B  B4  1  0.76805755  0.76427363  0.30051718  1
  Al  Al5  1  0.22306437  0.19962102  0.06517717  1
  Al  Al6  1  0.78151924  0.09060934  0.80690808  1
  Al  Al7  1  0.89561102  0.20230490  0.55303766  1
  Al  Al8  1  0.44944487  0.08280688  0.30421227  1
  Al  Al9  1  0.56098505  0.19649204  0.05587817  1
  Al  Al10  1  0.11370666  0.09222478  0.81499972  1
  Al  Al11  1  0.22017418  0.20160517  0.55296809  1
  Al  Al12  1  0.78165739  0.08772256  0.30893773  1
  Al  Al13  1  0.89418227  0.19709311  0.06423694  1
  Al  Al14  1  0.44399565  0.08996841  0.81289017  1
  Al  Al15  1  0.55472601  0.20476337  0.55766032  1
  Al  Al16  1  0.10537643  0.43093430  0.30669675  1
  Al  Al17  1  0.22914087  0.54696408  0.05714057  1
  Al  Al18  1  0.78130015  0.42429635  0.81114986  1
  Al  Al19  1  0.88412135  0.54484857  0.55313375  1
  Al  Al20  1  0.44836013  0.43033905  0.30367330  1
  Al  Al21  1  0.10967377  0.42832973  0.80920937  1
  Al  Al22  1  0.22303878  0.54027756  0.55751483  1
  Al  Al23  1  0.77333847  0.43209250  0.30476647  1
  Al  Al24  1  0.87358873  0.54916813  0.06396354  1
  Al  Al25  1  0.44568637  0.42483258  0.81048263  1
  Al  Al26  1  0.55305203  0.54369498  0.55968031  1
  Al  Al27  1  0.11138831  0.76845735  0.30509795  1
  Al  Al28  1  0.77471848  0.76269368  0.81677738  1
  Al  Al29  1  0.88771943  0.86716667  0.55342937  1
  Al  Al30  1  0.44369308  0.77024714  0.29302577  1
  Al  Al31  1  0.11200365  0.76536345  0.81493900  1
  Al  Al32  1  0.22435435  0.87578514  0.55870068  1
  Al  Al33  1  0.88941294  0.86936191  0.06679394  1
  Al  Al34  1  0.44574998  0.75838147  0.83940172  1
  Al  Al35  1  0.55851613  0.86668966  0.55823668  1
  N  N36  1  0.21138485  0.19251686  0.35528268  1
  N  N37  1  0.11856822  0.07783458  0.13191212  1
  N  N38  1  0.89068397  0.20317733  0.87118093  1
  N  N39  1  0.78110156  0.09122612  0.61123921  1
  N  N40  1  0.55284301  0.20725686  0.36348088  1
  N  N41  1  0.45440250  0.07574571  0.11101101  1
  N  N42  1  0.22102966  0.20735354  0.87188788  1
  N  N43  1  0.11239414  0.09262682  0.62409993  1
  N  N44  1  0.91298763  0.19521107  0.35608030  1
  N  N45  1  0.77896540  0.09092313  0.11909316  1
  N  N46  1  0.55760583  0.20213035  0.86431686  1
  N  N47  1  0.44404917  0.09032184  0.61672368  1
  N  N48  1  0.22388607  0.54075856  0.36259518  1
  N  N49  1  0.11041370  0.43216755  0.11511438  1
  N  N50  1  0.88684608  0.54035586  0.87154067  1
  N  N51  1  0.77858042  0.42580612  0.61579428  1
  N  N52  1  0.55004566  0.54841529  0.36682823  1
  N  N53  1  0.46455103  0.43113043  0.10707970  1
  N  N54  1  0.22268287  0.54048418  0.86567116  1
  N  N55  1  0.11013916  0.42638312  0.61169265  1
  N  N56  1  0.87302115  0.56370194  0.35540282  1
  N  N57  1  0.75261434  0.43291671  0.10952944  1
  N  N58  1  0.56183939  0.52712287  0.89032800  1
  N  N59  1  0.44651466  0.42684547  0.61851008  1
  N  N60  1  0.21276826  0.89846257  0.36378702  1
  N  N61  1  0.13000731  0.77372363  0.11311639  1
  N  N62  1  0.88907285  0.87113028  0.87311569  1
  N  N63  1  0.77686362  0.76054613  0.62487349  1
  N  N64  1  0.57986885  0.85808020  0.36381989  1
  N  N65  1  0.42291896  0.80330210  0.10413119  1
  N  N66  1  0.21918635  0.87788655  0.89410418  1
  N  N67  1  0.11182319  0.76325509  0.61764787  1
  N  N68  1  0.87843114  0.85682862  0.35664731  1
  N  N69  1  0.75423762  0.77142440  0.13354548  1
  N  N70  1  0.55676472  0.87377561  0.89430246  1
  N  N71  1  0.44485707  0.76008742  0.63455395  1
