# generated using pymatgen
data_Al31B5N36
_symmetry_space_group_name_H-M   'P 1'
_cell_length_a   9.14999703
_cell_length_b   9.23075659
_cell_length_c   9.91024637
_cell_angle_alpha   89.96558609
_cell_angle_beta   90.33762921
_cell_angle_gamma   60.37882821
_symmetry_Int_Tables_number   1
_chemical_formula_structural   Al31B5N36
_chemical_formula_sum   'Al31 B5 N36'
_cell_volume   727.62475476
_cell_formula_units_Z   1
loop_
 _symmetry_equiv_pos_site_id
 _symmetry_equiv_pos_as_xyz
  1  'x, y, z'
loop_
 _atom_site_type_symbol
 _atom_site_label
 _atom_site_symmetry_multiplicity
 _atom_site_fract_x
 _atom_site_fract_y
 _atom_site_fract_z
 _atom_site_occupancy
  B  B0  1  0.11128034  0.08954737  0.30601628  1
  B  B1  1  0.58806170  0.47324511  0.04936592  1
  B  B2  1  0.21568525  0.88967086  0.07217999  1
  B  B3  1  0.53825734  0.88390969  0.11460731  1
  B  B4  1  0.76850371  0.76729412  0.31174931  1
  Al  Al5  1  0.22356667  0.19882810  0.06957496  1
  Al  Al6  1  0.78051418  0.08935452  0.80979849  1
  Al  Al7  1  0.89503267  0.20368509  0.55816968  1
  Al  Al8  1  0.44840316  0.08725298  0.31877978  1
  Al  Al9  1  0.56161293  0.19170925  0.05866956  1
  Al  Al10  1  0.11650805  0.09038157  0.81947657  1
  Al  Al11  1  0.21813754  0.20434672  0.55585290  1
  Al  Al12  1  0.78245857  0.08798837  0.31171303  1
  Al  Al13  1  0.89472610  0.19433069  0.06424083  1
  Al  Al14  1  0.44242969  0.08969681  0.80816438  1
  Al  Al15  1  0.55536842  0.20815259  0.56037360  1
  Al  Al16  1  0.10543986  0.43252203  0.31033142  1
  Al  Al17  1  0.22877897  0.54683217  0.05966726  1
  Al  Al18  1  0.77994087  0.42582097  0.81497231  1
  Al  Al19  1  0.88572668  0.54366348  0.55475456  1
  Al  Al20  1  0.44940989  0.42795450  0.30518746  1
  Al  Al21  1  0.11005615  0.42787931  0.81285450  1
  Al  Al22  1  0.22394068  0.54184954  0.56274394  1
  Al  Al23  1  0.77753637  0.42866591  0.30572209  1
  Al  Al24  1  0.87071302  0.54967372  0.06617438  1
  Al  Al25  1  0.44567364  0.42545862  0.81546495  1
  Al  Al26  1  0.55683303  0.53714990  0.55777771  1
  Al  Al27  1  0.11035071  0.76799526  0.30729113  1
  Al  Al28  1  0.77689010  0.75932092  0.81089476  1
  Al  Al29  1  0.88980874  0.86771408  0.55538521  1
  Al  Al30  1  0.44547180  0.76801803  0.34887637  1
  Al  Al31  1  0.11337776  0.76586567  0.81964362  1
  Al  Al32  1  0.21545190  0.88136362  0.55780782  1
  Al  Al33  1  0.88624990  0.86983177  0.06773769  1
  Al  Al34  1  0.45187155  0.76225095  0.91613801  1
  Al  Al35  1  0.56019158  0.86985158  0.57627280  1
  N  N36  1  0.20911157  0.19469626  0.35981883  1
  N  N37  1  0.11681575  0.07832880  0.13653409  1
  N  N38  1  0.89095220  0.20232334  0.87381635  1
  N  N39  1  0.78148978  0.09131018  0.61569247  1
  N  N40  1  0.55568823  0.20841716  0.36870261  1
  N  N41  1  0.45548083  0.07390583  0.12432194  1
  N  N42  1  0.22289319  0.20705967  0.87823047  1
  N  N43  1  0.11248173  0.09415231  0.62984535  1
  N  N44  1  0.91324546  0.19559827  0.36109201  1
  N  N45  1  0.77945181  0.08936802  0.12296967  1
  N  N46  1  0.55653519  0.20064683  0.86936509  1
  N  N47  1  0.44064522  0.09970760  0.61466301  1
  N  N48  1  0.22567032  0.54123191  0.36798511  1
  N  N49  1  0.10874111  0.43372664  0.12003285  1
  N  N50  1  0.88748295  0.54007062  0.87638262  1
  N  N51  1  0.77924365  0.42643326  0.62165684  1
  N  N52  1  0.56023587  0.53336727  0.36669395  1
  N  N53  1  0.46515487  0.42540337  0.11126347  1
  N  N54  1  0.22280853  0.54086445  0.87053653  1
  N  N55  1  0.11078020  0.42717409  0.61675410  1
  N  N56  1  0.87371249  0.56397118  0.35852841  1
  N  N57  1  0.75676864  0.42683543  0.11325863  1
  N  N58  1  0.56363478  0.52329782  0.90179355  1
  N  N59  1  0.44759845  0.42786644  0.62562126  1
  N  N60  1  0.20060734  0.90532758  0.36439373  1
  N  N61  1  0.12739535  0.77361373  0.11832171  1
  N  N62  1  0.88847712  0.86957045  0.87683261  1
  N  N63  1  0.78668171  0.75622244  0.62265335  1
  N  N64  1  0.58592964  0.86369109  0.37161305  1
  N  N65  1  0.42760273  0.80533280  0.11063830  1
  N  N66  1  0.21577511  0.87991443  0.90641219  1
  N  N67  1  0.11188542  0.76464129  0.62421990  1
  N  N68  1  0.87976604  0.85692345  0.35972657  1
  N  N69  1  0.74285696  0.77584974  0.13928817  1
  N  N70  1  0.55243592  0.86653064  0.84033332  1
  N  N71  1  0.44077174  0.76125325  0.57141196  1
