# generated using pymatgen
data_Al31B5N36
_symmetry_space_group_name_H-M   'P 1'
_cell_length_a   9.12587791
_cell_length_b   9.20083395
_cell_length_c   10.24889840
_cell_angle_alpha   90.29133763
_cell_angle_beta   89.97142059
_cell_angle_gamma   60.36726981
_symmetry_Int_Tables_number   1
_chemical_formula_structural   Al31B5N36
_chemical_formula_sum   'Al31 B5 N36'
_cell_volume   747.99179959
_cell_formula_units_Z   1
loop_
 _symmetry_equiv_pos_site_id
 _symmetry_equiv_pos_as_xyz
  1  'x, y, z'
loop_
 _atom_site_type_symbol
 _atom_site_label
 _atom_site_symmetry_multiplicity
 _atom_site_fract_x
 _atom_site_fract_y
 _atom_site_fract_z
 _atom_site_occupancy
  B  B0  1  0.11620862  0.08930825  0.35506501  1
  B  B1  1  0.58350145  0.48773641  0.16307064  1
  B  B2  1  0.22751354  0.89236160  0.09882963  1
  B  B3  1  0.54078686  0.88144594  0.09573080  1
  B  B4  1  0.77506436  0.76472306  0.35783190  1
  Al  Al5  1  0.22482378  0.19834995  0.06179578  1
  Al  Al6  1  0.78037705  0.08918468  0.80931246  1
  Al  Al7  1  0.89544461  0.19923099  0.56212381  1
  Al  Al8  1  0.45244115  0.07874777  0.31375713  1
  Al  Al9  1  0.56235055  0.19449282  0.06079368  1
  Al  Al10  1  0.11265255  0.09459843  0.82024111  1
  Al  Al11  1  0.22057996  0.20425294  0.56138554  1
  Al  Al12  1  0.78422172  0.08442284  0.31086746  1
  Al  Al13  1  0.89301609  0.19434407  0.06017554  1
  Al  Al14  1  0.44075472  0.09719973  0.80808774  1
  Al  Al15  1  0.55696816  0.20288913  0.55886432  1
  Al  Al16  1  0.10503778  0.43328957  0.30911942  1
  Al  Al17  1  0.23280096  0.54815657  0.06336668  1
  Al  Al18  1  0.78515896  0.42090604  0.81193448  1
  Al  Al19  1  0.88997518  0.54056741  0.56390322  1
  Al  Al20  1  0.44002010  0.42230600  0.31417053  1
  Al  Al21  1  0.11248496  0.42622802  0.81274427  1
  Al  Al22  1  0.22310040  0.53759967  0.55945615  1
  Al  Al23  1  0.79213253  0.42588507  0.31929580  1
  Al  Al24  1  0.86566156  0.55037444  0.06145559  1
  Al  Al25  1  0.44393956  0.42134737  0.81419171  1
  Al  Al26  1  0.55212314  0.54406678  0.63468403  1
  Al  Al27  1  0.11373375  0.77121974  0.31030641  1
  Al  Al28  1  0.77907825  0.75725232  0.82144369  1
  Al  Al29  1  0.89033084  0.86637719  0.56116888  1
  Al  Al30  1  0.44854293  0.76604906  0.37993303  1
  Al  Al31  1  0.11162243  0.75488071  0.81066104  1
  Al  Al32  1  0.22879317  0.86947400  0.62520665  1
  Al  Al33  1  0.88357533  0.87128815  0.06057405  1
  Al  Al34  1  0.44426436  0.76142151  0.89193193  1
  Al  Al35  1  0.55697579  0.86542450  0.62276173  1
  N  N36  1  0.20877079  0.19416827  0.36875569  1
  N  N37  1  0.12105167  0.07228701  0.09496493  1
  N  N38  1  0.88594755  0.20410153  0.87436267  1
  N  N39  1  0.78026661  0.08983759  0.62019056  1
  N  N40  1  0.55781577  0.20354383  0.37225215  1
  N  N41  1  0.45296427  0.07546866  0.12444526  1
  N  N42  1  0.22416416  0.20841773  0.87626441  1
  N  N43  1  0.10904837  0.10156101  0.63027756  1
  N  N44  1  0.91831363  0.18981809  0.37086543  1
  N  N45  1  0.78052443  0.08822023  0.12723001  1
  N  N46  1  0.55797062  0.20060656  0.87540634  1
  N  N47  1  0.44113257  0.09914641  0.61843086  1
  N  N48  1  0.22081341  0.54293964  0.37146673  1
  N  N49  1  0.10618926  0.43572017  0.12354411  1
  N  N50  1  0.89117397  0.53305620  0.87613973  1
  N  N51  1  0.78425795  0.42158595  0.61467441  1
  N  N52  1  0.55423142  0.54358411  0.30779389  1
  N  N53  1  0.46478003  0.42268397  0.12405280  1
  N  N54  1  0.22418733  0.53747634  0.87837348  1
  N  N55  1  0.11289873  0.42565773  0.62225133  1
  N  N56  1  0.87698908  0.56789801  0.37284156  1
  N  N57  1  0.76708492  0.42138939  0.12840521  1
  N  N58  1  0.55416373  0.54351344  0.82411036  1
  N  N59  1  0.44233307  0.42076366  0.62246407  1
  N  N60  1  0.20821950  0.90681444  0.36055437  1
  N  N61  1  0.13308271  0.77699615  0.12059459  1
  N  N62  1  0.89247430  0.87063817  0.87547045  1
  N  N63  1  0.78991000  0.75309709  0.63038632  1
  N  N64  1  0.59219201  0.85684601  0.36347947  1
  N  N65  1  0.42066776  0.80944245  0.07700373  1
  N  N66  1  0.23157341  0.86466788  0.81891743  1
  N  N67  1  0.10928807  0.75454728  0.62075520  1
  N  N68  1  0.88045335  0.85611370  0.36843964  1
  N  N69  1  0.72929672  0.78284675  0.08484941  1
  N  N70  1  0.54814091  0.86905177  0.81554992  1
  N  N71  1  0.44849314  0.75176806  0.56313632  1
