# generated using pymatgen
data_Al31B5N36
_symmetry_space_group_name_H-M   'P 1'
_cell_length_a   9.15627213
_cell_length_b   9.22159433
_cell_length_c   10.17382528
_cell_angle_alpha   91.09904189
_cell_angle_beta   90.09685909
_cell_angle_gamma   60.17476735
_symmetry_Int_Tables_number   1
_chemical_formula_structural   Al31B5N36
_chemical_formula_sum   'Al31 B5 N36'
_cell_volume   745.08197907
_cell_formula_units_Z   1
loop_
 _symmetry_equiv_pos_site_id
 _symmetry_equiv_pos_as_xyz
  1  'x, y, z'
loop_
 _atom_site_type_symbol
 _atom_site_label
 _atom_site_symmetry_multiplicity
 _atom_site_fract_x
 _atom_site_fract_y
 _atom_site_fract_z
 _atom_site_occupancy
  B  B0  1  0.11400172  0.09707671  0.30805323  1
  B  B1  1  0.58304437  0.48176540  0.15863136  1
  B  B2  1  0.23144420  0.88738708  0.15272163  1
  B  B3  1  0.53838363  0.88331591  0.10358371  1
  B  B4  1  0.77337792  0.76513107  0.35644335  1
  Al  Al5  1  0.22613273  0.19454898  0.07958119  1
  Al  Al6  1  0.78076903  0.09144483  0.81773789  1
  Al  Al7  1  0.90041629  0.19159116  0.56082988  1
  Al  Al8  1  0.45352596  0.08014937  0.31987474  1
  Al  Al9  1  0.56377310  0.19047922  0.07045786  1
  Al  Al10  1  0.10690870  0.10349990  0.82026529  1
  Al  Al11  1  0.22425061  0.19416715  0.55676709  1
  Al  Al12  1  0.78262308  0.08564122  0.31781791  1
  Al  Al13  1  0.89565264  0.19156337  0.07844215  1
  Al  Al14  1  0.43624257  0.10259993  0.81529205  1
  Al  Al15  1  0.56083389  0.19766234  0.56687040  1
  Al  Al16  1  0.10368994  0.43791094  0.38180402  1
  Al  Al17  1  0.23033834  0.54634436  0.14098809  1
  Al  Al18  1  0.76751020  0.43432234  0.90050339  1
  Al  Al19  1  0.89652065  0.52403632  0.64207598  1
  Al  Al20  1  0.44371728  0.43187418  0.38933898  1
  Al  Al21  1  0.10613228  0.43331328  0.89909993  1
  Al  Al22  1  0.22328935  0.53573252  0.63710829  1
  Al  Al23  1  0.78237593  0.43167626  0.38192841  1
  Al  Al24  1  0.86020356  0.56272937  0.14130368  1
  Al  Al25  1  0.44777839  0.43392656  0.89370123  1
  Al  Al26  1  0.55698453  0.53963734  0.64129191  1
  Al  Al27  1  0.11143647  0.76824988  0.35118383  1
  Al  Al28  1  0.77287773  0.76178514  0.83336109  1
  Al  Al29  1  0.88890693  0.86287256  0.56748591  1
  Al  Al30  1  0.45405844  0.75958064  0.37749193  1
  Al  Al31  1  0.11726793  0.76084144  0.87573403  1
  Al  Al32  1  0.22863490  0.86354116  0.63764205  1
  Al  Al33  1  0.88131276  0.87115016  0.07032059  1
  Al  Al34  1  0.43709144  0.77376710  0.90284182  1
  Al  Al35  1  0.55653592  0.86548980  0.62665478  1
  N  N36  1  0.21375817  0.18852254  0.36538176  1
  N  N37  1  0.11210636  0.09158364  0.14957801  1
  N  N38  1  0.89076133  0.19944608  0.89077016  1
  N  N39  1  0.78264917  0.08984084  0.62879823  1
  N  N40  1  0.56025867  0.19838761  0.37821070  1
  N  N41  1  0.45502385  0.07609581  0.13141218  1
  N  N42  1  0.22421899  0.20019182  0.89238790  1
  N  N43  1  0.11043936  0.10001401  0.63360560  1
  N  N44  1  0.92200146  0.18248574  0.36933096  1
  N  N45  1  0.77890274  0.08943079  0.13522181  1
  N  N46  1  0.55804938  0.19998736  0.88287862  1
  N  N47  1  0.43845600  0.10254653  0.62605867  1
  N  N48  1  0.22724241  0.53642125  0.32488566  1
  N  N49  1  0.09868444  0.44504650  0.08777237  1
  N  N50  1  0.89191981  0.52419531  0.83255485  1
  N  N51  1  0.77568606  0.42760882  0.56931702  1
  N  N52  1  0.56245256  0.52632713  0.30548465  1
  N  N53  1  0.46417145  0.43398798  0.08934179  1
  N  N54  1  0.22543761  0.53262789  0.83085749  1
  N  N55  1  0.11153750  0.42799479  0.56972503  1
  N  N56  1  0.87257185  0.57160069  0.33082272  1
  N  N57  1  0.75105863  0.43582553  0.09579359  1
  N  N58  1  0.55301592  0.54550260  0.83055582  1
  N  N59  1  0.44583663  0.43127003  0.57771022  1
  N  N60  1  0.22684446  0.88900458  0.31323534  1
  N  N61  1  0.12554630  0.77857359  0.10562235  1
  N  N62  1  0.88772955  0.87307842  0.88294310  1
  N  N63  1  0.78819078  0.75405896  0.63576700  1
  N  N64  1  0.59093095  0.85546166  0.36595254  1
  N  N65  1  0.41647317  0.81774936  0.08828045  1
  N  N66  1  0.22541675  0.86951888  0.82648588  1
  N  N67  1  0.11733780  0.75648737  0.58071819  1
  N  N68  1  0.87438217  0.85737605  0.37225264  1
  N  N69  1  0.72806901  0.78267932  0.08345415  1
  N  N70  1  0.54268052  0.87317790  0.82151563  1
  N  N71  1  0.44541327  0.75376554  0.56586726  1
