# generated using pymatgen
data_Al31B5N36
_symmetry_space_group_name_H-M   'P 1'
_cell_length_a   9.14138385
_cell_length_b   9.22198908
_cell_length_c   10.23162647
_cell_angle_alpha   91.03081505
_cell_angle_beta   89.87729998
_cell_angle_gamma   60.15773378
_symmetry_Int_Tables_number   1
_chemical_formula_structural   Al31B5N36
_chemical_formula_sum   'Al31 B5 N36'
_cell_volume   747.98712502
_cell_formula_units_Z   1
loop_
 _symmetry_equiv_pos_site_id
 _symmetry_equiv_pos_as_xyz
  1  'x, y, z'
loop_
 _atom_site_type_symbol
 _atom_site_label
 _atom_site_symmetry_multiplicity
 _atom_site_fract_x
 _atom_site_fract_y
 _atom_site_fract_z
 _atom_site_occupancy
  B  B0  1  0.11486808  0.09916921  0.30960015  1
  B  B1  1  0.58459706  0.48147171  0.15941563  1
  B  B2  1  0.23296722  0.89012602  0.15541928  1
  B  B3  1  0.53626939  0.88492214  0.10588358  1
  B  B4  1  0.77566996  0.76342216  0.37066622  1
  Al  Al5  1  0.22615515  0.19494423  0.07849458  1
  Al  Al6  1  0.77933733  0.09117017  0.81742460  1
  Al  Al7  1  0.89954576  0.19224659  0.56122282  1
  Al  Al8  1  0.45414337  0.08023145  0.31803436  1
  Al  Al9  1  0.56612521  0.18947446  0.07002181  1
  Al  Al10  1  0.10582067  0.10299812  0.82028066  1
  Al  Al11  1  0.22463016  0.19259581  0.55622234  1
  Al  Al12  1  0.78420650  0.08588556  0.31806582  1
  Al  Al13  1  0.89608323  0.19382881  0.07814468  1
  Al  Al14  1  0.43556311  0.10291416  0.81528785  1
  Al  Al15  1  0.56220622  0.19484628  0.56555459  1
  Al  Al16  1  0.10390017  0.43900748  0.38420249  1
  Al  Al17  1  0.23301569  0.54215059  0.14061056  1
  Al  Al18  1  0.76621407  0.43491418  0.89946448  1
  Al  Al19  1  0.89159496  0.53149990  0.64238965  1
  Al  Al20  1  0.44401425  0.43200532  0.38891802  1
  Al  Al21  1  0.10484556  0.43380136  0.89898085  1
  Al  Al22  1  0.22886110  0.52248281  0.63883962  1
  Al  Al23  1  0.78322159  0.43243415  0.38443300  1
  Al  Al24  1  0.86124950  0.56309246  0.14468761  1
  Al  Al25  1  0.44624002  0.43437138  0.89488734  1
  Al  Al26  1  0.55658844  0.53902491  0.64128717  1
  Al  Al27  1  0.10760087  0.77366978  0.31747521  1
  Al  Al28  1  0.76216766  0.76258985  0.87873807  1
  Al  Al29  1  0.89185743  0.86160307  0.56568225  1
  Al  Al30  1  0.45584293  0.76100082  0.37761100  1
  Al  Al31  1  0.10456193  0.76028959  0.81844855  1
  Al  Al32  1  0.23117828  0.86496930  0.63827731  1
  Al  Al33  1  0.89534032  0.87187117  0.06784045  1
  Al  Al34  1  0.43129611  0.77450353  0.90295959  1
  Al  Al35  1  0.55874592  0.86306142  0.63130740  1
  N  N36  1  0.21480770  0.18990709  0.36564071  1
  N  N37  1  0.11240038  0.09278380  0.15066983  1
  N  N38  1  0.88897405  0.20050582  0.89078126  1
  N  N39  1  0.78300478  0.08890041  0.62935731  1
  N  N40  1  0.56098509  0.19767220  0.37783041  1
  N  N41  1  0.45541957  0.07681509  0.13017232  1
  N  N42  1  0.22256206  0.20005931  0.89231708  1
  N  N43  1  0.10989175  0.09921348  0.63321083  1
  N  N44  1  0.92226299  0.18401359  0.37020756  1
  N  N45  1  0.78115733  0.08917533  0.13522633  1
  N  N46  1  0.55757885  0.19937295  0.88395486  1
  N  N47  1  0.43833354  0.10144544  0.62739217  1
  N  N48  1  0.22679995  0.53829646  0.32674677  1
  N  N49  1  0.09884615  0.44512348  0.08705484  1
  N  N50  1  0.88777467  0.53129589  0.83290294  1
  N  N51  1  0.77573361  0.42705077  0.57113148  1
  N  N52  1  0.56373403  0.52596383  0.30546686  1
  N  N53  1  0.46584985  0.43333894  0.08971549  1
  N  N54  1  0.22786318  0.52622574  0.83102173  1
  N  N55  1  0.11019368  0.42588267  0.57072332  1
  N  N56  1  0.87436892  0.57089617  0.33132513  1
  N  N57  1  0.75140266  0.43776675  0.09511873  1
  N  N58  1  0.55114732  0.54593595  0.83037611  1
  N  N59  1  0.44723094  0.42955159  0.57600453  1
  N  N60  1  0.22952774  0.89315140  0.31648037  1
  N  N61  1  0.12461199  0.77957414  0.12645235  1
  N  N62  1  0.88825442  0.87184934  0.88293428  1
  N  N63  1  0.78256527  0.75016868  0.59941779  1
  N  N64  1  0.59237510  0.85481327  0.35387816  1
  N  N65  1  0.41600519  0.81929047  0.08792566  1
  N  N66  1  0.22306224  0.87122593  0.82827066  1
  N  N67  1  0.10978077  0.75463476  0.62459425  1
  N  N68  1  0.88115753  0.85877095  0.37480478  1
  N  N69  1  0.73096336  0.78102657  0.07344290  1
  N  N70  1  0.54492495  0.87067231  0.82140278  1
  N  N71  1  0.44522923  0.75373717  0.56513533  1
