# generated using pymatgen
data_Al31B5N36
_symmetry_space_group_name_H-M   'P 1'
_cell_length_a   9.16094741
_cell_length_b   9.24124648
_cell_length_c   9.76850033
_cell_angle_alpha   90.22901787
_cell_angle_beta   90.01665454
_cell_angle_gamma   60.22560380
_symmetry_Int_Tables_number   1
_chemical_formula_structural   Al31B5N36
_chemical_formula_sum   'Al31 B5 N36'
_cell_volume   717.80749436
_cell_formula_units_Z   1
loop_
 _symmetry_equiv_pos_site_id
 _symmetry_equiv_pos_as_xyz
  1  'x, y, z'
loop_
 _atom_site_type_symbol
 _atom_site_label
 _atom_site_symmetry_multiplicity
 _atom_site_fract_x
 _atom_site_fract_y
 _atom_site_fract_z
 _atom_site_occupancy
  B  B0  1  0.11236780  0.09446492  0.40820264  1
  B  B1  1  0.58303085  0.48547506  0.17523477  1
  B  B2  1  0.22841907  0.89396653  0.16974418  1
  B  B3  1  0.55199443  0.87491866  0.16761084  1
  B  B4  1  0.77808756  0.76098467  0.40611935  1
  Al  Al5  1  0.22385875  0.19706099  0.16379742  1
  Al  Al6  1  0.78139997  0.09049973  0.90799143  1
  Al  Al7  1  0.89366953  0.20261607  0.65267309  1
  Al  Al8  1  0.44695968  0.08503704  0.40362236  1
  Al  Al9  1  0.56157878  0.19769671  0.16051074  1
  Al  Al10  1  0.11580567  0.08797326  0.91022857  1
  Al  Al11  1  0.22191261  0.20271468  0.65195202  1
  Al  Al12  1  0.78297833  0.08552995  0.41053369  1
  Al  Al13  1  0.89927072  0.19266027  0.16520963  1
  Al  Al14  1  0.44619452  0.08780675  0.91214864  1
  Al  Al15  1  0.55523257  0.20375544  0.66000580  1
  Al  Al16  1  0.10640119  0.43065064  0.40794980  1
  Al  Al17  1  0.22937087  0.54569166  0.15937738  1
  Al  Al18  1  0.77385019  0.42824502  0.91162216  1
  Al  Al19  1  0.88530263  0.54293197  0.65351156  1
  Al  Al20  1  0.44685475  0.42412215  0.40873141  1
  Al  Al21  1  0.11028406  0.42709537  0.90972595  1
  Al  Al22  1  0.22298455  0.54009933  0.66017179  1
  Al  Al23  1  0.78416572  0.42630071  0.40691146  1
  Al  Al24  1  0.87101743  0.55125068  0.16410673  1
  Al  Al25  1  0.45002399  0.42937620  0.91243489  1
  Al  Al26  1  0.55368173  0.54375234  0.65862736  1
  Al  Al27  1  0.10918302  0.76558023  0.40064765  1
  Al  Al28  1  0.76960168  0.76350137  0.91022111  1
  Al  Al29  1  0.88900946  0.86754674  0.65252816  1
  Al  Al30  1  0.44877483  0.75986170  0.37752239  1
  Al  Al31  1  0.11461547  0.76454923  0.91334592  1
  Al  Al32  1  0.22690614  0.87034816  0.64799382  1
  Al  Al33  1  0.88568702  0.86722706  0.16114197  1
  Al  Al34  1  0.44139759  0.76772821  0.92669421  1
  Al  Al35  1  0.55462488  0.86799084  0.64774678  1
  N  N36  1  0.20825778  0.19558525  0.35739452  1
  N  N37  1  0.12177616  0.07504899  0.10337306  1
  N  N38  1  0.89182993  0.20525924  0.84947598  1
  N  N39  1  0.77908979  0.09153372  0.60222647  1
  N  N40  1  0.55784536  0.20245857  0.35163195  1
  N  N41  1  0.45464364  0.07636636  0.11045023  1
  N  N42  1  0.22211932  0.20416224  0.84903043  1
  N  N43  1  0.11418727  0.08980565  0.57560651  1
  N  N44  1  0.91457832  0.19128825  0.35841567  1
  N  N45  1  0.78344268  0.08819164  0.10220089  1
  N  N46  1  0.55469704  0.20562442  0.85524786  1
  N  N47  1  0.44588117  0.09160199  0.59607572  1
  N  N48  1  0.22495488  0.53788601  0.35011817  1
  N  N49  1  0.10773120  0.42913984  0.10565976  1
  N  N50  1  0.88561774  0.54078724  0.85082458  1
  N  N51  1  0.77700854  0.42643994  0.59829008  1
  N  N52  1  0.56439555  0.52392186  0.32735630  1
  N  N53  1  0.46595628  0.43109047  0.10910958  1
  N  N54  1  0.22444768  0.53921802  0.85664880  1
  N  N55  1  0.11120273  0.42789037  0.60126291  1
  N  N56  1  0.87538969  0.56461102  0.35652424  1
  N  N57  1  0.75804088  0.42805002  0.11206414  1
  N  N58  1  0.55244058  0.54749829  0.85269961  1
  N  N59  1  0.44717568  0.42619901  0.60113453  1
  N  N60  1  0.20901258  0.90023814  0.33619991  1
  N  N61  1  0.12277331  0.77339069  0.10939917  1
  N  N62  1  0.88997189  0.86682865  0.84918784  1
  N  N63  1  0.77523705  0.76126417  0.57486766  1
  N  N64  1  0.58007636  0.86139766  0.33586564  1
  N  N65  1  0.42428522  0.80471803  0.12232034  1
  N  N66  1  0.22586599  0.87137851  0.84267188  1
  N  N67  1  0.11298535  0.75944032  0.59456807  1
  N  N68  1  0.87720050  0.85745821  0.35489216  1
  N  N69  1  0.74543811  0.77403589  0.10242033  1
  N  N70  1  0.55288202  0.87064102  0.84183819  1
  N  N71  1  0.44691226  0.75538028  0.57805584  1
