# generated using pymatgen
data_Al31B5N36
_symmetry_space_group_name_H-M   'P 1'
_cell_length_a   9.16899352
_cell_length_b   9.23630660
_cell_length_c   10.06901590
_cell_angle_alpha   90.95625864
_cell_angle_beta   90.21756924
_cell_angle_gamma   60.21374109
_symmetry_Int_Tables_number   1
_chemical_formula_structural   Al31B5N36
_chemical_formula_sum   'Al31 B5 N36'
_cell_volume   739.95057533
_cell_formula_units_Z   1
loop_
 _symmetry_equiv_pos_site_id
 _symmetry_equiv_pos_as_xyz
  1  'x, y, z'
loop_
 _atom_site_type_symbol
 _atom_site_label
 _atom_site_symmetry_multiplicity
 _atom_site_fract_x
 _atom_site_fract_y
 _atom_site_fract_z
 _atom_site_occupancy
  B  B0  1  0.11167778  0.08984870  0.39727258  1
  B  B1  1  0.58556161  0.47978009  0.17000022  1
  B  B2  1  0.22586930  0.89253544  0.15638520  1
  B  B3  1  0.53742971  0.88291850  0.12392739  1
  B  B4  1  0.77230933  0.75914099  0.40095028  1
  Al  Al5  1  0.22721431  0.20158881  0.09563514  1
  Al  Al6  1  0.77900406  0.08473902  0.83072220  1
  Al  Al7  1  0.89583456  0.20197640  0.64393030  1
  Al  Al8  1  0.45189418  0.07885465  0.33177212  1
  Al  Al9  1  0.56577110  0.19138374  0.08449863  1
  Al  Al10  1  0.11015422  0.08765496  0.90549231  1
  Al  Al11  1  0.22503647  0.19778952  0.56847198  1
  Al  Al12  1  0.78045333  0.08142846  0.33742241  1
  Al  Al13  1  0.90225370  0.20045023  0.16237961  1
  Al  Al14  1  0.43599185  0.10212913  0.82766303  1
  Al  Al15  1  0.55754603  0.19704683  0.58004624  1
  Al  Al16  1  0.10241047  0.43896059  0.39491011  1
  Al  Al17  1  0.23088796  0.55049630  0.15555050  1
  Al  Al18  1  0.77432825  0.42608609  0.90758741  1
  Al  Al19  1  0.89060446  0.53481039  0.65464680  1
  Al  Al20  1  0.44515133  0.43023248  0.40108638  1
  Al  Al21  1  0.10600043  0.43751307  0.90853284  1
  Al  Al22  1  0.22308401  0.53735451  0.65236588  1
  Al  Al23  1  0.78571538  0.42633319  0.40288272  1
  Al  Al24  1  0.86101262  0.56255967  0.15969009  1
  Al  Al25  1  0.44882171  0.43356488  0.90603827  1
  Al  Al26  1  0.55524880  0.54018817  0.65384253  1
  Al  Al27  1  0.11630174  0.76540917  0.39157065  1
  Al  Al28  1  0.76469123  0.76332017  0.89826588  1
  Al  Al29  1  0.88698320  0.86640085  0.57747311  1
  Al  Al30  1  0.45210040  0.76033576  0.38329892  1
  Al  Al31  1  0.12443711  0.76178697  0.90603937  1
  Al  Al32  1  0.22535635  0.86803697  0.64277242  1
  Al  Al33  1  0.88813846  0.87536708  0.09214336  1
  Al  Al34  1  0.44101985  0.77080874  0.91144104  1
  Al  Al35  1  0.55656868  0.86288021  0.63735534  1
  N  N36  1  0.21401190  0.19334006  0.37456955  1
  N  N37  1  0.11707745  0.07505502  0.09667997  1
  N  N38  1  0.89357031  0.20729678  0.83890859  1
  N  N39  1  0.77681182  0.08424413  0.64114213  1
  N  N40  1  0.55705806  0.19799864  0.39090442  1
  N  N41  1  0.45605760  0.07606007  0.14180893  1
  N  N42  1  0.22419786  0.20688584  0.90018252  1
  N  N43  1  0.10953464  0.07983097  0.56390440  1
  N  N44  1  0.91849692  0.19306138  0.35141051  1
  N  N45  1  0.77874832  0.09213583  0.15024413  1
  N  N46  1  0.55891852  0.19973225  0.89568151  1
  N  N47  1  0.43634096  0.09968666  0.63869068  1
  N  N48  1  0.22660375  0.53949668  0.33970926  1
  N  N49  1  0.09831837  0.44864028  0.10124526  1
  N  N50  1  0.88659255  0.53746212  0.84599386  1
  N  N51  1  0.77804000  0.42349616  0.58983200  1
  N  N52  1  0.56656464  0.52267232  0.31817593  1
  N  N53  1  0.46489540  0.43387627  0.10269622  1
  N  N54  1  0.22583548  0.53850734  0.84505358  1
  N  N55  1  0.10991340  0.42872441  0.58808800  1
  N  N56  1  0.87229840  0.56720728  0.34776723  1
  N  N57  1  0.75727254  0.42902611  0.10472277  1
  N  N58  1  0.55431682  0.54541044  0.84430023  1
  N  N59  1  0.44522902  0.43003189  0.59190332  1
  N  N60  1  0.21503207  0.89802317  0.32473072  1
  N  N61  1  0.13628695  0.77536190  0.10121701  1
  N  N62  1  0.89163503  0.87069577  0.89870886  1
  N  N63  1  0.77908640  0.74803139  0.58840669  1
  N  N64  1  0.58735861  0.85442953  0.36566525  1
  N  N65  1  0.42105367  0.81354881  0.10086957  1
  N  N66  1  0.22455864  0.87390996  0.83205216  1
  N  N67  1  0.11875258  0.75395913  0.58469119  1
  N  N68  1  0.87847854  0.85673925  0.38224988  1
  N  N69  1  0.73103941  0.78103323  0.09047690  1
  N  N70  1  0.55232646  0.86898107  0.83051919  1
  N  N71  1  0.44462112  0.75154865  0.57613777  1
