# generated using pymatgen
data_Al31B5N36
_symmetry_space_group_name_H-M   'P 1'
_cell_length_a   9.14705748
_cell_length_b   9.13654881
_cell_length_c   10.26314947
_cell_angle_alpha   89.82775724
_cell_angle_beta   90.02037826
_cell_angle_gamma   60.02108850
_symmetry_Int_Tables_number   1
_chemical_formula_structural   Al31B5N36
_chemical_formula_sum   'Al31 B5 N36'
_cell_volume   742.95782353
_cell_formula_units_Z   1
loop_
 _symmetry_equiv_pos_site_id
 _symmetry_equiv_pos_as_xyz
  1  'x, y, z'
loop_
 _atom_site_type_symbol
 _atom_site_label
 _atom_site_symmetry_multiplicity
 _atom_site_fract_x
 _atom_site_fract_y
 _atom_site_fract_z
 _atom_site_occupancy
  B  B0  1  0.11488595  0.08893254  0.35679901  1
  B  B1  1  0.55464992  0.54368369  0.09636855  1
  B  B2  1  0.21876448  0.87549541  0.10294919  1
  B  B3  1  0.56146657  0.86468619  0.10209248  1
  B  B4  1  0.77540142  0.76238819  0.35801771  1
  Al  Al5  1  0.23005582  0.18733138  0.06093521  1
  Al  Al6  1  0.77814864  0.09482735  0.81006986  1
  Al  Al7  1  0.89563900  0.20180114  0.56136832  1
  Al  Al8  1  0.45259802  0.07689430  0.31259558  1
  Al  Al9  1  0.56081301  0.20185710  0.06209736  1
  Al  Al10  1  0.11029619  0.09702385  0.82212861  1
  Al  Al11  1  0.22215967  0.20237412  0.56224962  1
  Al  Al12  1  0.78252888  0.08722989  0.31195868  1
  Al  Al13  1  0.89056050  0.19943870  0.06047569  1
  Al  Al14  1  0.44123957  0.10119318  0.81172064  1
  Al  Al15  1  0.55500858  0.20400393  0.55653287  1
  Al  Al16  1  0.10635747  0.42944576  0.31039148  1
  Al  Al17  1  0.22899226  0.54431716  0.06139264  1
  Al  Al18  1  0.77837372  0.42740994  0.80824270  1
  Al  Al19  1  0.88984230  0.54114016  0.56330887  1
  Al  Al20  1  0.44792728  0.43069617  0.31193030  1
  Al  Al21  1  0.11295763  0.42578137  0.81058204  1
  Al  Al22  1  0.22328189  0.53775566  0.55791962  1
  Al  Al23  1  0.77565039  0.43647260  0.31414724  1
  Al  Al24  1  0.87445863  0.54492899  0.05840359  1
  Al  Al25  1  0.44515985  0.42825569  0.81058081  1
  Al  Al26  1  0.55900532  0.53172645  0.57447469  1
  Al  Al27  1  0.11076706  0.76897913  0.31430345  1
  Al  Al28  1  0.78219477  0.75740859  0.82208359  1
  Al  Al29  1  0.88864106  0.86885285  0.56221040  1
  Al  Al30  1  0.44486240  0.77107079  0.39135932  1
  Al  Al31  1  0.10970079  0.75506668  0.81150054  1
  Al  Al32  1  0.22813254  0.86972318  0.63294985  1
  Al  Al33  1  0.88376207  0.87465210  0.06096925  1
  Al  Al34  1  0.44555222  0.75906298  0.88819969  1
  Al  Al35  1  0.55635018  0.86680728  0.63300748  1
  N  N36  1  0.21101453  0.18984501  0.36975715  1
  N  N37  1  0.12891614  0.05691887  0.09007125  1
  N  N38  1  0.88554163  0.20732400  0.87587479  1
  N  N39  1  0.77848663  0.09392947  0.61980938  1
  N  N40  1  0.55445119  0.20416753  0.36798437  1
  N  N41  1  0.45866772  0.06145547  0.12202207  1
  N  N42  1  0.22468364  0.20695748  0.87722704  1
  N  N43  1  0.10786060  0.10300998  0.63214116  1
  N  N44  1  0.91745060  0.19305943  0.36853814  1
  N  N45  1  0.77925546  0.09266661  0.12838679  1
  N  N46  1  0.55670458  0.20474947  0.87768931  1
  N  N47  1  0.44160693  0.10119348  0.62224497  1
  N  N48  1  0.22336810  0.53930776  0.36942234  1
  N  N49  1  0.11133134  0.42480275  0.12407310  1
  N  N50  1  0.89343244  0.53204762  0.87472656  1
  N  N51  1  0.78510193  0.42342683  0.62026036  1
  N  N52  1  0.56001420  0.53177425  0.38134358  1
  N  N53  1  0.45894484  0.44470050  0.12136517  1
  N  N54  1  0.22359647  0.53607917  0.87728190  1
  N  N55  1  0.11337563  0.42586942  0.62083203  1
  N  N56  1  0.87777630  0.56566919  0.37137940  1
  N  N57  1  0.74866968  0.44349003  0.12407769  1
  N  N58  1  0.55780785  0.53716852  0.85083217  1
  N  N59  1  0.44256239  0.42286080  0.62325642  1
  N  N60  1  0.20644205  0.90456450  0.35926327  1
  N  N61  1  0.12615983  0.77306024  0.12257908  1
  N  N62  1  0.89161447  0.87343582  0.87663077  1
  N  N63  1  0.78890479  0.75495059  0.63221393  1
  N  N64  1  0.59238070  0.85348652  0.36082847  1
  N  N65  1  0.44759041  0.75754646  0.08761961  1
  N  N66  1  0.22947422  0.86490902  0.82442798  1
  N  N67  1  0.10838872  0.75587306  0.62189620  1
  N  N68  1  0.87855098  0.85663377  0.37036951  1
  N  N69  1  0.74360223  0.77634194  0.08975427  1
  N  N70  1  0.55058389  0.87083183  0.82437604  1
  N  N71  1  0.44361370  0.76371078  0.57483221  1
