# generated using pymatgen
data_Al31B5N36
_symmetry_space_group_name_H-M   'P 1'
_cell_length_a   9.16095305
_cell_length_b   9.24126315
_cell_length_c   9.76845614
_cell_angle_alpha   90.22879899
_cell_angle_beta   90.01648626
_cell_angle_gamma   60.22568825
_symmetry_Int_Tables_number   1
_chemical_formula_structural   Al31B5N36
_chemical_formula_sum   'Al31 B5 N36'
_cell_volume   717.80659832
_cell_formula_units_Z   1
loop_
 _symmetry_equiv_pos_site_id
 _symmetry_equiv_pos_as_xyz
  1  'x, y, z'
loop_
 _atom_site_type_symbol
 _atom_site_label
 _atom_site_symmetry_multiplicity
 _atom_site_fract_x
 _atom_site_fract_y
 _atom_site_fract_z
 _atom_site_occupancy
  B  B0  1  0.11023746  0.10747346  0.38396642  1
  B  B1  1  0.58090142  0.49848207  0.15099807  1
  B  B2  1  0.22628778  0.90697399  0.14550834  1
  B  B3  1  0.54986479  0.88792725  0.14337538  1
  B  B4  1  0.77595769  0.77399252  0.38188347  1
  Al  Al5  1  0.22172995  0.21006738  0.13956024  1
  Al  Al6  1  0.77927114  0.10350838  0.88375581  1
  Al  Al7  1  0.89153926  0.21562583  0.62843788  1
  Al  Al8  1  0.44483026  0.09804437  0.37938767  1
  Al  Al9  1  0.55945026  0.21070332  0.13627575  1
  Al  Al10  1  0.11367624  0.10098202  0.88599301  1
  Al  Al11  1  0.21978168  0.21572424  0.62771752  1
  Al  Al12  1  0.78084962  0.09853737  0.38629930  1
  Al  Al13  1  0.89714100  0.20566923  0.14097221  1
  Al  Al14  1  0.44406568  0.10081480  0.88791178  1
  Al  Al15  1  0.55310289  0.21676389  0.63577114  1
  Al  Al16  1  0.10427145  0.44365791  0.38371235  1
  Al  Al17  1  0.22724166  0.55869871  0.13514117  1
  Al  Al18  1  0.77172006  0.44125469  0.88738509  1
  Al  Al19  1  0.88317228  0.55594048  0.62927493  1
  Al  Al20  1  0.44472486  0.43712993  0.38449585  1
  Al  Al21  1  0.10815312  0.44010465  0.88549161  1
  Al  Al22  1  0.22085364  0.55310790  0.63593695  1
  Al  Al23  1  0.78203566  0.43930925  0.38267373  1
  Al  Al24  1  0.86888714  0.56425959  0.13986955  1
  Al  Al25  1  0.44789424  0.44238480  0.88819847  1
  Al  Al26  1  0.55155096  0.55676150  0.63439100  1
  Al  Al27  1  0.10705257  0.77858808  0.37641267  1
  Al  Al28  1  0.76747188  0.77651017  0.88598599  1
  Al  Al29  1  0.88688014  0.88055415  0.62829374  1
  Al  Al30  1  0.44664393  0.77286976  0.35328345  1
  Al  Al31  1  0.11248659  0.77755803  0.88910924  1
  Al  Al32  1  0.22477654  0.88335732  0.62375654  1
  Al  Al33  1  0.88355878  0.88023469  0.13690673  1
  Al  Al34  1  0.43926766  0.78073711  0.90245904  1
  Al  Al35  1  0.55249533  0.88099781  0.62350965  1
  N  N36  1  0.20612847  0.20859351  0.33315827  1
  N  N37  1  0.11964649  0.08805735  0.07913733  1
  N  N38  1  0.88970047  0.21826978  0.82524147  1
  N  N39  1  0.77696093  0.10454223  0.57799329  1
  N  N40  1  0.55571637  0.21546693  0.32739801  1
  N  N41  1  0.45251466  0.08937446  0.08621476  1
  N  N42  1  0.21998931  0.21717265  0.82479686  1
  N  N43  1  0.11205667  0.10281568  0.55137165  1
  N  N44  1  0.91244864  0.20429782  0.33417930  1
  N  N45  1  0.78131406  0.10120013  0.07796637  1
  N  N46  1  0.55256813  0.21863383  0.83101394  1
  N  N47  1  0.44375083  0.10461092  0.57184220  1
  N  N48  1  0.22282482  0.55089552  0.32588297  1
  N  N49  1  0.10560101  0.44214871  0.08142568  1
  N  N50  1  0.88348775  0.55379745  0.82658935  1
  N  N51  1  0.77487789  0.43944973  0.57405396  1
  N  N52  1  0.56226549  0.53693080  0.30311977  1
  N  N53  1  0.46382723  0.44409813  0.08487381  1
  N  N54  1  0.22231719  0.55222766  0.83241508  1
  N  N55  1  0.10907198  0.44089987  0.57702731  1
  N  N56  1  0.87325956  0.57762084  0.33228801  1
  N  N57  1  0.75591121  0.44105962  0.08782760  1
  N  N58  1  0.55031033  0.56050873  0.82846439  1
  N  N59  1  0.44504500  0.43920839  0.57690033  1
  N  N60  1  0.20688102  0.91324777  0.31196488  1
  N  N61  1  0.12064555  0.78639953  0.08516401  1
  N  N62  1  0.88784254  0.87983808  0.82495395  1
  N  N63  1  0.77310769  0.77427292  0.55063274  1
  N  N64  1  0.57794713  0.87440588  0.31163087  1
  N  N65  1  0.42215565  0.81772630  0.09808604  1
  N  N66  1  0.22373642  0.88438875  0.81843592  1
  N  N67  1  0.11085543  0.77244960  0.57033391  1
  N  N68  1  0.87507069  0.87046724  0.33065746  1
  N  N69  1  0.74330862  0.78704551  0.07818532  1
  N  N70  1  0.55075278  0.88364980  0.81760242  1
  N  N71  1  0.44478189  0.76838949  0.55381905  1
