# generated using pymatgen
data_Al31B5N36
_symmetry_space_group_name_H-M   'P 1'
_cell_length_a   9.14110985
_cell_length_b   9.19792122
_cell_length_c   10.27854503
_cell_angle_alpha   91.35545747
_cell_angle_beta   90.83352781
_cell_angle_gamma   60.26782726
_symmetry_Int_Tables_number   1
_chemical_formula_structural   Al31B5N36
_chemical_formula_sum   'Al31 B5 N36'
_cell_volume   750.22723098
_cell_formula_units_Z   1
loop_
 _symmetry_equiv_pos_site_id
 _symmetry_equiv_pos_as_xyz
  1  'x, y, z'
loop_
 _atom_site_type_symbol
 _atom_site_label
 _atom_site_symmetry_multiplicity
 _atom_site_fract_x
 _atom_site_fract_y
 _atom_site_fract_z
 _atom_site_occupancy
  B  B0  1  0.11990297  0.08763996  0.36168443  1
  B  B1  1  0.58513306  0.47950807  0.17047446  1
  B  B2  1  0.22806418  0.88689012  0.11624019  1
  B  B3  1  0.53801108  0.88238997  0.11222452  1
  B  B4  1  0.77344482  0.76339328  0.36966124  1
  Al  Al5  1  0.22859837  0.19829303  0.08544722  1
  Al  Al6  1  0.77322213  0.08700000  0.83138408  1
  Al  Al7  1  0.89095849  0.20745131  0.65651915  1
  Al  Al8  1  0.45338156  0.07809974  0.33089058  1
  Al  Al9  1  0.56349630  0.19040080  0.08337126  1
  Al  Al10  1  0.11011369  0.08957886  0.88469995  1
  Al  Al11  1  0.22142023  0.19623848  0.57068989  1
  Al  Al12  1  0.78291837  0.07919277  0.33355178  1
  Al  Al13  1  0.90215451  0.19541055  0.15299933  1
  Al  Al14  1  0.43312161  0.10514601  0.82289652  1
  Al  Al15  1  0.55878226  0.19857811  0.57676678  1
  Al  Al16  1  0.10355646  0.44071773  0.39391897  1
  Al  Al17  1  0.23092213  0.55253199  0.15586311  1
  Al  Al18  1  0.77156280  0.42811982  0.91138771  1
  Al  Al19  1  0.89833361  0.52414505  0.65493596  1
  Al  Al20  1  0.44555942  0.43201155  0.40027150  1
  Al  Al21  1  0.10574617  0.43749039  0.90915517  1
  Al  Al22  1  0.22335653  0.53825595  0.65064223  1
  Al  Al23  1  0.78797655  0.42502649  0.40023517  1
  Al  Al24  1  0.86030633  0.56211104  0.15441006  1
  Al  Al25  1  0.44761689  0.43396296  0.90652173  1
  Al  Al26  1  0.55627554  0.54021246  0.65311074  1
  Al  Al27  1  0.11675538  0.76814130  0.39920480  1
  Al  Al28  1  0.77460959  0.76158534  0.84134842  1
  Al  Al29  1  0.88476050  0.86606498  0.58201061  1
  Al  Al30  1  0.44950797  0.76266713  0.39074073  1
  Al  Al31  1  0.12319778  0.75905802  0.90313653  1
  Al  Al32  1  0.22549169  0.87011570  0.64996729  1
  Al  Al33  1  0.87803088  0.87292931  0.08015686  1
  Al  Al34  1  0.44462133  0.76771672  0.90592325  1
  Al  Al35  1  0.55549069  0.86643282  0.63735154  1
  N  N36  1  0.21389971  0.18851069  0.37572081  1
  N  N37  1  0.11722173  0.07190210  0.08609827  1
  N  N38  1  0.88204581  0.21089969  0.84798379  1
  N  N39  1  0.77494732  0.08668019  0.64386737  1
  N  N40  1  0.55996673  0.19815724  0.38972553  1
  N  N41  1  0.45382974  0.07468328  0.14385828  1
  N  N42  1  0.22587490  0.20717410  0.89983559  1
  N  N43  1  0.11215537  0.09407313  0.62539904  1
  N  N44  1  0.92612305  0.18995510  0.34288744  1
  N  N45  1  0.77832290  0.08634844  0.15018172  1
  N  N46  1  0.55560874  0.19978458  0.89852200  1
  N  N47  1  0.43776071  0.10347995  0.63610850  1
  N  N48  1  0.22575669  0.54352143  0.33742239  1
  N  N49  1  0.09875745  0.44862868  0.09926693  1
  N  N50  1  0.89056261  0.52659615  0.84476336  1
  N  N51  1  0.77780604  0.42338200  0.58474653  1
  N  N52  1  0.56678964  0.52391515  0.31672287  1
  N  N53  1  0.46408085  0.43417804  0.10243516  1
  N  N54  1  0.22500325  0.53598705  0.84124834  1
  N  N55  1  0.11099907  0.43074125  0.58008742  1
  N  N56  1  0.87221573  0.57006971  0.34344701  1
  N  N57  1  0.75602063  0.42819438  0.10548407  1
  N  N58  1  0.55486769  0.54248044  0.84136512  1
  N  N59  1  0.44426486  0.43252868  0.58752274  1
  N  N60  1  0.21297008  0.90168081  0.34560115  1
  N  N61  1  0.13828417  0.77513139  0.09397088  1
  N  N62  1  0.88969479  0.87129888  0.89683194  1
  N  N63  1  0.78823170  0.75353147  0.64791900  1
  N  N64  1  0.59046284  0.85426370  0.37788466  1
  N  N65  1  0.41975965  0.81182423  0.09086048  1
  N  N66  1  0.22744874  0.86479337  0.83538839  1
  N  N67  1  0.11798309  0.75668291  0.58565230  1
  N  N68  1  0.87555991  0.85483109  0.38825139  1
  N  N69  1  0.72708501  0.78225180  0.09741242  1
  N  N70  1  0.54401820  0.87469390  0.83051190  1
  N  N71  1  0.44542788  0.75248295  0.57850682  1
