# generated using pymatgen
data_Al31B5N36
_symmetry_space_group_name_H-M   'P 1'
_cell_length_a   9.24532791
_cell_length_b   9.35031068
_cell_length_c   9.75161790
_cell_angle_alpha   90.19701395
_cell_angle_beta   89.70773391
_cell_angle_gamma   59.98266015
_symmetry_Int_Tables_number   1
_chemical_formula_structural   Al31B5N36
_chemical_formula_sum   'Al31 B5 N36'
_cell_volume   729.90058810
_cell_formula_units_Z   1
loop_
 _symmetry_equiv_pos_site_id
 _symmetry_equiv_pos_as_xyz
  1  'x, y, z'
loop_
 _atom_site_type_symbol
 _atom_site_label
 _atom_site_symmetry_multiplicity
 _atom_site_fract_x
 _atom_site_fract_y
 _atom_site_fract_z
 _atom_site_occupancy
  B  B0  1  0.11278845  0.09966465  0.40299353  1
  B  B1  1  0.58646537  0.47535157  0.16894062  1
  B  B2  1  0.24757786  0.91673808  0.17176186  1
  B  B3  1  0.55633197  0.87443606  0.16353479  1
  B  B4  1  0.77989906  0.75680263  0.40042116  1
  Al  Al5  1  0.22226171  0.20222651  0.15478045  1
  Al  Al6  1  0.78071400  0.08960359  0.85744552  1
  Al  Al7  1  0.89499486  0.20545250  0.64115439  1
  Al  Al8  1  0.45202751  0.08516907  0.34717454  1
  Al  Al9  1  0.56393855  0.19162885  0.09063091  1
  Al  Al10  1  0.11628815  0.08704356  0.90220268  1
  Al  Al11  1  0.21399990  0.20866274  0.63669756  1
  Al  Al12  1  0.78882664  0.08330289  0.37866032  1
  Al  Al13  1  0.90198025  0.19151628  0.15787914  1
  Al  Al14  1  0.44467300  0.09455549  0.82874693  1
  Al  Al15  1  0.55626314  0.20414897  0.58240609  1
  Al  Al16  1  0.10531928  0.43303922  0.39907930  1
  Al  Al17  1  0.22426851  0.54064332  0.14895867  1
  Al  Al18  1  0.77228455  0.42870738  0.90464055  1
  Al  Al19  1  0.88464989  0.54350173  0.64814803  1
  Al  Al20  1  0.44296118  0.43221741  0.39631662  1
  Al  Al21  1  0.10868652  0.42708606  0.90064443  1
  Al  Al22  1  0.22262708  0.54149158  0.64997706  1
  Al  Al23  1  0.78565648  0.42712455  0.39886788  1
  Al  Al24  1  0.86932581  0.55133175  0.15437887  1
  Al  Al25  1  0.44521779  0.43610163  0.90315965  1
  Al  Al26  1  0.55303987  0.54484383  0.65248524  1
  Al  Al27  1  0.11108635  0.76525189  0.38565421  1
  Al  Al28  1  0.76585641  0.76572681  0.90247689  1
  Al  Al29  1  0.89150292  0.86338520  0.63598702  1
  Al  Al30  1  0.45289413  0.75744202  0.37276149  1
  Al  Al31  1  0.10810059  0.76188862  0.90574376  1
  Al  Al32  1  0.22570673  0.87004318  0.64100092  1
  Al  Al33  1  0.88086831  0.86258257  0.15359670  1
  Al  Al34  1  0.43801145  0.77285023  0.92039205  1
  Al  Al35  1  0.55709336  0.86245478  0.63436160  1
  N  N36  1  0.20659490  0.19903581  0.35383417  1
  N  N37  1  0.12622554  0.07585798  0.09725109  1
  N  N38  1  0.89274306  0.20705412  0.84122784  1
  N  N39  1  0.78394697  0.09041330  0.60708625  1
  N  N40  1  0.55767447  0.20392057  0.38509500  1
  N  N41  1  0.45731946  0.07790756  0.14593465  1
  N  N42  1  0.21263191  0.20787106  0.83736053  1
  N  N43  1  0.11544086  0.08906441  0.56772298  1
  N  N44  1  0.91882547  0.19371517  0.35284807  1
  N  N45  1  0.78645395  0.08597786  0.12285030  1
  N  N46  1  0.55307153  0.20389143  0.88960330  1
  N  N47  1  0.44561971  0.09349017  0.62433050  1
  N  N48  1  0.22406732  0.53746588  0.34028472  1
  N  N49  1  0.10631661  0.42345095  0.09653730  1
  N  N50  1  0.88325215  0.54172223  0.84569728  1
  N  N51  1  0.77664914  0.42873124  0.59113862  1
  N  N52  1  0.56627539  0.52321657  0.31871215  1
  N  N53  1  0.46405572  0.43297484  0.10348682  1
  N  N54  1  0.22354802  0.53695474  0.84515452  1
  N  N55  1  0.10883631  0.43218106  0.59211132  1
  N  N56  1  0.87673037  0.56278413  0.34727022  1
  N  N57  1  0.75819637  0.42531134  0.10464494  1
  N  N58  1  0.55090636  0.54990043  0.84727826  1
  N  N59  1  0.44492776  0.43395180  0.59304373  1
  N  N60  1  0.21518339  0.90440249  0.32668565  1
  N  N61  1  0.09945426  0.75337855  0.09386604  1
  N  N62  1  0.88757053  0.86292696  0.83403694  1
  N  N63  1  0.77697079  0.75787162  0.56674362  1
  N  N64  1  0.58834490  0.85142958  0.33607949  1
  N  N65  1  0.42365899  0.81743380  0.11685894  1
  N  N66  1  0.22198678  0.87012206  0.83749742  1
  N  N67  1  0.11581468  0.75950932  0.58165971  1
  N  N68  1  0.87898399  0.85289844  0.35012361  1
  N  N69  1  0.73940969  0.77549586  0.09531057  1
  N  N70  1  0.55288494  0.86558426  0.83155688  1
  N  N71  1  0.44587152  0.75488668  0.57108322  1
