# generated using pymatgen
data_Al31B5N36
_symmetry_space_group_name_H-M   'P 1'
_cell_length_a   9.24171365
_cell_length_b   9.34129202
_cell_length_c   9.71044975
_cell_angle_alpha   90.12186365
_cell_angle_beta   89.67789554
_cell_angle_gamma   60.01926783
_symmetry_Int_Tables_number   1
_chemical_formula_structural   Al31B5N36
_chemical_formula_sum   'Al31 B5 N36'
_cell_volume   726.10563421
_cell_formula_units_Z   1
loop_
 _symmetry_equiv_pos_site_id
 _symmetry_equiv_pos_as_xyz
  1  'x, y, z'
loop_
 _atom_site_type_symbol
 _atom_site_label
 _atom_site_symmetry_multiplicity
 _atom_site_fract_x
 _atom_site_fract_y
 _atom_site_fract_z
 _atom_site_occupancy
  B  B0  1  0.11078438  0.09908874  0.40234293  1
  B  B1  1  0.58640933  0.47864151  0.16846645  1
  B  B2  1  0.24742395  0.91581803  0.17109708  1
  B  B3  1  0.55551805  0.87607159  0.16443969  1
  B  B4  1  0.77931807  0.75806738  0.39975965  1
  Al  Al5  1  0.22335485  0.20087197  0.15630100  1
  Al  Al6  1  0.78217444  0.08850523  0.89888578  1
  Al  Al7  1  0.89292996  0.20274868  0.64615449  1
  Al  Al8  1  0.44964441  0.08423309  0.36290841  1
  Al  Al9  1  0.56197101  0.19778214  0.13434358  1
  Al  Al10  1  0.11749046  0.08660532  0.90069318  1
  Al  Al11  1  0.21360466  0.20764520  0.63315464  1
  Al  Al12  1  0.79119867  0.08232323  0.39666588  1
  Al  Al13  1  0.90222131  0.19004121  0.15592062  1
  Al  Al14  1  0.44552019  0.09443411  0.83468834  1
  Al  Al15  1  0.55738965  0.20650881  0.60428247  1
  Al  Al16  1  0.10435167  0.43401502  0.39844896  1
  Al  Al17  1  0.22321866  0.54161423  0.14790351  1
  Al  Al18  1  0.77243791  0.42811685  0.90335416  1
  Al  Al19  1  0.88472457  0.54315674  0.64708033  1
  Al  Al20  1  0.44396184  0.43120100  0.39482166  1
  Al  Al21  1  0.10981037  0.42632252  0.89913942  1
  Al  Al22  1  0.22181221  0.54194791  0.64906294  1
  Al  Al23  1  0.78616816  0.42567193  0.39836748  1
  Al  Al24  1  0.86966094  0.55135158  0.15341554  1
  Al  Al25  1  0.44772720  0.43145732  0.90309608  1
  Al  Al26  1  0.55318880  0.54437394  0.65195945  1
  Al  Al27  1  0.10985051  0.76597894  0.38472055  1
  Al  Al28  1  0.76587489  0.76637968  0.90128357  1
  Al  Al29  1  0.88972039  0.86695784  0.64102429  1
  Al  Al30  1  0.45287435  0.75701176  0.37134664  1
  Al  Al31  1  0.10912044  0.76147767  0.90461197  1
  Al  Al32  1  0.22547248  0.86962027  0.64017731  1
  Al  Al33  1  0.88049365  0.86325145  0.15161995  1
  Al  Al34  1  0.43859604  0.77201292  0.91956439  1
  Al  Al35  1  0.55717973  0.86194497  0.63169510  1
  N  N36  1  0.20380833  0.20010034  0.35466602  1
  N  N37  1  0.12685513  0.07536370  0.09638680  1
  N  N38  1  0.89216680  0.20434059  0.84382538  1
  N  N39  1  0.78563521  0.08916384  0.59124584  1
  N  N40  1  0.56191982  0.20563778  0.36015375  1
  N  N41  1  0.45645473  0.07526974  0.14505610  1
  N  N42  1  0.21457211  0.20672882  0.83372059  1
  N  N43  1  0.11241905  0.08899601  0.56780114  1
  N  N44  1  0.91721544  0.19179879  0.34951454  1
  N  N45  1  0.78831413  0.08491480  0.09705612  1
  N  N46  1  0.55475167  0.20710824  0.86622741  1
  N  N47  1  0.44455035  0.09148852  0.60471187  1
  N  N48  1  0.22384206  0.53786121  0.33996874  1
  N  N49  1  0.10725785  0.42244157  0.09597045  1
  N  N50  1  0.88357768  0.54174229  0.84527329  1
  N  N51  1  0.77736759  0.42639959  0.59173106  1
  N  N52  1  0.56646244  0.52443719  0.31866498  1
  N  N53  1  0.46449303  0.43318259  0.10356308  1
  N  N54  1  0.22422353  0.53702038  0.84493403  1
  N  N55  1  0.10878260  0.43208019  0.59181931  1
  N  N56  1  0.87632430  0.56328278  0.34710030  1
  N  N57  1  0.75841291  0.42529570  0.10429305  1
  N  N58  1  0.55064666  0.54972734  0.84711816  1
  N  N59  1  0.44474271  0.43335863  0.58971351  1
  N  N60  1  0.21478921  0.90449868  0.32666802  1
  N  N61  1  0.09989180  0.75484496  0.09389802  1
  N  N62  1  0.88600391  0.86766475  0.83689792  1
  N  N63  1  0.77820887  0.75862266  0.56698809  1
  N  N64  1  0.58842170  0.85159275  0.33650921  1
  N  N65  1  0.42403502  0.81538553  0.11707289  1
  N  N66  1  0.22308921  0.86966812  0.83684863  1
  N  N67  1  0.11372498  0.76035746  0.58197333  1
  N  N68  1  0.87737020  0.85654821  0.34668453  1
  N  N69  1  0.73913318  0.77568309  0.09472283  1
  N  N70  1  0.55241557  0.86689107  0.82895532  1
  N  N71  1  0.44562705  0.75395973  0.57032345  1
