# generated using pymatgen
data_Al31B5N36
_symmetry_space_group_name_H-M   'P 1'
_cell_length_a   9.12354451
_cell_length_b   9.20725778
_cell_length_c   10.07811244
_cell_angle_alpha   89.62976541
_cell_angle_beta   89.88762287
_cell_angle_gamma   60.34142714
_symmetry_Int_Tables_number   1
_chemical_formula_structural   Al31B5N36
_chemical_formula_sum   'Al31 B5 N36'
_cell_volume   735.66167520
_cell_formula_units_Z   1
loop_
 _symmetry_equiv_pos_site_id
 _symmetry_equiv_pos_as_xyz
  1  'x, y, z'
loop_
 _atom_site_type_symbol
 _atom_site_label
 _atom_site_symmetry_multiplicity
 _atom_site_fract_x
 _atom_site_fract_y
 _atom_site_fract_z
 _atom_site_occupancy
  B  B0  1  0.11144160  0.09286091  0.31154067  1
  B  B1  1  0.58916045  0.47329039  0.04901455  1
  B  B2  1  0.22656287  0.89007996  0.09710826  1
  B  B3  1  0.54174322  0.88436766  0.10478668  1
  B  B4  1  0.77375492  0.76518902  0.35333167  1
  Al  Al5  1  0.22296163  0.20144892  0.06912023  1
  Al  Al6  1  0.78264208  0.08922194  0.80874171  1
  Al  Al7  1  0.89314672  0.20493091  0.55636421  1
  Al  Al8  1  0.45125791  0.08526642  0.31493496  1
  Al  Al9  1  0.56291058  0.19255613  0.05896539  1
  Al  Al10  1  0.11686540  0.08762748  0.81443955  1
  Al  Al11  1  0.21929399  0.20415438  0.55432795  1
  Al  Al12  1  0.78207691  0.08767640  0.31126995  1
  Al  Al13  1  0.89786082  0.19201041  0.06414663  1
  Al  Al14  1  0.43931453  0.09580600  0.81142620  1
  Al  Al15  1  0.55481027  0.20564653  0.55986617  1
  Al  Al16  1  0.10472473  0.43469125  0.30904573  1
  Al  Al17  1  0.22914511  0.55063693  0.05828678  1
  Al  Al18  1  0.78108811  0.42228798  0.81497676  1
  Al  Al19  1  0.88577082  0.54235645  0.56260401  1
  Al  Al20  1  0.45039534  0.42807868  0.30411559  1
  Al  Al21  1  0.11258189  0.42452863  0.81123417  1
  Al  Al22  1  0.22436906  0.53873652  0.55949421  1
  Al  Al23  1  0.77614127  0.43268681  0.30476274  1
  Al  Al24  1  0.86672046  0.55245046  0.05752135  1
  Al  Al25  1  0.44642842  0.42524186  0.81555909  1
  Al  Al26  1  0.55761882  0.53257684  0.55847358  1
  Al  Al27  1  0.11202691  0.76784995  0.30967257  1
  Al  Al28  1  0.77918772  0.75778709  0.82044328  1
  Al  Al29  1  0.88654414  0.86841896  0.56073093  1
  Al  Al30  1  0.45015632  0.76935518  0.37244928  1
  Al  Al31  1  0.11535704  0.76100057  0.80950890  1
  Al  Al32  1  0.21206000  0.88219955  0.56206960  1
  Al  Al33  1  0.88367057  0.87140889  0.05989526  1
  Al  Al34  1  0.44404555  0.76441881  0.90951872  1
  Al  Al35  1  0.55071930  0.86623279  0.62667464  1
  N  N36  1  0.20980311  0.19592989  0.36089384  1
  N  N37  1  0.11886068  0.07938137  0.14177947  1
  N  N38  1  0.89252716  0.20028483  0.87585081  1
  N  N39  1  0.78042972  0.09232197  0.61699191  1
  N  N40  1  0.55574107  0.20804803  0.37008369  1
  N  N41  1  0.45372726  0.07817930  0.12367983  1
  N  N42  1  0.22116622  0.20524601  0.88029271  1
  N  N43  1  0.10935221  0.09811363  0.62654614  1
  N  N44  1  0.91205500  0.19770111  0.36187769  1
  N  N45  1  0.78123426  0.08777227  0.12490238  1
  N  N46  1  0.55861651  0.19967050  0.87180786  1
  N  N47  1  0.43848528  0.10120767  0.61915217  1
  N  N48  1  0.22651918  0.54010069  0.36745482  1
  N  N49  1  0.10412072  0.43921620  0.12075607  1
  N  N50  1  0.89103660  0.53357128  0.87171795  1
  N  N51  1  0.77730889  0.42542863  0.62410831  1
  N  N52  1  0.55996129  0.53334968  0.36939664  1
  N  N53  1  0.46576593  0.42658553  0.11219764  1
  N  N54  1  0.22303655  0.53840340  0.87144473  1
  N  N55  1  0.11202080  0.42539138  0.61773302  1
  N  N56  1  0.87295453  0.56789471  0.36666769  1
  N  N57  1  0.75765309  0.42726512  0.11406797  1
  N  N58  1  0.56555592  0.52127451  0.90296383  1
  N  N59  1  0.44656480  0.42615204  0.62696228  1
  N  N60  1  0.20212240  0.90609709  0.36820309  1
  N  N61  1  0.13203972  0.77788002  0.12126596  1
  N  N62  1  0.89291347  0.86953700  0.87226917  1
  N  N63  1  0.78527940  0.75527656  0.62842653  1
  N  N64  1  0.59096717  0.86057308  0.35900774  1
  N  N65  1  0.42051938  0.81444766  0.09575500  1
  N  N66  1  0.22023850  0.87130932  0.87178365  1
  N  N67  1  0.11051516  0.76009243  0.61810675  1
  N  N68  1  0.87945469  0.85583478  0.36668795  1
  N  N69  1  0.73030265  0.78342952  0.08629887  1
  N  N70  1  0.54651105  0.86522027  0.82043566  1
  N  N71  1  0.44139877  0.76013031  0.56746705  1
