# generated using pymatgen
data_Al31B5N36
_symmetry_space_group_name_H-M   'P 1'
_cell_length_a   9.10583491
_cell_length_b   9.20484907
_cell_length_c   10.29005995
_cell_angle_alpha   90.30362288
_cell_angle_beta   89.71351570
_cell_angle_gamma   60.41909640
_symmetry_Int_Tables_number   1
_chemical_formula_structural   Al31B5N36
_chemical_formula_sum   'Al31 B5 N36'
_cell_volume   750.03381912
_cell_formula_units_Z   1
loop_
 _symmetry_equiv_pos_site_id
 _symmetry_equiv_pos_as_xyz
  1  'x, y, z'
loop_
 _atom_site_type_symbol
 _atom_site_label
 _atom_site_symmetry_multiplicity
 _atom_site_fract_x
 _atom_site_fract_y
 _atom_site_fract_z
 _atom_site_occupancy
  B  B0  1  0.11917575  0.08613176  0.34791108  1
  B  B1  1  0.58922151  0.48466334  0.15059412  1
  B  B2  1  0.22880542  0.89169717  0.09520173  1
  B  B3  1  0.54042207  0.88243718  0.09149229  1
  B  B4  1  0.77815741  0.76414027  0.35274341  1
  Al  Al5  1  0.22496298  0.19828232  0.05746416  1
  Al  Al6  1  0.77988200  0.08883839  0.80486556  1
  Al  Al7  1  0.89838185  0.19306913  0.55558254  1
  Al  Al8  1  0.45406369  0.07833942  0.30968369  1
  Al  Al9  1  0.56133806  0.19467542  0.05608822  1
  Al  Al10  1  0.10976371  0.09729894  0.81312888  1
  Al  Al11  1  0.22133666  0.20375743  0.55599465  1
  Al  Al12  1  0.78623229  0.08285942  0.30627648  1
  Al  Al13  1  0.89741645  0.18608720  0.05929726  1
  Al  Al14  1  0.43977599  0.09813602  0.80317086  1
  Al  Al15  1  0.55756606  0.20326350  0.55424683  1
  Al  Al16  1  0.10663203  0.43202030  0.30467462  1
  Al  Al17  1  0.23343602  0.54824863  0.05798391  1
  Al  Al18  1  0.76269434  0.42850989  0.88620216  1
  Al  Al19  1  0.89322560  0.54211798  0.55906916  1
  Al  Al20  1  0.44407523  0.42170984  0.30625785  1
  Al  Al21  1  0.10835541  0.42643498  0.80936534  1
  Al  Al22  1  0.22609796  0.53657787  0.55499447  1
  Al  Al23  1  0.78227453  0.42848475  0.36871189  1
  Al  Al24  1  0.87069404  0.55541338  0.06519052  1
  Al  Al25  1  0.44145263  0.42152788  0.80756648  1
  Al  Al26  1  0.56295948  0.53841042  0.63155473  1
  Al  Al27  1  0.11601544  0.76984425  0.30608998  1
  Al  Al28  1  0.77828861  0.75564437  0.81740510  1
  Al  Al29  1  0.89098435  0.86542840  0.55676886  1
  Al  Al30  1  0.45269229  0.76303642  0.37466545  1
  Al  Al31  1  0.11017423  0.75495198  0.80554865  1
  Al  Al32  1  0.23043875  0.86768403  0.62032966  1
  Al  Al33  1  0.88330967  0.87198550  0.05560078  1
  Al  Al34  1  0.43986138  0.76608167  0.88584518  1
  Al  Al35  1  0.55687994  0.86508145  0.61772931  1
  N  N36  1  0.21043708  0.19318247  0.36468744  1
  N  N37  1  0.12304806  0.07153622  0.09438581  1
  N  N38  1  0.88709891  0.19926441  0.87230027  1
  N  N39  1  0.78063003  0.08880547  0.61677127  1
  N  N40  1  0.55947480  0.20415864  0.36818765  1
  N  N41  1  0.45232259  0.07594635  0.12051363  1
  N  N42  1  0.22256491  0.20854437  0.87222318  1
  N  N43  1  0.10905237  0.10148503  0.62523944  1
  N  N44  1  0.92357739  0.18221351  0.36191901  1
  N  N45  1  0.77892551  0.08767075  0.12388531  1
  N  N46  1  0.55678836  0.20187790  0.87108931  1
  N  N47  1  0.44149125  0.09904521  0.61416417  1
  N  N48  1  0.22509775  0.54147884  0.36730650  1
  N  N49  1  0.10881531  0.43512186  0.12025797  1
  N  N50  1  0.88952473  0.53506195  0.87657009  1
  N  N51  1  0.77490717  0.42460097  0.55565237  1
  N  N52  1  0.56651737  0.53772728  0.29413755  1
  N  N53  1  0.46399799  0.42250956  0.11824235  1
  N  N54  1  0.22215217  0.53802040  0.87346904  1
  N  N55  1  0.11330834  0.42485632  0.61895493  1
  N  N56  1  0.88049336  0.57062289  0.36500074  1
  N  N57  1  0.75310492  0.42917235  0.08232281  1
  N  N58  1  0.55398894  0.54422141  0.81754548  1
  N  N59  1  0.44466924  0.42044873  0.61951251  1
  N  N60  1  0.21352565  0.90313489  0.35521654  1
  N  N61  1  0.13297183  0.77709139  0.11607510  1
  N  N62  1  0.89072799  0.87053802  0.87100390  1
  N  N63  1  0.79026514  0.75194774  0.62735981  1
  N  N64  1  0.59420396  0.85677261  0.36009458  1
  N  N65  1  0.42061770  0.81020029  0.07039669  1
  N  N66  1  0.22883846  0.86663605  0.81319064  1
  N  N67  1  0.10971101  0.75359935  0.61632262  1
  N  N68  1  0.88247035  0.85638222  0.36511350  1
  N  N69  1  0.72912175  0.78567354  0.08358879  1
  N  N70  1  0.54705510  0.87022897  0.81052638  1
  N  N71  1  0.45110514  0.74792626  0.55889630  1
