# generated using pymatgen
data_Al31B5N36
_symmetry_space_group_name_H-M   'P 1'
_cell_length_a   9.16663056
_cell_length_b   9.23528669
_cell_length_c   10.07900007
_cell_angle_alpha   90.97782127
_cell_angle_beta   90.24247852
_cell_angle_gamma   60.22207520
_symmetry_Int_Tables_number   1
_chemical_formula_structural   Al31B5N36
_chemical_formula_sum   'Al31 B5 N36'
_cell_volume   740.46964805
_cell_formula_units_Z   1
loop_
 _symmetry_equiv_pos_site_id
 _symmetry_equiv_pos_as_xyz
  1  'x, y, z'
loop_
 _atom_site_type_symbol
 _atom_site_label
 _atom_site_symmetry_multiplicity
 _atom_site_fract_x
 _atom_site_fract_y
 _atom_site_fract_z
 _atom_site_occupancy
  B  B0  1  0.11170536  0.08991331  0.39739287  1
  B  B1  1  0.58554933  0.47966135  0.17006289  1
  B  B2  1  0.22581072  0.89245933  0.15631672  1
  B  B3  1  0.53729554  0.88299181  0.12225099  1
  B  B4  1  0.77271586  0.76073233  0.39108052  1
  Al  Al5  1  0.22728251  0.20143338  0.09543408  1
  Al  Al6  1  0.77900188  0.08453822  0.83007866  1
  Al  Al7  1  0.89586566  0.20197602  0.64376115  1
  Al  Al8  1  0.45164275  0.07932724  0.33149736  1
  Al  Al9  1  0.56593918  0.19127521  0.08428038  1
  Al  Al10  1  0.11004300  0.08759505  0.90538993  1
  Al  Al11  1  0.22523773  0.19773326  0.56849821  1
  Al  Al12  1  0.78021982  0.08184573  0.33760396  1
  Al  Al13  1  0.90232417  0.20020983  0.16246710  1
  Al  Al14  1  0.43563917  0.10239327  0.82784001  1
  Al  Al15  1  0.55754847  0.19702248  0.58012301  1
  Al  Al16  1  0.10238562  0.43928701  0.39512499  1
  Al  Al17  1  0.23095271  0.55051179  0.15562998  1
  Al  Al18  1  0.77428402  0.42558006  0.90781437  1
  Al  Al19  1  0.89118737  0.53412393  0.65632057  1
  Al  Al20  1  0.44511948  0.43035687  0.40128369  1
  Al  Al21  1  0.10616688  0.43733264  0.90894075  1
  Al  Al22  1  0.22273815  0.53768054  0.65223248  1
  Al  Al23  1  0.78550827  0.42692581  0.40304325  1
  Al  Al24  1  0.86130758  0.56200846  0.15810670  1
  Al  Al25  1  0.44873744  0.43358784  0.90594468  1
  Al  Al26  1  0.55544946  0.54032006  0.65380957  1
  Al  Al27  1  0.11642610  0.76527903  0.39172847  1
  Al  Al28  1  0.76492714  0.76321589  0.89574927  1
  Al  Al29  1  0.88628339  0.86521264  0.57822204  1
  Al  Al30  1  0.45236139  0.76018693  0.38350737  1
  Al  Al31  1  0.12428295  0.76180292  0.90598819  1
  Al  Al32  1  0.22535359  0.86811963  0.64263137  1
  Al  Al33  1  0.88778375  0.87549564  0.09124642  1
  Al  Al34  1  0.44062068  0.77071909  0.91169816  1
  Al  Al35  1  0.55718084  0.86251566  0.63920918  1
  N  N36  1  0.21406101  0.19336722  0.37460267  1
  N  N37  1  0.11705251  0.07495913  0.09662467  1
  N  N38  1  0.89351348  0.20707288  0.83868205  1
  N  N39  1  0.77707790  0.08428950  0.64045010  1
  N  N40  1  0.55690863  0.19810137  0.39097815  1
  N  N41  1  0.45623344  0.07577448  0.14173567  1
  N  N42  1  0.22407121  0.20691185  0.90041053  1
  N  N43  1  0.10961154  0.07990147  0.56375576  1
  N  N44  1  0.91848240  0.19331129  0.35140809  1
  N  N45  1  0.77874363  0.09184932  0.15066538  1
  N  N46  1  0.55902723  0.19976476  0.89566577  1
  N  N47  1  0.43644133  0.09958805  0.63886262  1
  N  N48  1  0.22661780  0.53956160  0.33965309  1
  N  N49  1  0.09878744  0.44833600  0.10145655  1
  N  N50  1  0.88708855  0.53592747  0.84758175  1
  N  N51  1  0.77827273  0.42354502  0.58969856  1
  N  N52  1  0.56656224  0.52277719  0.31819084  1
  N  N53  1  0.46488726  0.43381152  0.10271982  1
  N  N54  1  0.22566313  0.53852446  0.84492350  1
  N  N55  1  0.10992180  0.42860480  0.58787117  1
  N  N56  1  0.87195860  0.56840718  0.34678216  1
  N  N57  1  0.75720923  0.42864334  0.10483024  1
  N  N58  1  0.55428778  0.54536691  0.84425617  1
  N  N59  1  0.44513816  0.43023154  0.59186167  1
  N  N60  1  0.21502007  0.89804082  0.32476972  1
  N  N61  1  0.13625022  0.77531055  0.10122275  1
  N  N62  1  0.89157235  0.87110356  0.89891910  1
  N  N63  1  0.78041353  0.74863263  0.60033358  1
  N  N64  1  0.58817309  0.85431837  0.36549332  1
  N  N65  1  0.42097694  0.81338480  0.10102300  1
  N  N66  1  0.22430747  0.87380822  0.83190501  1
  N  N67  1  0.11861531  0.75427399  0.58400289  1
  N  N68  1  0.87771965  0.85608231  0.38182698  1
  N  N69  1  0.73097350  0.78092698  0.08973263  1
  N  N70  1  0.55037264  0.87008408  0.83217235  1
  N  N71  1  0.44490645  0.75188657  0.57602584  1
