# generated using pymatgen
data_Al31B5N36
_symmetry_space_group_name_H-M   'P 1'
_cell_length_a   9.11634775
_cell_length_b   9.19316622
_cell_length_c   10.19721027
_cell_angle_alpha   89.70989633
_cell_angle_beta   89.98807303
_cell_angle_gamma   60.31246870
_symmetry_Int_Tables_number   1
_chemical_formula_structural   Al31B5N36
_chemical_formula_sum   'Al31 B5 N36'
_cell_volume   742.42016314
_cell_formula_units_Z   1
loop_
 _symmetry_equiv_pos_site_id
 _symmetry_equiv_pos_as_xyz
  1  'x, y, z'
loop_
 _atom_site_type_symbol
 _atom_site_label
 _atom_site_symmetry_multiplicity
 _atom_site_fract_x
 _atom_site_fract_y
 _atom_site_fract_z
 _atom_site_occupancy
  B  B0  1  0.11271245  0.09306906  0.35648506  1
  B  B1  1  0.58765605  0.47503479  0.05201894  1
  B  B2  1  0.22607421  0.89392424  0.10558369  1
  B  B3  1  0.54055541  0.88255324  0.10339884  1
  B  B4  1  0.77368018  0.76472881  0.35732927  1
  Al  Al5  1  0.22382632  0.19957580  0.06433893  1
  Al  Al6  1  0.78098163  0.08841828  0.80982870  1
  Al  Al7  1  0.89477468  0.20288115  0.56503152  1
  Al  Al8  1  0.45145394  0.08299490  0.31688776  1
  Al  Al9  1  0.56198256  0.19157659  0.06206567  1
  Al  Al10  1  0.11400183  0.09209539  0.82377209  1
  Al  Al11  1  0.22163323  0.20312363  0.56267986  1
  Al  Al12  1  0.78356161  0.08682471  0.31377030  1
  Al  Al13  1  0.89401681  0.19239217  0.06054976  1
  Al  Al14  1  0.44217289  0.09477907  0.81138551  1
  Al  Al15  1  0.55629007  0.20537720  0.56078460  1
  Al  Al16  1  0.10432850  0.43413477  0.31141068  1
  Al  Al17  1  0.22936660  0.54848692  0.06217612  1
  Al  Al18  1  0.77897592  0.42402838  0.81592137  1
  Al  Al19  1  0.88793458  0.54118996  0.56482576  1
  Al  Al20  1  0.45072256  0.42851265  0.30597295  1
  Al  Al21  1  0.11342382  0.42419477  0.81151591  1
  Al  Al22  1  0.22574338  0.53785817  0.55968650  1
  Al  Al23  1  0.77577407  0.43410745  0.30778597  1
  Al  Al24  1  0.86687196  0.55082670  0.05908868  1
  Al  Al25  1  0.44707844  0.42399942  0.81846890  1
  Al  Al26  1  0.55982850  0.53059623  0.56043082  1
  Al  Al27  1  0.11335388  0.77055788  0.31211492  1
  Al  Al28  1  0.78124716  0.75628827  0.82211521  1
  Al  Al29  1  0.89035674  0.86728341  0.56125359  1
  Al  Al30  1  0.44332870  0.77437596  0.38472156  1
  Al  Al31  1  0.11121913  0.75339001  0.81195754  1
  Al  Al32  1  0.22998705  0.86869975  0.63074986  1
  Al  Al33  1  0.88338104  0.87130539  0.06355813  1
  Al  Al34  1  0.44334317  0.76380077  0.90573842  1
  Al  Al35  1  0.55695020  0.86516672  0.62800731  1
  N  N36  1  0.20874958  0.19449154  0.37055210  1
  N  N37  1  0.11992764  0.07390015  0.09769044  1
  N  N38  1  0.88689146  0.20230018  0.87433243  1
  N  N39  1  0.78087668  0.09054353  0.62020800  1
  N  N40  1  0.55603556  0.20764222  0.37233202  1
  N  N41  1  0.45212683  0.07693939  0.12741306  1
  N  N42  1  0.22529553  0.20635551  0.87806890  1
  N  N43  1  0.10919738  0.10152104  0.63352597  1
  N  N44  1  0.91513930  0.19631590  0.37122257  1
  N  N45  1  0.78034692  0.08818122  0.12898910  1
  N  N46  1  0.55909301  0.19850668  0.87593775  1
  N  N47  1  0.44236572  0.09992395  0.62165226  1
  N  N48  1  0.22669904  0.54014933  0.36906286  1
  N  N49  1  0.10457509  0.43608913  0.12432195  1
  N  N50  1  0.89227946  0.53205923  0.87446255  1
  N  N51  1  0.77812233  0.42602050  0.62713800  1
  N  N52  1  0.55896461  0.53486610  0.37324034  1
  N  N53  1  0.46570418  0.42631413  0.11524689  1
  N  N54  1  0.22417742  0.53541970  0.87692447  1
  N  N55  1  0.11376228  0.42544480  0.62049927  1
  N  N56  1  0.87379359  0.56726860  0.37048258  1
  N  N57  1  0.75711373  0.42686241  0.11737488  1
  N  N58  1  0.56536788  0.52061053  0.90617676  1
  N  N59  1  0.44767862  0.42574128  0.63030079  1
  N  N60  1  0.20363924  0.90989050  0.36155648  1
  N  N61  1  0.13255793  0.77691370  0.12185657  1
  N  N62  1  0.89305601  0.86971349  0.87731452  1
  N  N63  1  0.79000587  0.75383645  0.63134167  1
  N  N64  1  0.59066630  0.85914465  0.36338973  1
  N  N65  1  0.41866406  0.81307521  0.08873100  1
  N  N66  1  0.23538647  0.85918751  0.82440547  1
  N  N67  1  0.10991202  0.75466385  0.62178278  1
  N  N68  1  0.88003779  0.85572370  0.36925020  1
  N  N69  1  0.72927598  0.78271157  0.08775615  1
  N  N70  1  0.54951952  0.86389752  0.82048063  1
  N  N71  1  0.44555430  0.75920949  0.57144220  1
