# generated using pymatgen
data_Al31B5N36
_symmetry_space_group_name_H-M   'P 1'
_cell_length_a   9.14125663
_cell_length_b   9.19657087
_cell_length_c   10.29346783
_cell_angle_alpha   91.36370453
_cell_angle_beta   90.84038079
_cell_angle_gamma   60.26555462
_symmetry_Int_Tables_number   1
_chemical_formula_structural   Al31B5N36
_chemical_formula_sum   'Al31 B5 N36'
_cell_volume   751.19848305
_cell_formula_units_Z   1
loop_
 _symmetry_equiv_pos_site_id
 _symmetry_equiv_pos_as_xyz
  1  'x, y, z'
loop_
 _atom_site_type_symbol
 _atom_site_label
 _atom_site_symmetry_multiplicity
 _atom_site_fract_x
 _atom_site_fract_y
 _atom_site_fract_z
 _atom_site_occupancy
  B  B0  1  0.12000930  0.08699404  0.36186340  1
  B  B1  1  0.58538300  0.47913969  0.17073785  1
  B  B2  1  0.22809601  0.88712225  0.11014897  1
  B  B3  1  0.53770997  0.88270553  0.11151789  1
  B  B4  1  0.77327684  0.76333346  0.36983163  1
  Al  Al5  1  0.22847626  0.19787681  0.08439657  1
  Al  Al6  1  0.77299763  0.08708930  0.83148500  1
  Al  Al7  1  0.89007590  0.20808346  0.65697081  1
  Al  Al8  1  0.45304145  0.07800998  0.33091147  1
  Al  Al9  1  0.56342819  0.19035783  0.08354050  1
  Al  Al10  1  0.11061988  0.09065079  0.87867313  1
  Al  Al11  1  0.22140620  0.19628315  0.57127749  1
  Al  Al12  1  0.78295569  0.07894895  0.33345385  1
  Al  Al13  1  0.90267370  0.19474238  0.15279654  1
  Al  Al14  1  0.43347075  0.10542703  0.82275573  1
  Al  Al15  1  0.55883795  0.19855551  0.57645099  1
  Al  Al16  1  0.10355865  0.44059835  0.39412168  1
  Al  Al17  1  0.23099459  0.55289934  0.15590583  1
  Al  Al18  1  0.77155453  0.42812988  0.91176677  1
  Al  Al19  1  0.89846285  0.52395326  0.65491569  1
  Al  Al20  1  0.44545332  0.43200166  0.40015520  1
  Al  Al21  1  0.10569790  0.43778957  0.90922718  1
  Al  Al22  1  0.22348942  0.53805773  0.65082987  1
  Al  Al23  1  0.78796874  0.42490346  0.40008162  1
  Al  Al24  1  0.86027761  0.56214515  0.15457558  1
  Al  Al25  1  0.44768685  0.43397158  0.90678084  1
  Al  Al26  1  0.55651189  0.53984507  0.65322351  1
  Al  Al27  1  0.11653678  0.76798785  0.40028698  1
  Al  Al28  1  0.77476609  0.76139195  0.84098122  1
  Al  Al29  1  0.88448006  0.86607052  0.58218383  1
  Al  Al30  1  0.44911205  0.76294761  0.39197891  1
  Al  Al31  1  0.12304091  0.75895700  0.90238555  1
  Al  Al32  1  0.22570963  0.86984551  0.64975585  1
  Al  Al33  1  0.87787774  0.87298218  0.07965656  1
  Al  Al34  1  0.44504078  0.76735023  0.90482574  1
  Al  Al35  1  0.55557461  0.86654545  0.63770878  1
  N  N36  1  0.21369900  0.18826582  0.37682637  1
  N  N37  1  0.11725009  0.07179887  0.08529047  1
  N  N38  1  0.88100880  0.21136452  0.84820866  1
  N  N39  1  0.77488064  0.08671926  0.64395648  1
  N  N40  1  0.55989131  0.19803886  0.38965630  1
  N  N41  1  0.45341973  0.07480099  0.14393356  1
  N  N42  1  0.22634619  0.20751140  0.89962486  1
  N  N43  1  0.11301864  0.09571171  0.63225080  1
  N  N44  1  0.92606235  0.18976608  0.34291481  1
  N  N45  1  0.77837462  0.08603511  0.15029459  1
  N  N46  1  0.55569423  0.19975950  0.89890476  1
  N  N47  1  0.43802628  0.10358581  0.63622182  1
  N  N48  1  0.22551663  0.54374428  0.33736636  1
  N  N49  1  0.09869365  0.44887906  0.09907246  1
  N  N50  1  0.89062629  0.52639459  0.84461741  1
  N  N51  1  0.77790795  0.42328640  0.58448505  1
  N  N52  1  0.56668649  0.52395554  0.31675555  1
  N  N53  1  0.46417943  0.43415958  0.10259067  1
  N  N54  1  0.22522775  0.53572743  0.84113063  1
  N  N55  1  0.11098673  0.43090048  0.58004779  1
  N  N56  1  0.87222400  0.56998019  0.34342859  1
  N  N57  1  0.75616103  0.42800991  0.10572815  1
  N  N58  1  0.55515796  0.54204999  0.84122309  1
  N  N59  1  0.44423189  0.43259241  0.58725734  1
  N  N60  1  0.21231611  0.90212228  0.35149021  1
  N  N61  1  0.13886962  0.77525242  0.09290356  1
  N  N62  1  0.88955682  0.87122975  0.89666621  1
  N  N63  1  0.78823810  0.75337047  0.64801800  1
  N  N64  1  0.59027916  0.85415713  0.37794140  1
  N  N65  1  0.41947302  0.81218208  0.08911247  1
  N  N66  1  0.22797291  0.86386648  0.83506360  1
  N  N67  1  0.11762151  0.75668832  0.58637484  1
  N  N68  1  0.87537319  0.85477134  0.38872108  1
  N  N69  1  0.72685073  0.78230970  0.09738078  1
  N  N70  1  0.54419547  0.87492907  0.83038108  1
  N  N71  1  0.44593711  0.75223538  0.57928650  1
