# generated using pymatgen
data_Al31B5N36
_symmetry_space_group_name_H-M   'P 1'
_cell_length_a   9.22419842
_cell_length_b   9.32133762
_cell_length_c   9.71440142
_cell_angle_alpha   90.11854558
_cell_angle_beta   89.72184066
_cell_angle_gamma   59.98490112
_symmetry_Int_Tables_number   1
_chemical_formula_structural   Al31B5N36
_chemical_formula_sum   'Al31 B5 N36'
_cell_volume   723.23007762
_cell_formula_units_Z   1
loop_
 _symmetry_equiv_pos_site_id
 _symmetry_equiv_pos_as_xyz
  1  'x, y, z'
loop_
 _atom_site_type_symbol
 _atom_site_label
 _atom_site_symmetry_multiplicity
 _atom_site_fract_x
 _atom_site_fract_y
 _atom_site_fract_z
 _atom_site_occupancy
  B  B0  1  0.11128795  0.09803959  0.40149121  1
  B  B1  1  0.58613537  0.47812401  0.16724580  1
  B  B2  1  0.24668554  0.91568476  0.17072198  1
  B  B3  1  0.55500336  0.87783788  0.16138497  1
  B  B4  1  0.77882283  0.75990986  0.39867040  1
  Al  Al5  1  0.22549212  0.19993968  0.15595900  1
  Al  Al6  1  0.78107415  0.08936008  0.89771331  1
  Al  Al7  1  0.89334611  0.20269834  0.64495839  1
  Al  Al8  1  0.44898717  0.08574177  0.38757049  1
  Al  Al9  1  0.56346892  0.19745806  0.15201216  1
  Al  Al10  1  0.11688681  0.08658161  0.90047997  1
  Al  Al11  1  0.21900992  0.20507363  0.63531273  1
  Al  Al12  1  0.78657844  0.08457852  0.39952582  1
  Al  Al13  1  0.90151302  0.18957715  0.15540843  1
  Al  Al14  1  0.44467876  0.09126706  0.87800803  1
  Al  Al15  1  0.55681294  0.20621686  0.64105583  1
  Al  Al16  1  0.10470999  0.43366263  0.39814184  1
  Al  Al17  1  0.22416271  0.54070550  0.14765725  1
  Al  Al18  1  0.77268181  0.42815559  0.90308571  1
  Al  Al19  1  0.88469122  0.54320165  0.64599339  1
  Al  Al20  1  0.44601015  0.42678048  0.39741377  1
  Al  Al21  1  0.10946423  0.42658915  0.89879847  1
  Al  Al22  1  0.22233709  0.54147696  0.64824192  1
  Al  Al23  1  0.78561358  0.42572858  0.39786456  1
  Al  Al24  1  0.86999608  0.55096861  0.15329244  1
  Al  Al25  1  0.44867435  0.43025363  0.90204706  1
  Al  Al26  1  0.55313877  0.54458938  0.65081185  1
  Al  Al27  1  0.10993626  0.76601685  0.38415418  1
  Al  Al28  1  0.76685661  0.76540214  0.90060207  1
  Al  Al29  1  0.88933070  0.86751777  0.64019759  1
  Al  Al30  1  0.45294769  0.75760139  0.36982702  1
  Al  Al31  1  0.10915420  0.76138355  0.90449950  1
  Al  Al32  1  0.22579224  0.86965894  0.63958149  1
  Al  Al33  1  0.87993724  0.86408553  0.15083202  1
  Al  Al34  1  0.43850971  0.77083885  0.91919331  1
  Al  Al35  1  0.55506428  0.86660010  0.63340331  1
  N  N36  1  0.20629318  0.19869950  0.35181408  1
  N  N37  1  0.12630039  0.07554628  0.09607078  1
  N  N38  1  0.89201045  0.20455918  0.84304282  1
  N  N39  1  0.78222521  0.09129373  0.59163566  1
  N  N40  1  0.56109704  0.20443273  0.34586310  1
  N  N41  1  0.45704286  0.07646744  0.11493721  1
  N  N42  1  0.21777203  0.20510108  0.83436552  1
  N  N43  1  0.11333797  0.08949751  0.56741625  1
  N  N44  1  0.91644883  0.19135644  0.34928483  1
  N  N45  1  0.78502131  0.08659702  0.09364817  1
  N  N46  1  0.55578217  0.20791905  0.84124887  1
  N  N47  1  0.44618173  0.09215756  0.58703274  1
  N  N48  1  0.22511955  0.53699387  0.33992803  1
  N  N49  1  0.10709488  0.42238521  0.09549598  1
  N  N50  1  0.88366483  0.54148523  0.84423122  1
  N  N51  1  0.77736564  0.42653926  0.59102027  1
  N  N52  1  0.56551424  0.52368538  0.31792593  1
  N  N53  1  0.46599927  0.43005189  0.10064496  1
  N  N54  1  0.22459233  0.53661804  0.84461573  1
  N  N55  1  0.10944917  0.43083311  0.59170163  1
  N  N56  1  0.87543690  0.56418808  0.34683852  1
  N  N57  1  0.75836735  0.42542730  0.10378291  1
  N  N58  1  0.55083944  0.54944598  0.84632611  1
  N  N59  1  0.44680385  0.42977507  0.59023634  1
  N  N60  1  0.21422350  0.90456339  0.32640059  1
  N  N61  1  0.10015903  0.75498974  0.09389384  1
  N  N62  1  0.88586416  0.86783482  0.83635026  1
  N  N63  1  0.77697741  0.75956325  0.56630767  1
  N  N64  1  0.58430261  0.85810703  0.33194036  1
  N  N65  1  0.42370409  0.81485390  0.11670245  1
  N  N66  1  0.22304772  0.86948672  0.83631988  1
  N  N67  1  0.11373281  0.76040492  0.58147055  1
  N  N68  1  0.87657862  0.85780522  0.34632892  1
  N  N69  1  0.73982387  0.77482681  0.09382228  1
  N  N70  1  0.55140119  0.86912441  0.82938638  1
  N  N71  1  0.44633703  0.75478611  0.56966715  1
