# generated using pymatgen
data_Al31B5N36
_symmetry_space_group_name_H-M   'P 1'
_cell_length_a   9.15000640
_cell_length_b   9.24393507
_cell_length_c   10.15784983
_cell_angle_alpha   90.71862690
_cell_angle_beta   89.65397635
_cell_angle_gamma   60.21403879
_symmetry_Int_Tables_number   1
_chemical_formula_structural   Al31B5N36
_chemical_formula_sum   'Al31 B5 N36'
_cell_volume   745.53112961
_cell_formula_units_Z   1
loop_
 _symmetry_equiv_pos_site_id
 _symmetry_equiv_pos_as_xyz
  1  'x, y, z'
loop_
 _atom_site_type_symbol
 _atom_site_label
 _atom_site_symmetry_multiplicity
 _atom_site_fract_x
 _atom_site_fract_y
 _atom_site_fract_z
 _atom_site_occupancy
  B  B0  1  0.11465949  0.09850533  0.31072612  1
  B  B1  1  0.59122299  0.48329836  0.16583331  1
  B  B2  1  0.23548703  0.89303177  0.15720981  1
  B  B3  1  0.53574140  0.88756415  0.11038691  1
  B  B4  1  0.77459509  0.75711001  0.40316562  1
  Al  Al5  1  0.22654336  0.19900517  0.08099363  1
  Al  Al6  1  0.77987577  0.09081045  0.81911198  1
  Al  Al7  1  0.90036156  0.19112909  0.56347662  1
  Al  Al8  1  0.45777211  0.07740741  0.32252404  1
  Al  Al9  1  0.56286668  0.19673104  0.06793513  1
  Al  Al10  1  0.10601247  0.10084617  0.82165709  1
  Al  Al11  1  0.22070510  0.19964661  0.55849881  1
  Al  Al12  1  0.78724369  0.08436836  0.32030428  1
  Al  Al13  1  0.89683522  0.19448321  0.07913360  1
  Al  Al14  1  0.43855889  0.09656414  0.81276172  1
  Al  Al15  1  0.55676676  0.20270813  0.56854308  1
  Al  Al16  1  0.11067006  0.42953452  0.32693568  1
  Al  Al17  1  0.23361719  0.55021470  0.07573207  1
  Al  Al18  1  0.76198311  0.43625647  0.90082256  1
  Al  Al19  1  0.88933490  0.53406048  0.63935994  1
  Al  Al20  1  0.44689556  0.42064823  0.32151568  1
  Al  Al21  1  0.10902602  0.42569918  0.85624989  1
  Al  Al22  1  0.22321325  0.53522716  0.56648602  1
  Al  Al23  1  0.78694998  0.43106807  0.38900524  1
  Al  Al24  1  0.85647135  0.56740158  0.15088634  1
  Al  Al25  1  0.44064470  0.42234885  0.82063942  1
  Al  Al26  1  0.55761421  0.54084792  0.64297204  1
  Al  Al27  1  0.11118143  0.76668371  0.31535957  1
  Al  Al28  1  0.75946188  0.76448565  0.88838260  1
  Al  Al29  1  0.89319135  0.86724413  0.56468200  1
  Al  Al30  1  0.45429554  0.76165821  0.37912302  1
  Al  Al31  1  0.10608893  0.75508152  0.82152476  1
  Al  Al32  1  0.22981518  0.86411030  0.64111834  1
  Al  Al33  1  0.89242966  0.87484758  0.07191446  1
  Al  Al34  1  0.43263366  0.77114723  0.90291032  1
  Al  Al35  1  0.55699559  0.86344077  0.62014251  1
  N  N36  1  0.21519148  0.19160447  0.36650567  1
  N  N37  1  0.11375805  0.09250591  0.15030535  1
  N  N38  1  0.88833708  0.20218274  0.89068052  1
  N  N39  1  0.78110195  0.08937866  0.63049357  1
  N  N40  1  0.56022972  0.20378898  0.38128797  1
  N  N41  1  0.45686207  0.07810946  0.13163069  1
  N  N42  1  0.22278760  0.20089833  0.89287168  1
  N  N43  1  0.11123383  0.09646666  0.63326862  1
  N  N44  1  0.92300277  0.18517440  0.37117772  1
  N  N45  1  0.77944671  0.09193234  0.13516742  1
  N  N46  1  0.55454371  0.20184463  0.88142117  1
  N  N47  1  0.43963206  0.09770688  0.62388120  1
  N  N48  1  0.22649038  0.54349138  0.37717107  1
  N  N49  1  0.10767607  0.43708465  0.12610063  1
  N  N50  1  0.87951885  0.53942521  0.83400982  1
  N  N51  1  0.77556241  0.42526573  0.57488072  1
  N  N52  1  0.57063472  0.53273311  0.31047228  1
  N  N53  1  0.46624649  0.42401992  0.13038381  1
  N  N54  1  0.22266492  0.53957920  0.88966522  1
  N  N55  1  0.11594850  0.41960653  0.61164419  1
  N  N56  1  0.87380160  0.56953678  0.33739716  1
  N  N57  1  0.75266550  0.43829985  0.09551259  1
  N  N58  1  0.54942993  0.54733775  0.83390243  1
  N  N59  1  0.44253536  0.42179068  0.63158010  1
  N  N60  1  0.22927328  0.89292000  0.31654591  1
  N  N61  1  0.12424159  0.77637882  0.12800714  1
  N  N62  1  0.88650112  0.87227232  0.88382013  1
  N  N63  1  0.78150757  0.74656324  0.56574630  1
  N  N64  1  0.58928551  0.85694129  0.36300027  1
  N  N65  1  0.41677053  0.82116754  0.08892820  1
  N  N66  1  0.22205614  0.87046016  0.83121319  1
  N  N67  1  0.10736511  0.75259712  0.63144167  1
  N  N68  1  0.88633700  0.86180580  0.37716538  1
  N  N69  1  0.73018683  0.78335988  0.07854093  1
  N  N70  1  0.55068828  0.86491865  0.81541677  1
  N  N71  1  0.44200727  0.75027370  0.56634071  1
