# generated using pymatgen
data_Al31B5N36
_symmetry_space_group_name_H-M   'P 1'
_cell_length_a   9.15880357
_cell_length_b   9.22830214
_cell_length_c   9.78565651
_cell_angle_alpha   89.88545877
_cell_angle_beta   90.02248083
_cell_angle_gamma   60.27119486
_symmetry_Int_Tables_number   1
_chemical_formula_structural   Al31B5N36
_chemical_formula_sum   'Al31 B5 N36'
_cell_volume   718.22425716
_cell_formula_units_Z   1
loop_
 _symmetry_equiv_pos_site_id
 _symmetry_equiv_pos_as_xyz
  1  'x, y, z'
loop_
 _atom_site_type_symbol
 _atom_site_label
 _atom_site_symmetry_multiplicity
 _atom_site_fract_x
 _atom_site_fract_y
 _atom_site_fract_z
 _atom_site_occupancy
  B  B0  1  0.11628232  0.08781600  0.30579853  1
  B  B1  1  0.58107411  0.48875307  0.04799663  1
  B  B2  1  0.22871645  0.87946142  0.06521341  1
  B  B3  1  0.53479595  0.88396580  0.06262057  1
  B  B4  1  0.76792380  0.76426924  0.30507959  1
  Al  Al5  1  0.22320566  0.19950622  0.06972719  1
  Al  Al6  1  0.78160966  0.09050502  0.81143354  1
  Al  Al7  1  0.89568792  0.20218528  0.55757121  1
  Al  Al8  1  0.44947261  0.08277812  0.30885028  1
  Al  Al9  1  0.56104775  0.19640034  0.06041581  1
  Al  Al10  1  0.11380642  0.09215747  0.81950388  1
  Al  Al11  1  0.22022528  0.20154373  0.55751411  1
  Al  Al12  1  0.78170778  0.08762870  0.31344255  1
  Al  Al13  1  0.89432046  0.19691917  0.06873406  1
  Al  Al14  1  0.44412506  0.08982830  0.81743418  1
  Al  Al15  1  0.55480692  0.20468179  0.56222904  1
  Al  Al16  1  0.10538922  0.43088107  0.31119855  1
  Al  Al17  1  0.22919854  0.54689879  0.06168782  1
  Al  Al18  1  0.78136993  0.42419710  0.81563327  1
  Al  Al19  1  0.88417013  0.54477215  0.55762058  1
  Al  Al20  1  0.44841542  0.43023721  0.30828704  1
  Al  Al21  1  0.10975518  0.42824465  0.81375358  1
  Al  Al22  1  0.22309402  0.54019923  0.56205192  1
  Al  Al23  1  0.77338791  0.43194990  0.30936453  1
  Al  Al24  1  0.87353901  0.54908083  0.06848308  1
  Al  Al25  1  0.44575692  0.42474524  0.81501111  1
  Al  Al26  1  0.55305180  0.54372354  0.56430857  1
  Al  Al27  1  0.11142395  0.76836849  0.30967277  1
  Al  Al28  1  0.77485169  0.76257506  0.82123166  1
  Al  Al29  1  0.88776143  0.86708846  0.55792100  1
  Al  Al30  1  0.44373639  0.77012897  0.29748874  1
  Al  Al31  1  0.11211978  0.76529708  0.81943800  1
  Al  Al32  1  0.22454160  0.87564701  0.56331820  1
  Al  Al33  1  0.88944873  0.86926890  0.07127612  1
  Al  Al34  1  0.44589568  0.75829418  0.84473174  1
  Al  Al35  1  0.55850514  0.86656300  0.56286925  1
  N  N36  1  0.21138889  0.19248218  0.35982472  1
  N  N37  1  0.11869917  0.07769615  0.13646245  1
  N  N38  1  0.89077776  0.20309322  0.87567918  1
  N  N39  1  0.78120090  0.09111338  0.61577239  1
  N  N40  1  0.55293534  0.20717281  0.36806870  1
  N  N41  1  0.45452408  0.07572903  0.11567375  1
  N  N42  1  0.22114907  0.20726041  0.87643020  1
  N  N43  1  0.11249452  0.09253340  0.62861996  1
  N  N44  1  0.91306926  0.19506760  0.36062129  1
  N  N45  1  0.77907269  0.09079682  0.12358771  1
  N  N46  1  0.55768631  0.20205005  0.86884291  1
  N  N47  1  0.44413069  0.09023656  0.62125435  1
  N  N48  1  0.22391693  0.54066511  0.36713296  1
  N  N49  1  0.11039737  0.43214145  0.11961261  1
  N  N50  1  0.88689816  0.54025984  0.87605781  1
  N  N51  1  0.77866738  0.42570504  0.62027931  1
  N  N52  1  0.55007672  0.54835652  0.37140788  1
  N  N53  1  0.46464312  0.43096081  0.11168823  1
  N  N54  1  0.22275810  0.54042919  0.87020505  1
  N  N55  1  0.11019733  0.42631457  0.61622120  1
  N  N56  1  0.87300924  0.56366534  0.35985678  1
  N  N57  1  0.75276379  0.43267553  0.11413171  1
  N  N58  1  0.56199911  0.52686452  0.89498972  1
  N  N59  1  0.44659253  0.42676829  0.62304859  1
  N  N60  1  0.21286282  0.89835686  0.36834505  1
  N  N61  1  0.13001467  0.77363357  0.11770578  1
  N  N62  1  0.88919484  0.87101454  0.87760479  1
  N  N63  1  0.77695777  0.76044539  0.62934694  1
  N  N64  1  0.57983675  0.85801192  0.36840003  1
  N  N65  1  0.42308027  0.80319621  0.10857953  1
  N  N66  1  0.21912407  0.87792429  0.89874954  1
  N  N67  1  0.11189846  0.76318355  0.62213801  1
  N  N68  1  0.87840582  0.85673937  0.36111435  1
  N  N69  1  0.75383534  0.77153486  0.13796684  1
  N  N70  1  0.55706149  0.87373519  0.89895584  1
  N  N71  1  0.44495505  0.75999144  0.63940125  1
