# generated using pymatgen
data_Al31B5N36
_symmetry_space_group_name_H-M   'P 1'
_cell_length_a   9.11648419
_cell_length_b   9.19390490
_cell_length_c   10.19636690
_cell_angle_alpha   89.69345017
_cell_angle_beta   89.98315452
_cell_angle_gamma   60.31329383
_symmetry_Int_Tables_number   1
_chemical_formula_structural   Al31B5N36
_chemical_formula_sum   'Al31 B5 N36'
_cell_volume   742.43437840
_cell_formula_units_Z   1
loop_
 _symmetry_equiv_pos_site_id
 _symmetry_equiv_pos_as_xyz
  1  'x, y, z'
loop_
 _atom_site_type_symbol
 _atom_site_label
 _atom_site_symmetry_multiplicity
 _atom_site_fract_x
 _atom_site_fract_y
 _atom_site_fract_z
 _atom_site_occupancy
  B  B0  1  0.11217573  0.09371408  0.36325653  1
  B  B1  1  0.58725327  0.47523761  0.05880657  1
  B  B2  1  0.22542563  0.89481164  0.11244744  1
  B  B3  1  0.53978205  0.88340601  0.11023914  1
  B  B4  1  0.77312923  0.76535539  0.36417232  1
  Al  Al5  1  0.22313611  0.20040642  0.07125353  1
  Al  Al6  1  0.78053540  0.08876646  0.81667147  1
  Al  Al7  1  0.89433543  0.20330801  0.57187293  1
  Al  Al8  1  0.45087930  0.08368361  0.32383224  1
  Al  Al9  1  0.56144134  0.19205726  0.06889083  1
  Al  Al10  1  0.11354137  0.09251591  0.83063044  1
  Al  Al11  1  0.22111576  0.20366001  0.56952783  1
  Al  Al12  1  0.78305888  0.08737343  0.32061219  1
  Al  Al13  1  0.89344630  0.19292985  0.06739765  1
  Al  Al14  1  0.44167594  0.09512629  0.81821977  1
  Al  Al15  1  0.55585799  0.20582336  0.56766204  1
  Al  Al16  1  0.10372868  0.43486008  0.31823168  1
  Al  Al17  1  0.22882567  0.54917116  0.06900572  1
  Al  Al18  1  0.77850901  0.42441252  0.82273360  1
  Al  Al19  1  0.88744830  0.54166146  0.57163328  1
  Al  Al20  1  0.45022939  0.42905901  0.31280597  1
  Al  Al21  1  0.11290876  0.42466158  0.81838615  1
  Al  Al22  1  0.22529132  0.53833642  0.56651535  1
  Al  Al23  1  0.77526348  0.43463724  0.31461924  1
  Al  Al24  1  0.86612985  0.55153054  0.06591700  1
  Al  Al25  1  0.44660523  0.42435531  0.82528610  1
  Al  Al26  1  0.55935784  0.53106273  0.56721105  1
  Al  Al27  1  0.11288022  0.77119536  0.31892024  1
  Al  Al28  1  0.78072955  0.75670539  0.82887320  1
  Al  Al29  1  0.88994068  0.86771802  0.56807815  1
  Al  Al30  1  0.44280871  0.77496730  0.39151450  1
  Al  Al31  1  0.11075601  0.75380286  0.81879020  1
  Al  Al32  1  0.22955350  0.86915481  0.63760645  1
  Al  Al33  1  0.88279848  0.87183215  0.07039283  1
  Al  Al34  1  0.44285902  0.76421385  0.91264667  1
  Al  Al35  1  0.55647794  0.86562719  0.63471706  1
  N  N36  1  0.20815434  0.19519116  0.37739453  1
  N  N37  1  0.11923508  0.07478038  0.10479298  1
  N  N38  1  0.88641644  0.20267267  0.88116371  1
  N  N39  1  0.78046120  0.09093408  0.62705102  1
  N  N40  1  0.55557189  0.20821924  0.37921670  1
  N  N41  1  0.45143680  0.07771661  0.13436272  1
  N  N42  1  0.22479309  0.20680718  0.88494271  1
  N  N43  1  0.10875937  0.10196456  0.64038303  1
  N  N44  1  0.91461050  0.19688196  0.37805727  1
  N  N45  1  0.77980281  0.08867865  0.13581010  1
  N  N46  1  0.55862267  0.19884593  0.88274565  1
  N  N47  1  0.44187515  0.10038415  0.62846030  1
  N  N48  1  0.22619647  0.54075853  0.37586726  1
  N  N49  1  0.10386636  0.43693241  0.13113773  1
  N  N50  1  0.89172901  0.53250372  0.88129583  1
  N  N51  1  0.77766604  0.42643733  0.63393177  1
  N  N52  1  0.55842556  0.53547609  0.37999510  1
  N  N53  1  0.46519540  0.42674846  0.12206915  1
  N  N54  1  0.22371941  0.53583548  0.88375442  1
  N  N55  1  0.11327270  0.42594315  0.62734383  1
  N  N56  1  0.87320571  0.56788944  0.37728315  1
  N  N57  1  0.75657193  0.42733640  0.12419837  1
  N  N58  1  0.56489189  0.52096308  0.91301730  1
  N  N59  1  0.44724319  0.42616522  0.63711504  1
  N  N60  1  0.20312905  0.91053427  0.36839570  1
  N  N61  1  0.13203277  0.77762033  0.12864918  1
  N  N62  1  0.89258418  0.87005052  0.88413451  1
  N  N63  1  0.78954351  0.75427864  0.63812171  1
  N  N64  1  0.59011745  0.85981512  0.37032412  1
  N  N65  1  0.41789934  0.81404969  0.09551180  1
  N  N66  1  0.23488634  0.85962173  0.83130457  1
  N  N67  1  0.10949477  0.75510636  0.62861414  1
  N  N68  1  0.87955964  0.85627104  0.37606909  1
  N  N69  1  0.72851327  0.78342609  0.09456944  1
  N  N70  1  0.54901348  0.86425636  0.82722896  1
  N  N71  1  0.44508496  0.75964053  0.57825075  1
