# generated using pymatgen
data_Al31B5N36
_symmetry_space_group_name_H-M   'P 1'
_cell_length_a   9.16094219
_cell_length_b   9.24123703
_cell_length_c   9.76848602
_cell_angle_alpha   90.22937335
_cell_angle_beta   90.01697238
_cell_angle_gamma   60.22577031
_symmetry_Int_Tables_number   1
_chemical_formula_structural   Al31B5N36
_chemical_formula_sum   'Al31 B5 N36'
_cell_volume   717.80647932
_cell_formula_units_Z   1
loop_
 _symmetry_equiv_pos_site_id
 _symmetry_equiv_pos_as_xyz
  1  'x, y, z'
loop_
 _atom_site_type_symbol
 _atom_site_label
 _atom_site_symmetry_multiplicity
 _atom_site_fract_x
 _atom_site_fract_y
 _atom_site_fract_z
 _atom_site_occupancy
  B  B0  1  0.11086159  0.10403554  0.38672389  1
  B  B1  1  0.58152481  0.49504524  0.15375598  1
  B  B2  1  0.22690219  0.90353179  0.14826373  1
  B  B3  1  0.55048664  0.88449244  0.14613346  1
  B  B4  1  0.77658159  0.77055655  0.38464119  1
  Al  Al5  1  0.22235251  0.20663159  0.14231659  1
  Al  Al6  1  0.77989410  0.10007162  0.88651948  1
  Al  Al7  1  0.89216387  0.21218764  0.63119396  1
  Al  Al8  1  0.44545209  0.09460927  0.38214437  1
  Al  Al9  1  0.56007108  0.20726867  0.13903816  1
  Al  Al10  1  0.11429882  0.09754533  0.88875286  1
  Al  Al11  1  0.22040604  0.21228609  0.63047545  1
  Al  Al12  1  0.78147229  0.09510183  0.38905972  1
  Al  Al13  1  0.89776321  0.20223418  0.14373265  1
  Al  Al14  1  0.44468924  0.09737727  0.89066763  1
  Al  Al15  1  0.55372734  0.21332555  0.63853187  1
  Al  Al16  1  0.10489561  0.44022137  0.38647342  1
  Al  Al17  1  0.22786798  0.55526612  0.13790643  1
  Al  Al18  1  0.77234559  0.43781570  0.89014032  1
  Al  Al19  1  0.88379628  0.55250368  0.63203039  1
  Al  Al20  1  0.44534966  0.43369429  0.38726172  1
  Al  Al21  1  0.10877758  0.43666806  0.88825172  1
  Al  Al22  1  0.22147784  0.54966999  0.63869798  1
  Al  Al23  1  0.78265888  0.43587337  0.38543171  1
  Al  Al24  1  0.86951124  0.56082252  0.14262647  1
  Al  Al25  1  0.44851804  0.43894716  0.89095598  1
  Al  Al26  1  0.55217529  0.55332595  0.63715313  1
  Al  Al27  1  0.10767560  0.77515261  0.37918012  1
  Al  Al28  1  0.76809582  0.77307266  0.88874516  1
  Al  Al29  1  0.88750210  0.87711887  0.63105347  1
  Al  Al30  1  0.44726639  0.76943386  0.35603524  1
  Al  Al31  1  0.11311203  0.77412158  0.89186554  1
  Al  Al32  1  0.22540240  0.87991998  0.62651565  1
  Al  Al33  1  0.88418380  0.87679935  0.13966696  1
  Al  Al34  1  0.43989270  0.77730001  0.90521899  1
  Al  Al35  1  0.55311844  0.87756105  0.62626523  1
  N  N36  1  0.20675154  0.20515763  0.33591423  1
  N  N37  1  0.12026669  0.08462250  0.08189499  1
  N  N38  1  0.89032385  0.21483056  0.82799706  1
  N  N39  1  0.77758336  0.10110569  0.58075097  1
  N  N40  1  0.55633833  0.21203246  0.33015840  1
  N  N41  1  0.45313738  0.08593867  0.08897062  1
  N  N42  1  0.22061235  0.21373580  0.82755373  1
  N  N43  1  0.11268121  0.09937802  0.55412810  1
  N  N44  1  0.91307120  0.20086165  0.33693846  1
  N  N45  1  0.78193498  0.09776491  0.08072753  1
  N  N46  1  0.55319226  0.21519575  0.83377176  1
  N  N47  1  0.44437407  0.10117471  0.57459812  1
  N  N48  1  0.22344934  0.54746065  0.32864627  1
  N  N49  1  0.10622585  0.43871587  0.08418418  1
  N  N50  1  0.88411243  0.55036000  0.82934471  1
  N  N51  1  0.77550080  0.43601282  0.57681077  1
  N  N52  1  0.56288926  0.53349260  0.30587736  1
  N  N53  1  0.46444980  0.44066156  0.08763127  1
  N  N54  1  0.22294100  0.54879089  0.83517282  1
  N  N55  1  0.10969655  0.43746216  0.57978569  1
  N  N56  1  0.87388381  0.57418405  0.33504463  1
  N  N57  1  0.75653455  0.43762244  0.09058390  1
  N  N58  1  0.55093429  0.55707156  0.83122357  1
  N  N59  1  0.44566936  0.43577122  0.57966334  1
  N  N60  1  0.20750127  0.90981107  0.31472332  1
  N  N61  1  0.12127607  0.78296913  0.08792292  1
  N  N62  1  0.88846608  0.87640162  0.82771313  1
  N  N63  1  0.77373101  0.77083681  0.55338891  1
  N  N64  1  0.57857033  0.87097141  0.31438730  1
  N  N65  1  0.42277880  0.81428875  0.10084462  1
  N  N66  1  0.22436212  0.88095209  0.82119358  1
  N  N67  1  0.11147826  0.76901286  0.57309732  1
  N  N68  1  0.87569546  0.86703079  0.33341620  1
  N  N69  1  0.74393334  0.78360947  0.08094306  1
  N  N70  1  0.55137704  0.88021209  0.82035816  1
  N  N71  1  0.44540573  0.76495119  0.55657353  1
