# generated using pymatgen
data_Al31B5N36
_symmetry_space_group_name_H-M   'P 1'
_cell_length_a   9.15915406
_cell_length_b   9.22768468
_cell_length_c   9.78611017
_cell_angle_alpha   89.87987389
_cell_angle_beta   90.01008512
_cell_angle_gamma   60.27406675
_symmetry_Int_Tables_number   1
_chemical_formula_structural   Al31B5N36
_chemical_formula_sum   'Al31 B5 N36'
_cell_volume   718.25760162
_cell_formula_units_Z   1
loop_
 _symmetry_equiv_pos_site_id
 _symmetry_equiv_pos_as_xyz
  1  'x, y, z'
loop_
 _atom_site_type_symbol
 _atom_site_label
 _atom_site_symmetry_multiplicity
 _atom_site_fract_x
 _atom_site_fract_y
 _atom_site_fract_z
 _atom_site_occupancy
  B  B0  1  0.11617249  0.08796604  0.29896032  1
  B  B1  1  0.58082849  0.48919367  0.04112647  1
  B  B2  1  0.22870602  0.87939332  0.05833948  1
  B  B3  1  0.53411020  0.88422919  0.05557323  1
  B  B4  1  0.76802251  0.76431842  0.29825482  1
  Al  Al5  1  0.22302830  0.19966549  0.06290884  1
  Al  Al6  1  0.78148295  0.09065453  0.80464030  1
  Al  Al7  1  0.89557462  0.20235090  0.55077680  1
  Al  Al8  1  0.44940768  0.08285229  0.30194860  1
  Al  Al9  1  0.56094997  0.19653680  0.05361329  1
  Al  Al10  1  0.11367143  0.09226858  0.81273164  1
  Al  Al11  1  0.22013902  0.20165007  0.55070635  1
  Al  Al12  1  0.78162228  0.08776720  0.30667645  1
  Al  Al13  1  0.89414665  0.19713716  0.06197114  1
  Al  Al14  1  0.44396097  0.09001234  0.81062766  1
  Al  Al15  1  0.55468901  0.20480864  0.55539463  1
  Al  Al16  1  0.10534003  0.43097833  0.30442942  1
  Al  Al17  1  0.22910501  0.54700921  0.05487458  1
  Al  Al18  1  0.78126390  0.42434146  0.80889046  1
  Al  Al19  1  0.88408546  0.54489293  0.55087286  1
  Al  Al20  1  0.44832468  0.43038406  0.30141225  1
  Al  Al21  1  0.10963814  0.42837513  0.80694297  1
  Al  Al22  1  0.22300329  0.54032201  0.55524723  1
  Al  Al23  1  0.77330311  0.43213690  0.30250576  1
  Al  Al24  1  0.87355255  0.54921314  0.06169837  1
  Al  Al25  1  0.44565055  0.42487745  0.80822119  1
  Al  Al26  1  0.55301622  0.54373990  0.55742138  1
  Al  Al27  1  0.11135132  0.76850275  0.30283286  1
  Al  Al28  1  0.77468229  0.76273879  0.81451269  1
  Al  Al29  1  0.88768385  0.86721073  0.55116759  1
  Al  Al30  1  0.44365732  0.77029156  0.29076459  1
  Al  Al31  1  0.11196872  0.76540827  0.81267244  1
  Al  Al32  1  0.22431955  0.87582880  0.55643529  1
  Al  Al33  1  0.88937681  0.86940752  0.06452784  1
  Al  Al34  1  0.44571418  0.75842655  0.83714309  1
  Al  Al35  1  0.55847964  0.86673460  0.55597243  1
  N  N36  1  0.21134867  0.19256190  0.35301956  1
  N  N37  1  0.11853231  0.07787981  0.12964704  1
  N  N38  1  0.89064883  0.20322087  0.86891546  1
  N  N39  1  0.78106487  0.09127134  0.60897305  1
  N  N40  1  0.55280654  0.20730166  0.36121644  1
  N  N41  1  0.45436597  0.07579115  0.10874640  1
  N  N42  1  0.22099359  0.20739820  0.86962052  1
  N  N43  1  0.11235882  0.09267056  0.62183450  1
  N  N44  1  0.91295186  0.19525624  0.35381867  1
  N  N45  1  0.77893007  0.09096773  0.11683084  1
  N  N46  1  0.55757092  0.20217479  0.86205281  1
  N  N47  1  0.44401409  0.09036632  0.61446095  1
  N  N48  1  0.22384941  0.54080326  0.36032832  1
  N  N49  1  0.11037763  0.43221188  0.11284715  1
  N  N50  1  0.88681068  0.54040123  0.86927622  1
  N  N51  1  0.77854462  0.42585103  0.61353456  1
  N  N52  1  0.55001010  0.54845994  0.36456845  1
  N  N53  1  0.46451485  0.43117533  0.10481697  1
  N  N54  1  0.22264651  0.54052974  0.86340602  1
  N  N55  1  0.11010377  0.42642837  0.60942732  1
  N  N56  1  0.87298563  0.56374680  0.35314018  1
  N  N57  1  0.75257927  0.43296099  0.10726671  1
  N  N58  1  0.56180319  0.52716799  0.88806640  1
  N  N59  1  0.44647806  0.42688991  0.61624815  1
  N  N60  1  0.21273214  0.89850730  0.36152223  1
  N  N61  1  0.12997052  0.77376920  0.11085112  1
  N  N62  1  0.88903725  0.87117580  0.87084908  1
  N  N63  1  0.77682700  0.76059117  0.62261028  1
  N  N64  1  0.57983291  0.85812549  0.36155587  1
  N  N65  1  0.42288328  0.80334647  0.10186843  1
  N  N66  1  0.21915006  0.87793187  0.89183973  1
  N  N67  1  0.11178818  0.76329910  0.61538231  1
  N  N68  1  0.87839504  0.85687310  0.35438471  1
  N  N69  1  0.75420167  0.77146977  0.13128094  1
  N  N70  1  0.55672976  0.87382017  0.89203961  1
  N  N71  1  0.44482077  0.76013312  0.63229233  1
