# generated using pymatgen
data_Al31B5N36
_symmetry_space_group_name_H-M   'P 1'
_cell_length_a   9.10583960
_cell_length_b   9.20485271
_cell_length_c   10.29003970
_cell_angle_alpha   90.30366565
_cell_angle_beta   89.71353949
_cell_angle_gamma   60.41908413
_symmetry_Int_Tables_number   1
_chemical_formula_structural   Al31B5N36
_chemical_formula_sum   'Al31 B5 N36'
_cell_volume   750.03293318
_cell_formula_units_Z   1
loop_
 _symmetry_equiv_pos_site_id
 _symmetry_equiv_pos_as_xyz
  1  'x, y, z'
loop_
 _atom_site_type_symbol
 _atom_site_label
 _atom_site_symmetry_multiplicity
 _atom_site_fract_x
 _atom_site_fract_y
 _atom_site_fract_z
 _atom_site_occupancy
  B  B0  1  0.11931055  0.08599422  0.34615842  1
  B  B1  1  0.58935591  0.48452679  0.14884486  1
  B  B2  1  0.22894044  0.89156102  0.09345257  1
  B  B3  1  0.54055650  0.88230145  0.08974233  1
  B  B4  1  0.77829240  0.76400212  0.35099297  1
  Al  Al5  1  0.22509836  0.19814454  0.05571612  1
  Al  Al6  1  0.78001709  0.08870211  0.80311260  1
  Al  Al7  1  0.89851645  0.19293219  0.55382829  1
  Al  Al8  1  0.45419837  0.07820176  0.30793606  1
  Al  Al9  1  0.56147349  0.19453747  0.05433728  1
  Al  Al10  1  0.10989692  0.09716326  0.81137542  1
  Al  Al11  1  0.22147087  0.20362101  0.55424236  1
  Al  Al12  1  0.78636658  0.08272147  0.30452641  1
  Al  Al13  1  0.89755246  0.18594951  0.05755097  1
  Al  Al14  1  0.43991008  0.09799863  0.80142003  1
  Al  Al15  1  0.55770031  0.20312740  0.55249501  1
  Al  Al16  1  0.10676646  0.43188309  0.30292238  1
  Al  Al17  1  0.23357080  0.54811254  0.05623511  1
  Al  Al18  1  0.76282863  0.42837221  0.88445680  1
  Al  Al19  1  0.89336028  0.54197987  0.55732043  1
  Al  Al20  1  0.44420975  0.42157224  0.30450586  1
  Al  Al21  1  0.10848998  0.42629781  0.80761850  1
  Al  Al22  1  0.22623309  0.53643997  0.55324182  1
  Al  Al23  1  0.78240916  0.42834824  0.36695856  1
  Al  Al24  1  0.87082876  0.55527742  0.06344205  1
  Al  Al25  1  0.44158681  0.42139077  0.80581763  1
  Al  Al26  1  0.56309543  0.53827250  0.62980695  1
  Al  Al27  1  0.11614999  0.76970729  0.30433814  1
  Al  Al28  1  0.77842154  0.75550787  0.81565800  1
  Al  Al29  1  0.89111911  0.86529032  0.55501675  1
  Al  Al30  1  0.45282650  0.76289841  0.37291702  1
  Al  Al31  1  0.11030859  0.75481433  0.80379488  1
  Al  Al32  1  0.23057382  0.86754684  0.61857889  1
  Al  Al33  1  0.88344488  0.87184956  0.05384807  1
  Al  Al34  1  0.43999469  0.76594558  0.88409444  1
  Al  Al35  1  0.55701581  0.86494417  0.61597609  1
  N  N36  1  0.21057125  0.19304552  0.36293583  1
  N  N37  1  0.12318380  0.07139904  0.09264004  1
  N  N38  1  0.88723385  0.19912688  0.87055251  1
  N  N39  1  0.78076513  0.08866840  0.61501835  1
  N  N40  1  0.55960913  0.20402177  0.36643662  1
  N  N41  1  0.45245778  0.07580966  0.11876534  1
  N  N42  1  0.22269947  0.20840618  0.87047431  1
  N  N43  1  0.10918654  0.10134812  0.62348687  1
  N  N44  1  0.92371194  0.18207648  0.36016625  1
  N  N45  1  0.77906017  0.08753335  0.12213550  1
  N  N46  1  0.55692341  0.20173986  0.86933830  1
  N  N47  1  0.44162577  0.09890821  0.61241251  1
  N  N48  1  0.22523228  0.54134118  0.36555408  1
  N  N49  1  0.10895029  0.43498516  0.11850697  1
  N  N50  1  0.88965847  0.53492470  0.87482176  1
  N  N51  1  0.77504110  0.42446389  0.55390022  1
  N  N52  1  0.56665021  0.53759119  0.29238810  1
  N  N53  1  0.46413364  0.42237249  0.11649105  1
  N  N54  1  0.22228622  0.53788437  0.87171997  1
  N  N55  1  0.11344347  0.42471901  0.61720558  1
  N  N56  1  0.88062818  0.57048540  0.36324943  1
  N  N57  1  0.75324062  0.42903524  0.08057649  1
  N  N58  1  0.55412410  0.54408350  0.81579803  1
  N  N59  1  0.44480387  0.42031218  0.61776266  1
  N  N60  1  0.21366060  0.90299714  0.35346687  1
  N  N61  1  0.13310673  0.77695542  0.11432439  1
  N  N62  1  0.89086270  0.87040152  0.86925167  1
  N  N63  1  0.79040039  0.75181023  0.62561056  1
  N  N64  1  0.59433842  0.85663464  0.35834635  1
  N  N65  1  0.42075230  0.81006443  0.06864656  1
  N  N66  1  0.22897188  0.86649970  0.81143949  1
  N  N67  1  0.10984633  0.75346206  0.61456959  1
  N  N68  1  0.88260489  0.85624422  0.36336197  1
  N  N69  1  0.72925611  0.78553796  0.08183746  1
  N  N70  1  0.54718859  0.87009194  0.80877524  1
  N  N71  1  0.45124045  0.74778788  0.55714755  1
