# generated using pymatgen
data_Al31B5N36
_symmetry_space_group_name_H-M   'P 1'
_cell_length_a   9.11648935
_cell_length_b   9.19390691
_cell_length_c   10.19636127
_cell_angle_alpha   89.69363215
_cell_angle_beta   89.98318012
_cell_angle_gamma   60.31321603
_symmetry_Int_Tables_number   1
_chemical_formula_structural   Al31B5N36
_chemical_formula_sum   'Al31 B5 N36'
_cell_volume   742.43399147
_cell_formula_units_Z   1
loop_
 _symmetry_equiv_pos_site_id
 _symmetry_equiv_pos_as_xyz
  1  'x, y, z'
loop_
 _atom_site_type_symbol
 _atom_site_label
 _atom_site_symmetry_multiplicity
 _atom_site_fract_x
 _atom_site_fract_y
 _atom_site_fract_z
 _atom_site_occupancy
  B  B0  1  0.11200978  0.09389029  0.36259428  1
  B  B1  1  0.58708671  0.47541717  0.05814421  1
  B  B2  1  0.22526003  0.89499054  0.11178862  1
  B  B3  1  0.53961666  0.88358430  0.10957850  1
  B  B4  1  0.77296296  0.76553241  0.36351157  1
  Al  Al5  1  0.22297005  0.20058470  0.07059289  1
  Al  Al6  1  0.78036997  0.08894434  0.81601194  1
  Al  Al7  1  0.89416878  0.20348494  0.57121063  1
  Al  Al8  1  0.45071304  0.08386060  0.32317198  1
  Al  Al9  1  0.56127519  0.19223571  0.06822967  1
  Al  Al10  1  0.11337517  0.09269397  0.82996773  1
  Al  Al11  1  0.22094966  0.20383696  0.56886671  1
  Al  Al12  1  0.78289241  0.08754998  0.31995053  1
  Al  Al13  1  0.89328105  0.19310823  0.06673861  1
  Al  Al14  1  0.44151002  0.09530397  0.81755992  1
  Al  Al15  1  0.55569200  0.20600018  0.56700235  1
  Al  Al16  1  0.10356293  0.43503688  0.31757057  1
  Al  Al17  1  0.22865937  0.54935004  0.06834445  1
  Al  Al18  1  0.77834363  0.42458979  0.82207325  1
  Al  Al19  1  0.88728239  0.54183777  0.57097200  1
  Al  Al20  1  0.45006336  0.42923552  0.31214441  1
  Al  Al21  1  0.11274263  0.42483921  0.81772636  1
  Al  Al22  1  0.22512556  0.53851252  0.56585568  1
  Al  Al23  1  0.77509753  0.43481383  0.31395793  1
  Al  Al24  1  0.86596394  0.55170922  0.06525722  1
  Al  Al25  1  0.44643938  0.42453312  0.82462612  1
  Al  Al26  1  0.55919182  0.53123935  0.56655095  1
  Al  Al27  1  0.11271393  0.77137204  0.31826030  1
  Al  Al28  1  0.78056395  0.75688262  0.82821184  1
  Al  Al29  1  0.88977418  0.86789507  0.56741832  1
  Al  Al30  1  0.44264351  0.77514306  0.39085311  1
  Al  Al31  1  0.11059052  0.75398074  0.81812927  1
  Al  Al32  1  0.22938732  0.86933162  0.63694431  1
  Al  Al33  1  0.88263301  0.87201022  0.06973104  1
  Al  Al34  1  0.44269225  0.76439268  0.91198558  1
  Al  Al35  1  0.55631123  0.86580417  0.63405755  1
  N  N36  1  0.20798813  0.19536780  0.37673268  1
  N  N37  1  0.11906925  0.07495976  0.10413678  1
  N  N38  1  0.88625155  0.20285001  0.88050423  1
  N  N39  1  0.78029523  0.09111132  0.62639089  1
  N  N40  1  0.55540568  0.20839604  0.37855585  1
  N  N41  1  0.45127093  0.07789505  0.13370130  1
  N  N42  1  0.22462672  0.20698447  0.88428200  1
  N  N43  1  0.10859285  0.10214173  0.63972078  1
  N  N44  1  0.91444425  0.19705846  0.37739460  1
  N  N45  1  0.77963670  0.08885705  0.13514838  1
  N  N46  1  0.55845671  0.19902376  0.88208467  1
  N  N47  1  0.44170874  0.10056139  0.62780010  1
  N  N48  1  0.22603064  0.54093499  0.37520647  1
  N  N49  1  0.10370058  0.43711092  0.13047607  1
  N  N50  1  0.89156290  0.53268167  0.88063560  1
  N  N51  1  0.77750011  0.42661409  0.63327085  1
  N  N52  1  0.55826020  0.53565138  0.37933429  1
  N  N53  1  0.46502934  0.42692728  0.12140643  1
  N  N54  1  0.22355322  0.53601361  0.88309327  1
  N  N55  1  0.11310651  0.42611998  0.62668365  1
  N  N56  1  0.87303974  0.56806604  0.37662159  1
  N  N57  1  0.75640527  0.42751553  0.12353630  1
  N  N58  1  0.56472552  0.52114204  0.91235505  1
  N  N59  1  0.44707724  0.42634238  0.63645488  1
  N  N60  1  0.20296313  0.91071023  0.36773606  1
  N  N61  1  0.13186647  0.77779921  0.12798836  1
  N  N62  1  0.89241849  0.87022793  0.88347288  1
  N  N63  1  0.78937708  0.75445539  0.63746059  1
  N  N64  1  0.58995145  0.85999173  0.36966252  1
  N  N65  1  0.41773360  0.81422803  0.09485116  1
  N  N66  1  0.23472023  0.85980004  0.83064291  1
  N  N67  1  0.10932858  0.75528310  0.62795342  1
  N  N68  1  0.87939311  0.85644814  0.37540815  1
  N  N69  1  0.72834799  0.78360466  0.09390875  1
  N  N70  1  0.54884776  0.86443421  0.82656889  1
  N  N71  1  0.44491950  0.75981709  0.57758957  1
