# generated using pymatgen
data_Al31B5N36
_symmetry_space_group_name_H-M   'P 1'
_cell_length_a   9.11301127
_cell_length_b   9.21916366
_cell_length_c   10.21066939
_cell_angle_alpha   90.28013418
_cell_angle_beta   89.70447278
_cell_angle_gamma   60.34481136
_symmetry_Int_Tables_number   1
_chemical_formula_structural   Al31B5N36
_chemical_formula_sum   'Al31 B5 N36'
_cell_volume   745.44411953
_cell_formula_units_Z   1
loop_
 _symmetry_equiv_pos_site_id
 _symmetry_equiv_pos_as_xyz
  1  'x, y, z'
loop_
 _atom_site_type_symbol
 _atom_site_label
 _atom_site_symmetry_multiplicity
 _atom_site_fract_x
 _atom_site_fract_y
 _atom_site_fract_z
 _atom_site_occupancy
  B  B0  1  0.11706064  0.08803967  0.31085947  1
  B  B1  1  0.58944978  0.48347352  0.15534035  1
  B  B2  1  0.23205564  0.88859161  0.11575140  1
  B  B3  1  0.53947671  0.88633658  0.09519945  1
  B  B4  1  0.77680474  0.76493985  0.35557272  1
  Al  Al5  1  0.22417961  0.20094550  0.06760325  1
  Al  Al6  1  0.78216195  0.08812672  0.80937129  1
  Al  Al7  1  0.90075993  0.19060129  0.55107213  1
  Al  Al8  1  0.45331875  0.08078257  0.31367119  1
  Al  Al9  1  0.56198743  0.19577488  0.05873057  1
  Al  Al10  1  0.10988550  0.09690230  0.81105201  1
  Al  Al11  1  0.22043493  0.20215998  0.55251691  1
  Al  Al12  1  0.78420115  0.08396035  0.30984867  1
  Al  Al13  1  0.89981760  0.18698654  0.07127690  1
  Al  Al14  1  0.43858618  0.09730406  0.80777360  1
  Al  Al15  1  0.55761340  0.20280403  0.55883398  1
  Al  Al16  1  0.10689367  0.43350830  0.30806826  1
  Al  Al17  1  0.23350930  0.54987397  0.06113899  1
  Al  Al18  1  0.76460783  0.42570784  0.89135786  1
  Al  Al19  1  0.89293146  0.54109554  0.56225056  1
  Al  Al20  1  0.44348745  0.42259111  0.31100929  1
  Al  Al21  1  0.10847965  0.42407786  0.81384949  1
  Al  Al22  1  0.22568116  0.53517960  0.55885335  1
  Al  Al23  1  0.78168759  0.42894041  0.36957480  1
  Al  Al24  1  0.86986056  0.55699102  0.06950673  1
  Al  Al25  1  0.44178157  0.42117350  0.81077680  1
  Al  Al26  1  0.56413250  0.53724678  0.63435342  1
  Al  Al27  1  0.11560948  0.76965146  0.31140390  1
  Al  Al28  1  0.77739694  0.75493648  0.82107418  1
  Al  Al29  1  0.88985680  0.86534801  0.56030328  1
  Al  Al30  1  0.45078613  0.76442389  0.37655300  1
  Al  Al31  1  0.11019562  0.75437272  0.80810692  1
  Al  Al32  1  0.22947177  0.86715797  0.61872422  1
  Al  Al33  1  0.88241684  0.87265216  0.05873880  1
  Al  Al34  1  0.43785954  0.76628122  0.88970563  1
  Al  Al35  1  0.55597788  0.86514480  0.61993136  1
  N  N36  1  0.21100047  0.19696832  0.36108538  1
  N  N37  1  0.12156043  0.08027325  0.14097233  1
  N  N38  1  0.89326548  0.19437724  0.88266488  1
  N  N39  1  0.78208545  0.08906466  0.61988466  1
  N  N40  1  0.55877376  0.20505691  0.37190700  1
  N  N41  1  0.45362451  0.07771229  0.12303162  1
  N  N42  1  0.22060850  0.20510422  0.88061816  1
  N  N43  1  0.10919371  0.10051191  0.62484703  1
  N  N44  1  0.91937231  0.18484354  0.35861909  1
  N  N45  1  0.77911117  0.08738449  0.12643960  1
  N  N46  1  0.55726764  0.20122388  0.87314137  1
  N  N47  1  0.43957292  0.09938953  0.61718297  1
  N  N48  1  0.22440101  0.54243922  0.37055972  1
  N  N49  1  0.10772163  0.43910679  0.12284019  1
  N  N50  1  0.88914403  0.53403901  0.87997791  1
  N  N51  1  0.77605681  0.42278057  0.55823804  1
  N  N52  1  0.56446157  0.53934576  0.29771324  1
  N  N53  1  0.46427175  0.42300887  0.12097331  1
  N  N54  1  0.22209692  0.53692894  0.87598312  1
  N  N55  1  0.11372426  0.42231578  0.62186282  1
  N  N56  1  0.87926023  0.57172414  0.36679316  1
  N  N57  1  0.75374041  0.42954874  0.08803031  1
  N  N58  1  0.55512018  0.54259695  0.82256951  1
  N  N59  1  0.44481402  0.42056306  0.62236119  1
  N  N60  1  0.21499860  0.90107883  0.35205593  1
  N  N61  1  0.13329905  0.77970711  0.11907838  1
  N  N62  1  0.89072504  0.86911526  0.87373862  1
  N  N63  1  0.78954904  0.75138732  0.63041349  1
  N  N64  1  0.59270367  0.85819080  0.36331572  1
  N  N65  1  0.41505459  0.81767559  0.07502787  1
  N  N66  1  0.22729943  0.86709470  0.81633877  1
  N  N67  1  0.10930211  0.75281539  0.61834739  1
  N  N68  1  0.88111260  0.85686435  0.36778546  1
  N  N69  1  0.72760421  0.78689350  0.08654747  1
  N  N70  1  0.54610023  0.86970973  0.81494675  1
  N  N71  1  0.45156674  0.74677394  0.56190736  1
