# generated using pymatgen
data_Al31B5N36
_symmetry_space_group_name_H-M   'P 1'
_cell_length_a   9.14057098
_cell_length_b   9.13604141
_cell_length_c   10.25382427
_cell_angle_alpha   89.86103909
_cell_angle_beta   90.02586508
_cell_angle_gamma   60.04059917
_symmetry_Int_Tables_number   1
_chemical_formula_structural   Al31B5N36
_chemical_formula_sum   'Al31 B5 N36'
_cell_volume   741.86235952
_cell_formula_units_Z   1
loop_
 _symmetry_equiv_pos_site_id
 _symmetry_equiv_pos_as_xyz
  1  'x, y, z'
loop_
 _atom_site_type_symbol
 _atom_site_label
 _atom_site_symmetry_multiplicity
 _atom_site_fract_x
 _atom_site_fract_y
 _atom_site_fract_z
 _atom_site_occupancy
  B  B0  1  0.11447830  0.08946085  0.35679482  1
  B  B1  1  0.55755886  0.53746901  0.08038563  1
  B  B2  1  0.22154089  0.87551259  0.10304438  1
  B  B3  1  0.55923894  0.86523695  0.10210665  1
  B  B4  1  0.77531424  0.76243477  0.35799535  1
  Al  Al5  1  0.22966671  0.18796566  0.06123031  1
  Al  Al6  1  0.77844028  0.09421581  0.81001693  1
  Al  Al7  1  0.89516360  0.20230355  0.56209456  1
  Al  Al8  1  0.45266357  0.07756279  0.31250313  1
  Al  Al9  1  0.56046354  0.20154760  0.06200265  1
  Al  Al10  1  0.11048259  0.09674328  0.82205644  1
  Al  Al11  1  0.22222703  0.20228084  0.56193343  1
  Al  Al12  1  0.78248288  0.08744557  0.31200197  1
  Al  Al13  1  0.89110483  0.19913169  0.06047348  1
  Al  Al14  1  0.44131983  0.10094100  0.81146175  1
  Al  Al15  1  0.55511216  0.20446738  0.55721664  1
  Al  Al16  1  0.10629956  0.42971522  0.31055278  1
  Al  Al17  1  0.22900035  0.54413152  0.06140741  1
  Al  Al18  1  0.77677721  0.42801736  0.81110117  1
  Al  Al19  1  0.88934927  0.54105692  0.56387701  1
  Al  Al20  1  0.44803030  0.43072472  0.30934567  1
  Al  Al21  1  0.11309762  0.42550067  0.81051083  1
  Al  Al22  1  0.22383343  0.53774561  0.55846462  1
  Al  Al23  1  0.77548969  0.43664296  0.31136049  1
  Al  Al24  1  0.87436428  0.54488304  0.05835363  1
  Al  Al25  1  0.44602906  0.42884181  0.81341474  1
  Al  Al26  1  0.55971752  0.53040132  0.56693162  1
  Al  Al27  1  0.11097152  0.76886826  0.31392588  1
  Al  Al28  1  0.78227548  0.75745161  0.82217102  1
  Al  Al29  1  0.88872797  0.86872431  0.56191317  1
  Al  Al30  1  0.44426464  0.77210474  0.38990404  1
  Al  Al31  1  0.10952385  0.75504167  0.81142945  1
  Al  Al32  1  0.22830026  0.86944822  0.63227809  1
  Al  Al33  1  0.88368466  0.87446490  0.06136736  1
  Al  Al34  1  0.44384659  0.76247303  0.89089768  1
  Al  Al35  1  0.55651002  0.86650587  0.63227133  1
  N  N36  1  0.21096560  0.19007234  0.36970744  1
  N  N37  1  0.12871108  0.05745211  0.09016759  1
  N  N38  1  0.88571040  0.20679060  0.87537671  1
  N  N39  1  0.77866021  0.09366259  0.61983635  1
  N  N40  1  0.55432742  0.20500246  0.36862697  1
  N  N41  1  0.45829699  0.06245502  0.12216241  1
  N  N42  1  0.22483336  0.20679558  0.87717488  1
  N  N43  1  0.10792351  0.10300242  0.63202731  1
  N  N44  1  0.91698084  0.19383259  0.36906601  1
  N  N45  1  0.77922092  0.09256783  0.12839220  1
  N  N46  1  0.55702319  0.20421537  0.87715667  1
  N  N47  1  0.44164064  0.10124847  0.62204227  1
  N  N48  1  0.22406748  0.53912991  0.36983914  1
  N  N49  1  0.11088954  0.42546432  0.12413069  1
  N  N50  1  0.89342897  0.53216456  0.87430861  1
  N  N51  1  0.78189391  0.42501520  0.62281731  1
  N  N52  1  0.55991165  0.53215607  0.37920298  1
  N  N53  1  0.45885275  0.44236348  0.12006949  1
  N  N54  1  0.22344593  0.53620069  0.87690817  1
  N  N55  1  0.11351867  0.42564544  0.62068335  1
  N  N56  1  0.87733118  0.56553744  0.37169443  1
  N  N57  1  0.75070112  0.44126404  0.12249579  1
  N  N58  1  0.55977930  0.53332495  0.87508659  1
  N  N59  1  0.44429183  0.42458662  0.62566845  1
  N  N60  1  0.20592432  0.90509043  0.35965980  1
  N  N61  1  0.12706744  0.77296648  0.12251023  1
  N  N62  1  0.89168938  0.87330766  0.87675198  1
  N  N63  1  0.78904083  0.75494622  0.63215371  1
  N  N64  1  0.59217846  0.85408658  0.36101564  1
  N  N65  1  0.44400143  0.76354535  0.08721750  1
  N  N66  1  0.23023584  0.86411786  0.82353852  1
  N  N67  1  0.10830792  0.75584060  0.62185652  1
  N  N68  1  0.87860922  0.85654054  0.37017168  1
  N  N69  1  0.74230910  0.77655014  0.08939616  1
  N  N70  1  0.55055179  0.87010774  0.82335760  1
  N  N71  1  0.44443913  0.76201988  0.57463816  1
