# generated using pymatgen
data_Al31B5N36
_symmetry_space_group_name_H-M   'P 1'
_cell_length_a   9.15304443
_cell_length_b   9.19286416
_cell_length_c   10.30837044
_cell_angle_alpha   91.40071976
_cell_angle_beta   90.68482518
_cell_angle_gamma   60.23212404
_symmetry_Int_Tables_number   1
_chemical_formula_structural   Al31B5N36
_chemical_formula_sum   'Al31 B5 N36'
_cell_volume   752.69380878
_cell_formula_units_Z   1
loop_
 _symmetry_equiv_pos_site_id
 _symmetry_equiv_pos_as_xyz
  1  'x, y, z'
loop_
 _atom_site_type_symbol
 _atom_site_label
 _atom_site_symmetry_multiplicity
 _atom_site_fract_x
 _atom_site_fract_y
 _atom_site_fract_z
 _atom_site_occupancy
  B  B0  1  0.11616917  0.08628619  0.35024222  1
  B  B1  1  0.58350784  0.48147348  0.15926106  1
  B  B2  1  0.22949896  0.88883178  0.09402903  1
  B  B3  1  0.53830341  0.88213060  0.09789781  1
  B  B4  1  0.77188911  0.76401644  0.35781164  1
  Al  Al5  1  0.22824397  0.19429674  0.06978303  1
  Al  Al6  1  0.77621776  0.08901985  0.82136148  1
  Al  Al7  1  0.88721002  0.20619896  0.62037357  1
  Al  Al8  1  0.45151573  0.07783388  0.31812543  1
  Al  Al9  1  0.56221262  0.19066911  0.07174107  1
  Al  Al10  1  0.11296762  0.09849543  0.82924415  1
  Al  Al11  1  0.22268540  0.19669940  0.55992220  1
  Al  Al12  1  0.78452628  0.08051300  0.31950401  1
  Al  Al13  1  0.89880009  0.19343742  0.11539937  1
  Al  Al14  1  0.43668956  0.10588302  0.81217200  1
  Al  Al15  1  0.55750171  0.19885573  0.56323332  1
  Al  Al16  1  0.10268283  0.43949283  0.38236622  1
  Al  Al17  1  0.22995429  0.55391267  0.14338126  1
  Al  Al18  1  0.77114220  0.43025321  0.89987874  1
  Al  Al19  1  0.89803975  0.52422775  0.64296953  1
  Al  Al20  1  0.44406630  0.43187231  0.38710748  1
  Al  Al21  1  0.10626859  0.43823513  0.89760752  1
  Al  Al22  1  0.22307572  0.53763829  0.64020804  1
  Al  Al23  1  0.78614348  0.42577010  0.38427384  1
  Al  Al24  1  0.86106203  0.56219588  0.14260007  1
  Al  Al25  1  0.44788993  0.43484875  0.89572104  1
  Al  Al26  1  0.55592550  0.53930320  0.64190944  1
  Al  Al27  1  0.11452278  0.76680970  0.38977129  1
  Al  Al28  1  0.77558505  0.76117677  0.82913618  1
  Al  Al29  1  0.88259572  0.86577654  0.56987771  1
  Al  Al30  1  0.44775523  0.76368807  0.38258826  1
  Al  Al31  1  0.12334146  0.76159970  0.88930975  1
  Al  Al32  1  0.22714846  0.86605454  0.63429559  1
  Al  Al33  1  0.87845549  0.87185279  0.06590260  1
  Al  Al34  1  0.44416431  0.76872425  0.89108283  1
  Al  Al35  1  0.55578887  0.86639654  0.62755786  1
  N  N36  1  0.21216394  0.18680498  0.36913199  1
  N  N37  1  0.12396798  0.06998075  0.09256751  1
  N  N38  1  0.88447181  0.20686866  0.85755605  1
  N  N39  1  0.77441708  0.08816272  0.63245737  1
  N  N40  1  0.55962626  0.19738210  0.37688827  1
  N  N41  1  0.45321500  0.07465657  0.13113596  1
  N  N42  1  0.22725847  0.20674822  0.88623733  1
  N  N43  1  0.11318395  0.10107226  0.63705490  1
  N  N44  1  0.92293396  0.18779783  0.34228937  1
  N  N45  1  0.77784402  0.08551776  0.13673274  1
  N  N46  1  0.55712193  0.20041647  0.88713720  1
  N  N47  1  0.43829074  0.10358313  0.62537912  1
  N  N48  1  0.22404520  0.54318927  0.32512942  1
  N  N49  1  0.09890169  0.44845818  0.08616270  1
  N  N50  1  0.89188868  0.52547752  0.83144996  1
  N  N51  1  0.77573886  0.42690833  0.57023832  1
  N  N52  1  0.56393335  0.52587163  0.30510589  1
  N  N53  1  0.46380261  0.43463235  0.09109560  1
  N  N54  1  0.22601530  0.53613803  0.82950247  1
  N  N55  1  0.11060390  0.43100202  0.56873764  1
  N  N56  1  0.87186290  0.57018273  0.33108531  1
  N  N57  1  0.75352645  0.43206182  0.09462945  1
  N  N58  1  0.55585385  0.54171878  0.82864136  1
  N  N59  1  0.44335397  0.43311434  0.57454018  1
  N  N60  1  0.21021503  0.90221018  0.35482499  1
  N  N61  1  0.13952759  0.77583831  0.07914436  1
  N  N62  1  0.89014589  0.87072943  0.88304410  1
  N  N63  1  0.78740132  0.75340636  0.63603142  1
  N  N64  1  0.58904485  0.85419124  0.36574855  1
  N  N65  1  0.42131140  0.81082881  0.07444850  1
  N  N66  1  0.22918058  0.86417161  0.81993495  1
  N  N67  1  0.11501992  0.75654620  0.57584675  1
  N  N68  1  0.87345517  0.85580941  0.37728471  1
  N  N69  1  0.72772101  0.78187401  0.08432652  1
  N  N70  1  0.54530951  0.87547201  0.81881222  1
  N  N71  1  0.44751346  0.75168528  0.56916023  1
