# generated using pymatgen
data_Al31B5N36
_symmetry_space_group_name_H-M   'P 1'
_cell_length_a   9.10584011
_cell_length_b   9.20485318
_cell_length_c   10.29004016
_cell_angle_alpha   90.30369996
_cell_angle_beta   89.71354185
_cell_angle_gamma   60.41905691
_symmetry_Int_Tables_number   1
_chemical_formula_structural   Al31B5N36
_chemical_formula_sum   'Al31 B5 N36'
_cell_volume   750.03283957
_cell_formula_units_Z   1
loop_
 _symmetry_equiv_pos_site_id
 _symmetry_equiv_pos_as_xyz
  1  'x, y, z'
loop_
 _atom_site_type_symbol
 _atom_site_label
 _atom_site_symmetry_multiplicity
 _atom_site_fract_x
 _atom_site_fract_y
 _atom_site_fract_z
 _atom_site_occupancy
  B  B0  1  0.11931863  0.08597638  0.34600390  1
  B  B1  1  0.58936409  0.48450902  0.14869044  1
  B  B2  1  0.22894895  0.89154328  0.09329836  1
  B  B3  1  0.54056459  0.88228399  0.08958791  1
  B  B4  1  0.77830040  0.76398439  0.35083856  1
  Al  Al5  1  0.22510646  0.19812709  0.05556180  1
  Al  Al6  1  0.78002529  0.08868448  0.80295804  1
  Al  Al7  1  0.89852441  0.19291452  0.55367365  1
  Al  Al8  1  0.45420641  0.07818405  0.30778182  1
  Al  Al9  1  0.56148166  0.19451977  0.05418262  1
  Al  Al10  1  0.10990489  0.09714577  0.81122063  1
  Al  Al11  1  0.22147892  0.20360339  0.55408778  1
  Al  Al12  1  0.78637458  0.08270370  0.30437181  1
  Al  Al13  1  0.89756072  0.18593194  0.05739697  1
  Al  Al14  1  0.43991809  0.09798102  0.80126579  1
  Al  Al15  1  0.55770833  0.20310972  0.55234054  1
  Al  Al16  1  0.10677454  0.43186536  0.30276764  1
  Al  Al17  1  0.23357899  0.54809507  0.05608064  1
  Al  Al18  1  0.76283673  0.42835448  0.88430274  1
  Al  Al19  1  0.89336839  0.54196212  0.55716603  1
  Al  Al20  1  0.44421789  0.42155439  0.30435111  1
  Al  Al21  1  0.10849808  0.42628018  0.80746425  1
  Al  Al22  1  0.22624119  0.53642215  0.55308717  1
  Al  Al23  1  0.78241727  0.42833047  0.36680400  1
  Al  Al24  1  0.87083697  0.55525991  0.06328757  1
  Al  Al25  1  0.44159484  0.42137308  0.80566314  1
  Al  Al26  1  0.56310362  0.53825475  0.62965287  1
  Al  Al27  1  0.11615808  0.76968959  0.30418358  1
  Al  Al28  1  0.77842958  0.75549028  0.81550382  1
  Al  Al29  1  0.89112710  0.86527259  0.55486210  1
  Al  Al30  1  0.45283463  0.76288060  0.37276302  1
  Al  Al31  1  0.11031671  0.75479664  0.80364007  1
  Al  Al32  1  0.23058173  0.86752926  0.61842416  1
  Al  Al33  1  0.88345317  0.87183202  0.05369332  1
  Al  Al34  1  0.44000254  0.76592813  0.88393995  1
  Al  Al35  1  0.55702392  0.86492655  0.61582179  1
  N  N36  1  0.21057922  0.19302786  0.36278129  1
  N  N37  1  0.12319129  0.07138275  0.09248634  1
  N  N38  1  0.88724209  0.19910905  0.87039846  1
  N  N39  1  0.78077321  0.08865078  0.61486386  1
  N  N40  1  0.55961717  0.20400403  0.36628220  1
  N  N41  1  0.45246588  0.07579229  0.11861100  1
  N  N42  1  0.22270738  0.20838854  0.87032007  1
  N  N43  1  0.10919446  0.10133066  0.62333230  1
  N  N44  1  0.92371993  0.18205871  0.36001168  1
  N  N45  1  0.77906828  0.08751583  0.12198099  1
  N  N46  1  0.55693155  0.20172218  0.86918379  1
  N  N47  1  0.44163375  0.09889065  0.61225823  1
  N  N48  1  0.22524038  0.54132331  0.36539945  1
  N  N49  1  0.10895847  0.43496761  0.11835234  1
  N  N50  1  0.88966651  0.53490700  0.87466741  1
  N  N51  1  0.77504917  0.42444622  0.55374572  1
  N  N52  1  0.56665833  0.53757331  0.29223366  1
  N  N53  1  0.46414191  0.42235476  0.11633641  1
  N  N54  1  0.22229424  0.53786680  0.87156555  1
  N  N55  1  0.11345159  0.42470133  0.61705126  1
  N  N56  1  0.88063631  0.57046757  0.36309496  1
  N  N57  1  0.75324905  0.42901755  0.08042225  1
  N  N58  1  0.55413227  0.54406564  0.81564393  1
  N  N59  1  0.44481194  0.42029457  0.61760827  1
  N  N60  1  0.21366851  0.90297957  0.35331289  1
  N  N61  1  0.13311487  0.77693801  0.11416993  1
  N  N62  1  0.89087083  0.87038392  0.86909707  1
  N  N63  1  0.79040854  0.75179254  0.62545624  1
  N  N64  1  0.59434647  0.85661690  0.35819209  1
  N  N65  1  0.42076035  0.81004711  0.06849213  1
  N  N66  1  0.22897974  0.86648222  0.81128488  1
  N  N67  1  0.10985438  0.75344435  0.61441492  1
  N  N68  1  0.88261285  0.85622652  0.36320742  1
  N  N69  1  0.72926445  0.78552043  0.08168296  1
  N  N70  1  0.54719665  0.87007439  0.80862094  1
  N  N71  1  0.45124869  0.74777011  0.55699348  1
