# generated using pymatgen
data_Al31B5N36
_symmetry_space_group_name_H-M   'P 1'
_cell_length_a   9.23915896
_cell_length_b   9.35357727
_cell_length_c   9.81779910
_cell_angle_alpha   90.33423518
_cell_angle_beta   89.90812739
_cell_angle_gamma   59.88664608
_symmetry_Int_Tables_number   1
_chemical_formula_structural   Al31B5N36
_chemical_formula_sum   'Al31 B5 N36'
_cell_volume   733.91270607
_cell_formula_units_Z   1
loop_
 _symmetry_equiv_pos_site_id
 _symmetry_equiv_pos_as_xyz
  1  'x, y, z'
loop_
 _atom_site_type_symbol
 _atom_site_label
 _atom_site_symmetry_multiplicity
 _atom_site_fract_x
 _atom_site_fract_y
 _atom_site_fract_z
 _atom_site_occupancy
  B  B0  1  0.11064606  0.09498308  0.40256673  1
  B  B1  1  0.58600308  0.47564227  0.16958466  1
  B  B2  1  0.24690455  0.91689839  0.17367855  1
  B  B3  1  0.55685643  0.87261338  0.16341551  1
  B  B4  1  0.77846636  0.75776607  0.40069631  1
  Al  Al5  1  0.23073789  0.19929831  0.11090522  1
  Al  Al6  1  0.77608634  0.09191377  0.83090864  1
  Al  Al7  1  0.89621009  0.20643761  0.64311888  1
  Al  Al8  1  0.44934579  0.08735307  0.33849236  1
  Al  Al9  1  0.56804562  0.19002606  0.08622548  1
  Al  Al10  1  0.11446272  0.08508246  0.90394018  1
  Al  Al11  1  0.22285704  0.20275742  0.58192330  1
  Al  Al12  1  0.78208185  0.08551710  0.34738507  1
  Al  Al13  1  0.90318536  0.19507935  0.15874033  1
  Al  Al14  1  0.43949403  0.09836010  0.82838425  1
  Al  Al15  1  0.55854196  0.20191807  0.58175887  1
  Al  Al16  1  0.10287236  0.43809790  0.39352997  1
  Al  Al17  1  0.22501730  0.54318735  0.15039709  1
  Al  Al18  1  0.77309492  0.42847994  0.90530117  1
  Al  Al19  1  0.88615788  0.54233853  0.64870397  1
  Al  Al20  1  0.44327620  0.43206400  0.39833356  1
  Al  Al21  1  0.10707806  0.43139256  0.90334143  1
  Al  Al22  1  0.22349049  0.53925607  0.65114466  1
  Al  Al23  1  0.78586603  0.42629077  0.40048679  1
  Al  Al24  1  0.86769025  0.55230092  0.15612362  1
  Al  Al25  1  0.44627484  0.43543850  0.90381558  1
  Al  Al26  1  0.55362474  0.54424387  0.65364420  1
  Al  Al27  1  0.10981225  0.76666751  0.38905114  1
  Al  Al28  1  0.76548284  0.76652137  0.90254831  1
  Al  Al29  1  0.89164585  0.86169584  0.63618442  1
  Al  Al30  1  0.45304259  0.75761031  0.37524329  1
  Al  Al31  1  0.10766704  0.76226884  0.90567920  1
  Al  Al32  1  0.22614626  0.86787602  0.64358335  1
  Al  Al33  1  0.88339703  0.85879829  0.15300589  1
  Al  Al34  1  0.43826202  0.77361356  0.92055360  1
  Al  Al35  1  0.55710844  0.86259279  0.63729719  1
  N  N36  1  0.21089948  0.19682479  0.37266005  1
  N  N37  1  0.12424725  0.07344848  0.10042041  1
  N  N38  1  0.89312661  0.20741259  0.84367172  1
  N  N39  1  0.77934737  0.09284272  0.63003328  1
  N  N40  1  0.55653006  0.20215884  0.38945417  1
  N  N41  1  0.45958175  0.07869495  0.14530811  1
  N  N42  1  0.22068991  0.20509690  0.88075391  1
  N  N43  1  0.11250466  0.08312085  0.56855483  1
  N  N44  1  0.91875961  0.19391947  0.35363577  1
  N  N45  1  0.78309937  0.08842278  0.14611988  1
  N  N46  1  0.55645174  0.20192556  0.89170760  1
  N  N47  1  0.44368415  0.09576033  0.63091769  1
  N  N48  1  0.22477029  0.53993178  0.34041206  1
  N  N49  1  0.10242880  0.43130706  0.10173862  1
  N  N50  1  0.88328703  0.54180794  0.84522758  1
  N  N51  1  0.77719554  0.42845007  0.59150296  1
  N  N52  1  0.56633302  0.52245390  0.31913749  1
  N  N53  1  0.46456297  0.43280869  0.10346004  1
  N  N54  1  0.22428472  0.53677962  0.84514879  1
  N  N55  1  0.10895419  0.43240333  0.59000253  1
  N  N56  1  0.87372897  0.56392075  0.34761843  1
  N  N57  1  0.75769834  0.42616553  0.10491426  1
  N  N58  1  0.55123659  0.54975577  0.84756606  1
  N  N59  1  0.44574098  0.43319493  0.59343560  1
  N  N60  1  0.21494159  0.90393888  0.32769935  1
  N  N61  1  0.10069596  0.75533465  0.09286274  1
  N  N62  1  0.88803737  0.86154108  0.83563983  1
  N  N63  1  0.77590946  0.75813056  0.56666616  1
  N  N64  1  0.58693565  0.85231991  0.33521471  1
  N  N65  1  0.42322855  0.81874686  0.11670715  1
  N  N66  1  0.22225800  0.86939078  0.83792817  1
  N  N67  1  0.11584688  0.75813085  0.58310754  1
  N  N68  1  0.87884901  0.85134707  0.35086120  1
  N  N69  1  0.73929318  0.77549716  0.09513626  1
  N  N70  1  0.55229859  0.86663595  0.83208294  1
  N  N71  1  0.44615039  0.75493367  0.57222189  1
