# generated using pymatgen
data_Al31B5N36
_symmetry_space_group_name_H-M   'P 1'
_cell_length_a   9.17305703
_cell_length_b   9.29724748
_cell_length_c   10.18774126
_cell_angle_alpha   90.24359017
_cell_angle_beta   89.70265455
_cell_angle_gamma   59.84410180
_symmetry_Int_Tables_number   1
_chemical_formula_structural   Al31B5N36
_chemical_formula_sum   'Al31 B5 N36'
_cell_volume   751.23033787
_cell_formula_units_Z   1
loop_
 _symmetry_equiv_pos_site_id
 _symmetry_equiv_pos_as_xyz
  1  'x, y, z'
loop_
 _atom_site_type_symbol
 _atom_site_label
 _atom_site_symmetry_multiplicity
 _atom_site_fract_x
 _atom_site_fract_y
 _atom_site_fract_z
 _atom_site_occupancy
  B  B0  1  0.11239254  0.10238183  0.30318317  1
  B  B1  1  0.58970466  0.48044850  0.15413389  1
  B  B2  1  0.25696643  0.91467966  0.15600616  1
  B  B3  1  0.54445356  0.88857225  0.09654217  1
  B  B4  1  0.77916172  0.76510684  0.35697389  1
  Al  Al5  1  0.22760925  0.20297060  0.06343980  1
  Al  Al6  1  0.78106879  0.08912123  0.80879700  1
  Al  Al7  1  0.90223895  0.18998882  0.55237973  1
  Al  Al8  1  0.45613827  0.08141819  0.31456033  1
  Al  Al9  1  0.56347052  0.19750702  0.05852404  1
  Al  Al10  1  0.10918222  0.09762738  0.81235655  1
  Al  Al11  1  0.22102316  0.20099718  0.55314789  1
  Al  Al12  1  0.78636190  0.08215705  0.30894252  1
  Al  Al13  1  0.90031087  0.18574432  0.06858201  1
  Al  Al14  1  0.43998307  0.09690797  0.80567968  1
  Al  Al15  1  0.55858505  0.20394201  0.55849216  1
  Al  Al16  1  0.10843769  0.43198281  0.30695628  1
  Al  Al17  1  0.22417510  0.54247555  0.05976535  1
  Al  Al18  1  0.76255943  0.42810674  0.89058959  1
  Al  Al19  1  0.89307004  0.54124892  0.56143283  1
  Al  Al20  1  0.44363567  0.42212866  0.31055019  1
  Al  Al21  1  0.10721919  0.42387501  0.81181769  1
  Al  Al22  1  0.22546057  0.53558951  0.55958515  1
  Al  Al23  1  0.78469763  0.42729826  0.36861527  1
  Al  Al24  1  0.87084563  0.55607037  0.06949416  1
  Al  Al25  1  0.44116169  0.42278191  0.81077798  1
  Al  Al26  1  0.56239008  0.53941677  0.63318385  1
  Al  Al27  1  0.10985292  0.76042514  0.29718109  1
  Al  Al28  1  0.77398481  0.75597281  0.81946406  1
  Al  Al29  1  0.89096450  0.86532023  0.56280073  1
  Al  Al30  1  0.45917228  0.75839721  0.37104730  1
  Al  Al31  1  0.10705241  0.75429539  0.81500021  1
  Al  Al32  1  0.23273858  0.86220972  0.63369978  1
  Al  Al33  1  0.87826402  0.86848953  0.05755181  1
  Al  Al34  1  0.43493804  0.77154854  0.89660367  1
  Al  Al35  1  0.55499556  0.86617644  0.61437593  1
  N  N36  1  0.21133852  0.19519484  0.36209848  1
  N  N37  1  0.11928440  0.09565172  0.14104342  1
  N  N38  1  0.89156028  0.19614910  0.88045507  1
  N  N39  1  0.78306645  0.09026439  0.61906031  1
  N  N40  1  0.56070628  0.20467198  0.37132738  1
  N  N41  1  0.45650901  0.08082866  0.12371809  1
  N  N42  1  0.22118716  0.20421237  0.87722711  1
  N  N43  1  0.11335775  0.09512034  0.62378486  1
  N  N44  1  0.92388308  0.18156721  0.35891245  1
  N  N45  1  0.78123361  0.08678895  0.12508242  1
  N  N46  1  0.55604004  0.20223563  0.87197498  1
  N  N47  1  0.44121070  0.10032892  0.61470247  1
  N  N48  1  0.22489232  0.54011581  0.37129232  1
  N  N49  1  0.10836709  0.42778973  0.12209049  1
  N  N50  1  0.88759139  0.53435635  0.87856890  1
  N  N51  1  0.77676486  0.42326271  0.55803398  1
  N  N52  1  0.56733854  0.53484724  0.29745267  1
  N  N53  1  0.46235561  0.42462236  0.12016812  1
  N  N54  1  0.22104171  0.53318732  0.87339553  1
  N  N55  1  0.11394410  0.42157248  0.62016757  1
  N  N56  1  0.88027873  0.57127608  0.36576967  1
  N  N57  1  0.75275502  0.42941007  0.08681989  1
  N  N58  1  0.55097849  0.54700791  0.82333313  1
  N  N59  1  0.44602673  0.42166292  0.62155309  1
  N  N60  1  0.23318207  0.89153863  0.30296306  1
  N  N61  1  0.09618994  0.75444193  0.11847176  1
  N  N62  1  0.88413364  0.87151808  0.87029459  1
  N  N63  1  0.78871755  0.75158518  0.62845131  1
  N  N64  1  0.59459844  0.85776450  0.36546840  1
  N  N65  1  0.41943698  0.82801864  0.08167251  1
  N  N66  1  0.22382163  0.86745266  0.82337098  1
  N  N67  1  0.11089445  0.75289602  0.62103414  1
  N  N68  1  0.88141507  0.85755736  0.37140910  1
  N  N69  1  0.72758438  0.78627867  0.08543897  1
  N  N70  1  0.54200896  0.86955433  0.81148166  1
  N  N71  1  0.44520925  0.75060568  0.55701108  1
