# generated using pymatgen
data_Al31B5N36
_symmetry_space_group_name_H-M   'P 1'
_cell_length_a   9.24092332
_cell_length_b   9.35370928
_cell_length_c   9.80869790
_cell_angle_alpha   90.32948952
_cell_angle_beta   89.90128778
_cell_angle_gamma   59.89040565
_symmetry_Int_Tables_number   1
_chemical_formula_structural   Al31B5N36
_chemical_formula_sum   'Al31 B5 N36'
_cell_volume   733.41064825
_cell_formula_units_Z   1
loop_
 _symmetry_equiv_pos_site_id
 _symmetry_equiv_pos_as_xyz
  1  'x, y, z'
loop_
 _atom_site_type_symbol
 _atom_site_label
 _atom_site_symmetry_multiplicity
 _atom_site_fract_x
 _atom_site_fract_y
 _atom_site_fract_z
 _atom_site_occupancy
  B  B0  1  0.11057148  0.09523077  0.40220362  1
  B  B1  1  0.58597802  0.47564694  0.16953687  1
  B  B2  1  0.24697282  0.91635275  0.17331193  1
  B  B3  1  0.55673636  0.87276338  0.16346328  1
  B  B4  1  0.77870117  0.75751034  0.40073141  1
  Al  Al5  1  0.22825510  0.20053044  0.12493033  1
  Al  Al6  1  0.77613428  0.09188716  0.83110219  1
  Al  Al7  1  0.89637823  0.20639789  0.64322598  1
  Al  Al8  1  0.45082352  0.08646629  0.34020894  1
  Al  Al9  1  0.56763363  0.18998509  0.08620766  1
  Al  Al10  1  0.11523786  0.08604034  0.90364409  1
  Al  Al11  1  0.22196184  0.20348722  0.58866479  1
  Al  Al12  1  0.78234341  0.08549768  0.34734916  1
  Al  Al13  1  0.90287302  0.19498088  0.15812458  1
  Al  Al14  1  0.43956280  0.09822646  0.82819395  1
  Al  Al15  1  0.55897365  0.20200393  0.58165831  1
  Al  Al16  1  0.10292156  0.43808327  0.39409110  1
  Al  Al17  1  0.22514066  0.54311977  0.15010707  1
  Al  Al18  1  0.77311996  0.42844645  0.90514077  1
  Al  Al19  1  0.88611410  0.54236916  0.64889874  1
  Al  Al20  1  0.44323479  0.43215973  0.39822747  1
  Al  Al21  1  0.10781758  0.42975440  0.90300107  1
  Al  Al22  1  0.22349488  0.53945350  0.65125581  1
  Al  Al23  1  0.78589998  0.42626110  0.40035031  1
  Al  Al24  1  0.86752894  0.55236488  0.15586587  1
  Al  Al25  1  0.44620091  0.43541980  0.90367353  1
  Al  Al26  1  0.55362978  0.54424311  0.65361948  1
  Al  Al27  1  0.10981403  0.76661693  0.38886044  1
  Al  Al28  1  0.76550116  0.76646689  0.90243705  1
  Al  Al29  1  0.89168049  0.86169722  0.63617175  1
  Al  Al30  1  0.45300330  0.75751832  0.37508168  1
  Al  Al31  1  0.10766837  0.76236390  0.90558461  1
  Al  Al32  1  0.22617171  0.86806358  0.64352454  1
  Al  Al33  1  0.88330246  0.85881561  0.15290701  1
  Al  Al34  1  0.43814370  0.77370534  0.92040806  1
  Al  Al35  1  0.55738227  0.86228904  0.63705610  1
  N  N36  1  0.21023528  0.19725716  0.36824957  1
  N  N37  1  0.12459611  0.07390690  0.10005335  1
  N  N38  1  0.89295480  0.20729578  0.84392890  1
  N  N39  1  0.77968684  0.09277246  0.62987467  1
  N  N40  1  0.55697336  0.20243291  0.38923604  1
  N  N41  1  0.45951685  0.07856720  0.14566115  1
  N  N42  1  0.21837198  0.20613185  0.87029576  1
  N  N43  1  0.11288477  0.08362284  0.56764084  1
  N  N44  1  0.91872400  0.19392011  0.35331456  1
  N  N45  1  0.78295465  0.08834124  0.14582517  1
  N  N46  1  0.55627816  0.20189093  0.89155236  1
  N  N47  1  0.44508853  0.09481317  0.62918203  1
  N  N48  1  0.22474492  0.53978240  0.34028489  1
  N  N49  1  0.10288897  0.43039188  0.10121464  1
  N  N50  1  0.88327631  0.54191236  0.84543984  1
  N  N51  1  0.77727344  0.42840984  0.59150756  1
  N  N52  1  0.56632375  0.52251763  0.31915548  1
  N  N53  1  0.46457932  0.43273606  0.10345856  1
  N  N54  1  0.22413287  0.53682321  0.84534928  1
  N  N55  1  0.10887155  0.43271370  0.58954541  1
  N  N56  1  0.87395915  0.56377909  0.34748151  1
  N  N57  1  0.75763874  0.42618617  0.10488187  1
  N  N58  1  0.55119791  0.54978246  0.84757724  1
  N  N59  1  0.44569233  0.43321586  0.59347239  1
  N  N60  1  0.21485543  0.90389963  0.32749849  1
  N  N61  1  0.10073031  0.75542921  0.09302835  1
  N  N62  1  0.88800485  0.86155765  0.83568444  1
  N  N63  1  0.77620682  0.75785525  0.56668006  1
  N  N64  1  0.58719147  0.85197436  0.33537102  1
  N  N65  1  0.42329916  0.81846796  0.11677799  1
  N  N66  1  0.22209200  0.86961587  0.83800627  1
  N  N67  1  0.11587619  0.75827393  0.58305693  1
  N  N68  1  0.87884697  0.85134965  0.35085680  1
  N  N69  1  0.73921029  0.77558061  0.09513359  1
  N  N70  1  0.55231798  0.86663781  0.83197413  1
  N  N71  1  0.44613676  0.75487180  0.57215179  1
