# generated using pymatgen
data_Al31B5N36
_symmetry_space_group_name_H-M   'P 1'
_cell_length_a   9.14681141
_cell_length_b   9.14524993
_cell_length_c   10.26852001
_cell_angle_alpha   89.88768499
_cell_angle_beta   90.04032279
_cell_angle_gamma   60.02746227
_symmetry_Int_Tables_number   1
_chemical_formula_structural   Al31B5N36
_chemical_formula_sum   'Al31 B5 N36'
_cell_volume   744.08448560
_cell_formula_units_Z   1
loop_
 _symmetry_equiv_pos_site_id
 _symmetry_equiv_pos_as_xyz
  1  'x, y, z'
loop_
 _atom_site_type_symbol
 _atom_site_label
 _atom_site_symmetry_multiplicity
 _atom_site_fract_x
 _atom_site_fract_y
 _atom_site_fract_z
 _atom_site_occupancy
  B  B0  1  0.11419298  0.09013948  0.35779906  1
  B  B1  1  0.55504291  0.54269428  0.14821695  1
  B  B2  1  0.22378359  0.87525802  0.10328073  1
  B  B3  1  0.55832675  0.86611410  0.10253025  1
  B  B4  1  0.77480667  0.76413809  0.35879249  1
  Al  Al5  1  0.22978332  0.18811777  0.06149511  1
  Al  Al6  1  0.77923554  0.09264779  0.80988001  1
  Al  Al7  1  0.89424223  0.20257791  0.56147326  1
  Al  Al8  1  0.45234765  0.07824931  0.31335428  1
  Al  Al9  1  0.56080608  0.20120047  0.06277082  1
  Al  Al10  1  0.11255725  0.09434107  0.82242024  1
  Al  Al11  1  0.22131242  0.20369530  0.56231949  1
  Al  Al12  1  0.78274922  0.08739693  0.31152354  1
  Al  Al13  1  0.89154056  0.19883709  0.06137354  1
  Al  Al14  1  0.44174685  0.09832182  0.81103133  1
  Al  Al15  1  0.55541111  0.20508276  0.55702573  1
  Al  Al16  1  0.10555131  0.43069411  0.31001935  1
  Al  Al17  1  0.23008988  0.54322709  0.06210356  1
  Al  Al18  1  0.78627057  0.42206039  0.81078326  1
  Al  Al19  1  0.88911707  0.54156314  0.56267355  1
  Al  Al20  1  0.44195033  0.42744942  0.30768449  1
  Al  Al21  1  0.11314651  0.42548005  0.81042456  1
  Al  Al22  1  0.22300262  0.53818424  0.55786281  1
  Al  Al23  1  0.78382575  0.43285024  0.31037566  1
  Al  Al24  1  0.87394078  0.54420369  0.05910566  1
  Al  Al25  1  0.44266694  0.42280419  0.81393245  1
  Al  Al26  1  0.55242637  0.54392740  0.63397730  1
  Al  Al27  1  0.11144913  0.76967327  0.31380473  1
  Al  Al28  1  0.78162113  0.75753492  0.82100931  1
  Al  Al29  1  0.88869976  0.86904134  0.56171464  1
  Al  Al30  1  0.44588805  0.76929757  0.38629506  1
  Al  Al31  1  0.11031004  0.75519200  0.81077374  1
  Al  Al32  1  0.22768801  0.87043351  0.62884395  1
  Al  Al33  1  0.88437322  0.87336404  0.06151634  1
  Al  Al34  1  0.44707871  0.75633278  0.89218255  1
  Al  Al35  1  0.55642843  0.86706374  0.62776770  1
  N  N36  1  0.20988469  0.19158581  0.37007483  1
  N  N37  1  0.12946749  0.05696836  0.08961484  1
  N  N38  1  0.88680114  0.20462513  0.87582177  1
  N  N39  1  0.77866861  0.09355308  0.62028555  1
  N  N40  1  0.55543057  0.20569442  0.36982118  1
  N  N41  1  0.45840469  0.06265231  0.12305034  1
  N  N42  1  0.22510460  0.20671017  0.87706356  1
  N  N43  1  0.10766492  0.10340907  0.63196453  1
  N  N44  1  0.91619225  0.19390385  0.36989147  1
  N  N45  1  0.78010721  0.09124236  0.12837955  1
  N  N46  1  0.55811176  0.20152815  0.87755375  1
  N  N47  1  0.44130734  0.10132667  0.62151501  1
  N  N48  1  0.22195108  0.54026663  0.37080380  1
  N  N49  1  0.11074366  0.42573536  0.12407209  1
  N  N50  1  0.89361104  0.53258365  0.87488300  1
  N  N51  1  0.78476347  0.42373271  0.61811058  1
  N  N52  1  0.54841940  0.55338758  0.31136170  1
  N  N53  1  0.45708196  0.43554532  0.12033955  1
  N  N54  1  0.22274635  0.53661037  0.87751407  1
  N  N55  1  0.11262284  0.42662582  0.62109317  1
  N  N56  1  0.87683341  0.56696289  0.37226268  1
  N  N57  1  0.75963675  0.43454022  0.12361275  1
  N  N58  1  0.55548556  0.54148131  0.82273409  1
  N  N59  1  0.44133553  0.42259591  0.62256821  1
  N  N60  1  0.20539039  0.90647103  0.36123764  1
  N  N61  1  0.12869029  0.77234326  0.12299505  1
  N  N62  1  0.89231762  0.87201041  0.87672686  1
  N  N63  1  0.78900090  0.75508101  0.63159940  1
  N  N64  1  0.59184728  0.85668854  0.36475116  1
  N  N65  1  0.44339596  0.76403294  0.08824175  1
  N  N66  1  0.23270774  0.86250483  0.82203983  1
  N  N67  1  0.10825871  0.75617289  0.62147239  1
  N  N68  1  0.87889601  0.85716431  0.37022180  1
  N  N69  1  0.74149587  0.77634448  0.08996800  1
  N  N70  1  0.54998791  0.86811740  0.82162373  1
  N  N71  1  0.44633815  0.75714512  0.56829820  1
