# generated using pymatgen
data_Al31B5N36
_symmetry_space_group_name_H-M   'P 1'
_cell_length_a   9.19324763
_cell_length_b   9.30749122
_cell_length_c   10.14659143
_cell_angle_alpha   90.38968857
_cell_angle_beta   89.75222953
_cell_angle_gamma   59.88116884
_symmetry_Int_Tables_number   1
_chemical_formula_structural   Al31B5N36
_chemical_formula_sum   'Al31 B5 N36'
_cell_volume   750.93733633
_cell_formula_units_Z   1
loop_
 _symmetry_equiv_pos_site_id
 _symmetry_equiv_pos_as_xyz
  1  'x, y, z'
loop_
 _atom_site_type_symbol
 _atom_site_label
 _atom_site_symmetry_multiplicity
 _atom_site_fract_x
 _atom_site_fract_y
 _atom_site_fract_z
 _atom_site_occupancy
  B  B0  1  0.11158723  0.10339383  0.30468501  1
  B  B1  1  0.58998416  0.47941546  0.15712901  1
  B  B2  1  0.25711895  0.91603194  0.15801651  1
  B  B3  1  0.54331720  0.88997391  0.09594403  1
  B  B4  1  0.77887062  0.76293669  0.35404639  1
  Al  Al5  1  0.22931625  0.20109786  0.06459191  1
  Al  Al6  1  0.78148795  0.09027310  0.80956604  1
  Al  Al7  1  0.90219520  0.18995244  0.55283655  1
  Al  Al8  1  0.45652308  0.08078714  0.31579306  1
  Al  Al9  1  0.56396659  0.19765711  0.05986776  1
  Al  Al10  1  0.10879066  0.09812295  0.81374182  1
  Al  Al11  1  0.22178124  0.20009795  0.55429122  1
  Al  Al12  1  0.78620796  0.08239464  0.31065135  1
  Al  Al13  1  0.90034785  0.18609044  0.07031834  1
  Al  Al14  1  0.44029348  0.09705538  0.80642683  1
  Al  Al15  1  0.55879077  0.20370603  0.55961287  1
  Al  Al16  1  0.10872889  0.43165837  0.30717066  1
  Al  Al17  1  0.22509041  0.54143365  0.06151888  1
  Al  Al18  1  0.76293301  0.42995208  0.89367404  1
  Al  Al19  1  0.89222914  0.53628937  0.58813557  1
  Al  Al20  1  0.44331881  0.42195511  0.31307249  1
  Al  Al21  1  0.11071920  0.42256132  0.81798976  1
  Al  Al22  1  0.22490774  0.53559052  0.56115304  1
  Al  Al23  1  0.78600860  0.43115521  0.37016163  1
  Al  Al24  1  0.87001395  0.55653550  0.08246603  1
  Al  Al25  1  0.44234931  0.42292066  0.81248879  1
  Al  Al26  1  0.56033998  0.54074192  0.63442512  1
  Al  Al27  1  0.10836795  0.76002171  0.29890498  1
  Al  Al28  1  0.77075505  0.75939329  0.82825065  1
  Al  Al29  1  0.89023044  0.86431361  0.56314571  1
  Al  Al30  1  0.45858783  0.75846842  0.37150014  1
  Al  Al31  1  0.10676213  0.75468426  0.81618673  1
  Al  Al32  1  0.23158472  0.86276997  0.63418562  1
  Al  Al33  1  0.87818196  0.86923759  0.05819015  1
  Al  Al34  1  0.43367399  0.77217206  0.89764823  1
  Al  Al35  1  0.55490668  0.86593441  0.61561777  1
  N  N36  1  0.21133168  0.19523532  0.36314497  1
  N  N37  1  0.11935766  0.09574170  0.14216275  1
  N  N38  1  0.89131445  0.19773469  0.88175686  1
  N  N39  1  0.78324155  0.09036505  0.61920357  1
  N  N40  1  0.56053071  0.20432226  0.37217066  1
  N  N41  1  0.45728762  0.08078831  0.12423704  1
  N  N42  1  0.22275687  0.20253094  0.87852823  1
  N  N43  1  0.11281405  0.09558579  0.62449456  1
  N  N44  1  0.92312246  0.18353241  0.36000404  1
  N  N45  1  0.78141354  0.08706375  0.12620044  1
  N  N46  1  0.55651590  0.20236319  0.87257776  1
  N  N47  1  0.44178218  0.09981297  0.61504931  1
  N  N48  1  0.22431985  0.53957955  0.37275852  1
  N  N49  1  0.11202381  0.42479167  0.12132287  1
  N  N50  1  0.88824711  0.53383444  0.87606111  1
  N  N51  1  0.77664610  0.42440466  0.56067826  1
  N  N52  1  0.56706830  0.53393055  0.30081105  1
  N  N53  1  0.46290031  0.42442030  0.12186601  1
  N  N54  1  0.22284673  0.53388993  0.87490666  1
  N  N55  1  0.11747771  0.41923346  0.62444344  1
  N  N56  1  0.87726611  0.57276764  0.34822662  1
  N  N57  1  0.75257182  0.42966004  0.08955139  1
  N  N58  1  0.55143760  0.54739232  0.82531448  1
  N  N59  1  0.44595312  0.42191500  0.62223714  1
  N  N60  1  0.23216425  0.89164272  0.30439886  1
  N  N61  1  0.09378252  0.75224227  0.12014977  1
  N  N62  1  0.88460940  0.87343067  0.87109029  1
  N  N63  1  0.78734180  0.75323876  0.63151584  1
  N  N64  1  0.59413259  0.85713245  0.36479520  1
  N  N65  1  0.41874080  0.82925742  0.08325440  1
  N  N66  1  0.22294541  0.86813199  0.82455611  1
  N  N67  1  0.11009147  0.75312824  0.62156583  1
  N  N68  1  0.88020229  0.85736358  0.37178942  1
  N  N69  1  0.72572540  0.78770645  0.07894874  1
  N  N70  1  0.54012099  0.87053710  0.81277046  1
  N  N71  1  0.44434121  0.75120937  0.55820637  1
