# generated using pymatgen
data_Al31B5N36
_symmetry_space_group_name_H-M   'P 1'
_cell_length_a   9.22511437
_cell_length_b   9.32474534
_cell_length_c   9.77871895
_cell_angle_alpha   90.14690039
_cell_angle_beta   89.69128660
_cell_angle_gamma   60.09808837
_symmetry_Int_Tables_number   1
_chemical_formula_structural   Al31B5N36
_chemical_formula_sum   'Al31 B5 N36'
_cell_volume   729.18122233
_cell_formula_units_Z   1
loop_
 _symmetry_equiv_pos_site_id
 _symmetry_equiv_pos_as_xyz
  1  'x, y, z'
loop_
 _atom_site_type_symbol
 _atom_site_label
 _atom_site_symmetry_multiplicity
 _atom_site_fract_x
 _atom_site_fract_y
 _atom_site_fract_z
 _atom_site_occupancy
  B  B0  1  0.11176517  0.09894005  0.40233688  1
  B  B1  1  0.58594930  0.47799380  0.16911800  1
  B  B2  1  0.24743532  0.91492811  0.17093778  1
  B  B3  1  0.55587491  0.87404320  0.16374642  1
  B  B4  1  0.77965783  0.75788753  0.39977051  1
  Al  Al5  1  0.22148352  0.20190321  0.15622902  1
  Al  Al6  1  0.78622111  0.08646427  0.89935873  1
  Al  Al7  1  0.89279728  0.20281259  0.64682818  1
  Al  Al8  1  0.45213164  0.08480305  0.34951077  1
  Al  Al9  1  0.55790493  0.19573347  0.09644259  1
  Al  Al10  1  0.11773158  0.08685933  0.90177378  1
  Al  Al11  1  0.21302850  0.20825691  0.63516419  1
  Al  Al12  1  0.79295780  0.08122522  0.39730540  1
  Al  Al13  1  0.90123330  0.19012732  0.15707716  1
  Al  Al14  1  0.44632191  0.09544409  0.82670000  1
  Al  Al15  1  0.55615777  0.20509912  0.58200593  1
  Al  Al16  1  0.10486767  0.43346649  0.39932292  1
  Al  Al17  1  0.22322149  0.54234139  0.14909990  1
  Al  Al18  1  0.77264716  0.42827533  0.90425021  1
  Al  Al19  1  0.88472668  0.54336023  0.64743940  1
  Al  Al20  1  0.44316702  0.43243913  0.39466372  1
  Al  Al21  1  0.10949616  0.42635978  0.89998993  1
  Al  Al22  1  0.22204215  0.54178511  0.64945169  1
  Al  Al23  1  0.78623605  0.42544206  0.39922224  1
  Al  Al24  1  0.86945030  0.55120936  0.15452774  1
  Al  Al25  1  0.44565599  0.43506325  0.90333771  1
  Al  Al26  1  0.55338952  0.54404237  0.65231742  1
  Al  Al27  1  0.10993851  0.76595419  0.38659845  1
  Al  Al28  1  0.76602213  0.76592235  0.90215240  1
  Al  Al29  1  0.88942638  0.86740786  0.64205732  1
  Al  Al30  1  0.45291202  0.75721762  0.37370783  1
  Al  Al31  1  0.10927370  0.76124450  0.90483234  1
  Al  Al32  1  0.22533561  0.87013295  0.64081600  1
  Al  Al33  1  0.88071289  0.86369377  0.15256256  1
  Al  Al34  1  0.43879580  0.77270266  0.91939017  1
  Al  Al35  1  0.55791069  0.86193640  0.63341441  1
  N  N36  1  0.20529503  0.19942668  0.35435478  1
  N  N37  1  0.12627064  0.07513581  0.09683751  1
  N  N38  1  0.89197697  0.20471906  0.84361539  1
  N  N39  1  0.78612678  0.08889893  0.59316084  1
  N  N40  1  0.56044945  0.20418042  0.37928049  1
  N  N41  1  0.45649120  0.07676894  0.14836477  1
  N  N42  1  0.21358688  0.20750489  0.83509753  1
  N  N43  1  0.11282330  0.08929815  0.56736543  1
  N  N44  1  0.91765954  0.19163288  0.34956809  1
  N  N45  1  0.78920689  0.08417585  0.09768611  1
  N  N46  1  0.55197699  0.20460222  0.89116534  1
  N  N47  1  0.44537783  0.09331167  0.62025450  1
  N  N48  1  0.22332284  0.53847695  0.33996237  1
  N  N49  1  0.10685547  0.42313785  0.09589125  1
  N  N50  1  0.88374095  0.54174496  0.84486455  1
  N  N51  1  0.77751885  0.42635198  0.59153681  1
  N  N52  1  0.56672588  0.52426175  0.31871153  1
  N  N53  1  0.46310310  0.43503572  0.10436205  1
  N  N54  1  0.22383826  0.53705429  0.84420203  1
  N  N55  1  0.10874002  0.43203034  0.59143589  1
  N  N56  1  0.87669336  0.56291012  0.34718042  1
  N  N57  1  0.75816541  0.42515861  0.10444771  1
  N  N58  1  0.55121495  0.54951498  0.84668307  1
  N  N59  1  0.44427192  0.43416178  0.59104958  1
  N  N60  1  0.21560651  0.90366526  0.32642622  1
  N  N61  1  0.09995738  0.75495310  0.09291539  1
  N  N62  1  0.88612573  0.86732234  0.83685087  1
  N  N63  1  0.77823641  0.75888719  0.56653577  1
  N  N64  1  0.58873028  0.85088728  0.33645914  1
  N  N65  1  0.42400139  0.81598118  0.11593342  1
  N  N66  1  0.22294762  0.86998787  0.83676819  1
  N  N67  1  0.11351572  0.76052693  0.58244498  1
  N  N68  1  0.87794844  0.85622929  0.34649751  1
  N  N69  1  0.73920933  0.77556842  0.09497596  1
  N  N70  1  0.55343602  0.86605696  0.82995775  1
  N  N71  1  0.44578072  0.75449565  0.57105499  1
