# generated using pymatgen
data_Al31B5N36
_symmetry_space_group_name_H-M   'P 1'
_cell_length_a   9.16093749
_cell_length_b   9.24123154
_cell_length_c   9.76849320
_cell_angle_alpha   90.22921358
_cell_angle_beta   90.01689866
_cell_angle_gamma   60.22577119
_symmetry_Int_Tables_number   1
_chemical_formula_structural   Al31B5N36
_chemical_formula_sum   'Al31 B5 N36'
_cell_volume   717.80622721
_cell_formula_units_Z   1
loop_
 _symmetry_equiv_pos_site_id
 _symmetry_equiv_pos_as_xyz
  1  'x, y, z'
loop_
 _atom_site_type_symbol
 _atom_site_label
 _atom_site_symmetry_multiplicity
 _atom_site_fract_x
 _atom_site_fract_y
 _atom_site_fract_z
 _atom_site_occupancy
  B  B0  1  0.11039779  0.10681321  0.38537813  1
  B  B1  1  0.58106100  0.49782328  0.15241037  1
  B  B2  1  0.22643923  0.90630786  0.14691770  1
  B  B3  1  0.55002311  0.88726972  0.14478804  1
  B  B4  1  0.77611811  0.77333355  0.38329588  1
  Al  Al5  1  0.22189004  0.20940774  0.14097174  1
  Al  Al6  1  0.77943111  0.10284940  0.88517180  1
  Al  Al7  1  0.89170009  0.21496591  0.62985031  1
  Al  Al8  1  0.44498932  0.09738593  0.38080138  1
  Al  Al9  1  0.55960952  0.21004459  0.13769237  1
  Al  Al10  1  0.11383590  0.10032354  0.88740730  1
  Al  Al11  1  0.21994218  0.21506452  0.62913156  1
  Al  Al12  1  0.78100962  0.09787881  0.38771518  1
  Al  Al13  1  0.89729982  0.20501185  0.14238529  1
  Al  Al14  1  0.44422634  0.10015525  0.88932344  1
  Al  Al15  1  0.55326364  0.21610374  0.63718685  1
  Al  Al16  1  0.10443225  0.44299826  0.38512609  1
  Al  Al17  1  0.22740477  0.55804256  0.13655840  1
  Al  Al18  1  0.77188108  0.44059487  0.88879594  1
  Al  Al19  1  0.88333303  0.55528077  0.63068587  1
  Al  Al20  1  0.44488611  0.43647065  0.38591328  1
  Al  Al21  1  0.10831360  0.43944606  0.88690705  1
  Al  Al22  1  0.22101431  0.55244750  0.63735278  1
  Al  Al23  1  0.78219574  0.43865034  0.38408520  1
  Al  Al24  1  0.86904767  0.56360092  0.14128151  1
  Al  Al25  1  0.44805496  0.44172483  0.88961132  1
  Al  Al26  1  0.55171171  0.55610274  0.63580515  1
  Al  Al27  1  0.10721254  0.77792924  0.37783240  1
  Al  Al28  1  0.76763274  0.77585059  0.88740012  1
  Al  Al29  1  0.88703980  0.87989507  0.62970913  1
  Al  Al30  1  0.44680228  0.77221168  0.35469203  1
  Al  Al31  1  0.11264920  0.77689989  0.89052047  1
  Al  Al32  1  0.22493810  0.88269849  0.62516866  1
  Al  Al33  1  0.88372097  0.87957716  0.13832206  1
  Al  Al34  1  0.43942919  0.78007817  0.90387284  1
  Al  Al35  1  0.55265580  0.88033804  0.62492031  1
  N  N36  1  0.20628895  0.20793255  0.33456933  1
  N  N37  1  0.11980428  0.08739764  0.08054972  1
  N  N38  1  0.88986052  0.21760848  0.82665300  1
  N  N39  1  0.77712071  0.10388162  0.57940723  1
  N  N40  1  0.55587621  0.21480691  0.32881322  1
  N  N41  1  0.45267513  0.08871385  0.08762625  1
  N  N42  1  0.22014953  0.21651301  0.82620972  1
  N  N43  1  0.11221707  0.10215543  0.55278327  1
  N  N44  1  0.91260810  0.20363719  0.33559196  1
  N  N45  1  0.78147271  0.10054068  0.07938063  1
  N  N46  1  0.55272898  0.21797284  0.83242708  1
  N  N47  1  0.44391067  0.10395112  0.57325502  1
  N  N48  1  0.22298608  0.55023580  0.32729866  1
  N  N49  1  0.10576234  0.44149139  0.08283946  1
  N  N50  1  0.88364901  0.55313669  0.82800035  1
  N  N51  1  0.77503773  0.43878887  0.57546493  1
  N  N52  1  0.56242579  0.53626870  0.30453218  1
  N  N53  1  0.46398738  0.44343648  0.08628634  1
  N  N54  1  0.22247788  0.55156731  0.83382873  1
  N  N55  1  0.10923326  0.44023859  0.57843991  1
  N  N56  1  0.87342068  0.57695962  0.33369951  1
  N  N57  1  0.75607121  0.44039909  0.08923889  1
  N  N58  1  0.55047085  0.55984802  0.82987683  1
  N  N59  1  0.44520558  0.43854726  0.57831607  1
  N  N60  1  0.20703851  0.91258618  0.31337787  1
  N  N61  1  0.12081384  0.78574548  0.08657800  1
  N  N62  1  0.88800386  0.87917780  0.82636847  1
  N  N63  1  0.77326825  0.77361241  0.55204435  1
  N  N64  1  0.57810696  0.87374703  0.31304288  1
  N  N65  1  0.42231613  0.81706395  0.09949907  1
  N  N66  1  0.22389853  0.88372977  0.81984738  1
  N  N67  1  0.11101544  0.77178876  0.57175077  1
  N  N68  1  0.87523196  0.86980663  0.33207140  1
  N  N69  1  0.74347060  0.78638586  0.07959824  1
  N  N70  1  0.55091399  0.88298913  0.81901345  1
  N  N71  1  0.44494234  0.76772824  0.55522885  1
