# generated using pymatgen
data_Al31B5N36
_symmetry_space_group_name_H-M   'P 1'
_cell_length_a   9.17836300
_cell_length_b   9.29089926
_cell_length_c   10.17957079
_cell_angle_alpha   90.59199726
_cell_angle_beta   89.48630807
_cell_angle_gamma   59.87083369
_symmetry_Int_Tables_number   1
_chemical_formula_structural   Al31B5N36
_chemical_formula_sum   'Al31 B5 N36'
_cell_volume   750.64571850
_cell_formula_units_Z   1
loop_
 _symmetry_equiv_pos_site_id
 _symmetry_equiv_pos_as_xyz
  1  'x, y, z'
loop_
 _atom_site_type_symbol
 _atom_site_label
 _atom_site_symmetry_multiplicity
 _atom_site_fract_x
 _atom_site_fract_y
 _atom_site_fract_z
 _atom_site_occupancy
  B  B0  1  0.11162013  0.10438956  0.31243447  1
  B  B1  1  0.59045481  0.48074983  0.16473103  1
  B  B2  1  0.25503477  0.91703423  0.16369385  1
  B  B3  1  0.53921487  0.89220967  0.10539439  1
  B  B4  1  0.77538428  0.75861148  0.40271927  1
  Al  Al5  1  0.22755840  0.20379884  0.07185139  1
  Al  Al6  1  0.78112754  0.09053384  0.81808869  1
  Al  Al7  1  0.90103376  0.19077989  0.56175836  1
  Al  Al8  1  0.45746138  0.07940183  0.32241522  1
  Al  Al9  1  0.56396741  0.19906917  0.06713447  1
  Al  Al10  1  0.10735519  0.09953650  0.82079452  1
  Al  Al11  1  0.22138683  0.19978324  0.56042361  1
  Al  Al12  1  0.78772702  0.08361469  0.31870589  1
  Al  Al13  1  0.89926162  0.19166524  0.07788578  1
  Al  Al14  1  0.44234840  0.09472023  0.81104269  1
  Al  Al15  1  0.55833235  0.20310533  0.56708909  1
  Al  Al16  1  0.11177067  0.42872715  0.31849783  1
  Al  Al17  1  0.22406330  0.54102730  0.06986625  1
  Al  Al18  1  0.76447688  0.43539305  0.90009750  1
  Al  Al19  1  0.88444960  0.53596562  0.63758723  1
  Al  Al20  1  0.44388669  0.42204395  0.32057575  1
  Al  Al21  1  0.11636270  0.41988268  0.82043864  1
  Al  Al22  1  0.22335176  0.53492025  0.56802922  1
  Al  Al23  1  0.78674815  0.43207706  0.38581993  1
  Al  Al24  1  0.85754172  0.56701042  0.14836142  1
  Al  Al25  1  0.44205081  0.42215612  0.82079741  1
  Al  Al26  1  0.55787433  0.54046391  0.64229167  1
  Al  Al27  1  0.10787831  0.76276998  0.30656750  1
  Al  Al28  1  0.76108352  0.76167134  0.88354131  1
  Al  Al29  1  0.89438040  0.86744781  0.56499752  1
  Al  Al30  1  0.45605189  0.76032822  0.37874223  1
  Al  Al31  1  0.10611172  0.75360563  0.82425072  1
  Al  Al32  1  0.22952288  0.86253914  0.64187105  1
  Al  Al33  1  0.88431477  0.87258362  0.06915622  1
  Al  Al34  1  0.43301077  0.77205797  0.90105597  1
  Al  Al35  1  0.55671728  0.86411003  0.61608282  1
  N  N36  1  0.21278051  0.19424049  0.37013351  1
  N  N37  1  0.11826687  0.09755908  0.14923697  1
  N  N38  1  0.88981397  0.20084048  0.89032917  1
  N  N39  1  0.78223015  0.09039299  0.62948642  1
  N  N40  1  0.56025183  0.20469087  0.38000993  1
  N  N41  1  0.45758808  0.08148196  0.13032140  1
  N  N42  1  0.22345012  0.20205252  0.88568493  1
  N  N43  1  0.11196625  0.09548725  0.63225967  1
  N  N44  1  0.92314681  0.18554145  0.36909285  1
  N  N45  1  0.78102204  0.09085593  0.13379282  1
  N  N46  1  0.55581994  0.20137150  0.88064869  1
  N  N47  1  0.44157008  0.09831202  0.62228963  1
  N  N48  1  0.22384822  0.54129856  0.38032023  1
  N  N49  1  0.10907121  0.42723234  0.12977066  1
  N  N50  1  0.88001379  0.53742324  0.83051436  1
  N  N51  1  0.77618295  0.42524425  0.57159414  1
  N  N52  1  0.56912768  0.53252069  0.30877829  1
  N  N53  1  0.46332736  0.42547130  0.12940255  1
  N  N54  1  0.22151381  0.53360828  0.88399732  1
  N  N55  1  0.11918294  0.41773219  0.62851974  1
  N  N56  1  0.87362295  0.57072514  0.33593441  1
  N  N57  1  0.75256417  0.43723252  0.09509435  1
  N  N58  1  0.55024205  0.54702515  0.83382280  1
  N  N59  1  0.44406456  0.42148261  0.63118736  1
  N  N60  1  0.23224629  0.89301986  0.30975103  1
  N  N61  1  0.09871440  0.75384711  0.12731404  1
  N  N62  1  0.88355081  0.87268582  0.88031432  1
  N  N63  1  0.78326305  0.74625704  0.56429856  1
  N  N64  1  0.58804311  0.85879924  0.36502516  1
  N  N65  1  0.41772716  0.83117967  0.08664950  1
  N  N66  1  0.22171622  0.86930244  0.83163595  1
  N  N67  1  0.10790733  0.75170758  0.63292447  1
  N  N68  1  0.88588436  0.86402426  0.37925755  1
  N  N69  1  0.72765064  0.78372437  0.07463196  1
  N  N70  1  0.55090234  0.86370947  0.81220986  1
  N  N71  1  0.44170092  0.75017286  0.56533742  1
