# generated using pymatgen
data_Al31B5N36
_symmetry_space_group_name_H-M   'P 1'
_cell_length_a   9.16094191
_cell_length_b   9.24124171
_cell_length_c   9.76850140
_cell_angle_alpha   90.22898637
_cell_angle_beta   90.01663361
_cell_angle_gamma   60.22564723
_symmetry_Int_Tables_number   1
_chemical_formula_structural   Al31B5N36
_chemical_formula_sum   'Al31 B5 N36'
_cell_volume   717.80708407
_cell_formula_units_Z   1
loop_
 _symmetry_equiv_pos_site_id
 _symmetry_equiv_pos_as_xyz
  1  'x, y, z'
loop_
 _atom_site_type_symbol
 _atom_site_label
 _atom_site_symmetry_multiplicity
 _atom_site_fract_x
 _atom_site_fract_y
 _atom_site_fract_z
 _atom_site_occupancy
  B  B0  1  0.11120998  0.09939416  0.38378718  1
  B  B1  1  0.58187331  0.49040348  0.15081998  1
  B  B2  1  0.22725841  0.89889326  0.14532800  1
  B  B3  1  0.55083593  0.87984971  0.14319575  1
  B  B4  1  0.77692948  0.76591462  0.38170417  1
  Al  Al5  1  0.22270180  0.20198871  0.13938178  1
  Al  Al6  1  0.78024332  0.09542939  0.88357685  1
  Al  Al7  1  0.89251217  0.20754668  0.62825866  1
  Al  Al8  1  0.44580258  0.08996645  0.37920871  1
  Al  Al9  1  0.56042208  0.20262495  0.13609713  1
  Al  Al10  1  0.11464796  0.09290399  0.88581417  1
  Al  Al11  1  0.22075458  0.20764506  0.62753807  1
  Al  Al12  1  0.78182157  0.09045946  0.38612049  1
  Al  Al13  1  0.89811253  0.19759030  0.14079394  1
  Al  Al14  1  0.44503749  0.09273678  0.88773307  1
  Al  Al15  1  0.55407555  0.20868519  0.63559204  1
  Al  Al16  1  0.10524387  0.43557892  0.38353383  1
  Al  Al17  1  0.22821443  0.55062079  0.13496280  1
  Al  Al18  1  0.77269248  0.43317562  0.88720645  1
  Al  Al19  1  0.88414531  0.54786163  0.62909601  1
  Al  Al20  1  0.44569690  0.42905144  0.38431744  1
  Al  Al21  1  0.10912571  0.43202583  0.88531240  1
  Al  Al22  1  0.22182664  0.54502885  0.63575819  1
  Al  Al23  1  0.78300795  0.43123080  0.38249552  1
  Al  Al24  1  0.86985930  0.55618056  0.13969120  1
  Al  Al25  1  0.44886723  0.43430571  0.88801994  1
  Al  Al26  1  0.55252397  0.54868262  0.63421200  1
  Al  Al27  1  0.10802474  0.77050961  0.37623448  1
  Al  Al28  1  0.76844427  0.76843157  0.88580678  1
  Al  Al29  1  0.88785241  0.87247552  0.62811473  1
  Al  Al30  1  0.44761584  0.76479183  0.35310524  1
  Al  Al31  1  0.11345959  0.76947979  0.88893003  1
  Al  Al32  1  0.22574899  0.87527887  0.62357761  1
  Al  Al33  1  0.88453097  0.87215638  0.13672792  1
  Al  Al34  1  0.44024023  0.77265895  0.90227941  1
  Al  Al35  1  0.55346767  0.87291973  0.62333068  1
  N  N36  1  0.20710097  0.20051328  0.33297879  1
  N  N37  1  0.12061789  0.07997823  0.07895771  1
  N  N38  1  0.89067262  0.21018964  0.82506103  1
  N  N39  1  0.77793292  0.09646297  0.57781296  1
  N  N40  1  0.55668863  0.20738762  0.32721798  1
  N  N41  1  0.45348691  0.08129450  0.08603524  1
  N  N42  1  0.22096187  0.20909277  0.82461633  1
  N  N43  1  0.11302943  0.09473604  0.55119152  1
  N  N44  1  0.91342072  0.19621792  0.33400010  1
  N  N45  1  0.78228535  0.09312061  0.07778600  1
  N  N46  1  0.55354041  0.21055400  0.83083330  1
  N  N47  1  0.44472356  0.09653189  0.57166169  1
  N  N48  1  0.22379725  0.54281569  0.32570344  1
  N  N49  1  0.10657386  0.43406939  0.08124560  1
  N  N50  1  0.88446027  0.54571763  0.82640915  1
  N  N51  1  0.77585076  0.43137001  0.57387434  1
  N  N52  1  0.56323755  0.52885103  0.30294124  1
  N  N53  1  0.46479925  0.43601838  0.08469449  1
  N  N54  1  0.22329012  0.54414790  0.83223500  1
  N  N55  1  0.11004523  0.43281995  0.57684728  1
  N  N56  1  0.87423220  0.56954044  0.33210868  1
  N  N57  1  0.75688310  0.43297950  0.08764858  1
  N  N58  1  0.55128273  0.55242892  0.82828439  1
  N  N59  1  0.44601793  0.43112858  0.57672039  1
  N  N60  1  0.20785317  0.90516733  0.31178532  1
  N  N61  1  0.12161926  0.77832137  0.08498468  1
  N  N62  1  0.88881532  0.87175831  0.82477402  1
  N  N63  1  0.77407991  0.76619347  0.55045299  1
  N  N64  1  0.57891908  0.86632709  0.31145155  1
  N  N65  1  0.42312771  0.80964616  0.09790622  1
  N  N66  1  0.22470895  0.87630977  0.81825589  1
  N  N67  1  0.11182804  0.76436987  0.57015440  1
  N  N68  1  0.87604276  0.86238791  0.33047784  1
  N  N69  1  0.74428108  0.77896590  0.07800576  1
  N  N70  1  0.55172510  0.87557121  0.81742255  1
  N  N71  1  0.44575447  0.76031000  0.55363978  1
