# generated using pymatgen
data_Al31B5N36
_symmetry_space_group_name_H-M   'P 1'
_cell_length_a   9.15916467
_cell_length_b   9.22769617
_cell_length_c   9.78608256
_cell_angle_alpha   89.87986916
_cell_angle_beta   90.01008004
_cell_angle_gamma   60.27406014
_symmetry_Int_Tables_number   1
_chemical_formula_structural   Al31B5N36
_chemical_formula_sum   'Al31 B5 N36'
_cell_volume   718.25725396
_cell_formula_units_Z   1
loop_
 _symmetry_equiv_pos_site_id
 _symmetry_equiv_pos_as_xyz
  1  'x, y, z'
loop_
 _atom_site_type_symbol
 _atom_site_label
 _atom_site_symmetry_multiplicity
 _atom_site_fract_x
 _atom_site_fract_y
 _atom_site_fract_z
 _atom_site_occupancy
  B  B0  1  0.11606674  0.08809746  0.29226337  1
  B  B1  1  0.58072252  0.48932635  0.03442779  1
  B  B2  1  0.22860083  0.87952557  0.05164217  1
  B  B3  1  0.53400492  0.88436093  0.04887548  1
  B  B4  1  0.76791538  0.76445097  0.29155766  1
  Al  Al5  1  0.22292285  0.19979789  0.05621641  1
  Al  Al6  1  0.78137770  0.09078627  0.79794712  1
  Al  Al7  1  0.89546924  0.20248251  0.54407900  1
  Al  Al8  1  0.44930285  0.08298415  0.29525233  1
  Al  Al9  1  0.56084348  0.19666940  0.04691773  1
  Al  Al10  1  0.11356521  0.09240174  0.80603854  1
  Al  Al11  1  0.22003266  0.20178239  0.54400935  1
  Al  Al12  1  0.78151572  0.08789986  0.29997923  1
  Al  Al13  1  0.89404058  0.19726994  0.05527641  1
  Al  Al14  1  0.44385439  0.09014512  0.80393058  1
  Al  Al15  1  0.55458381  0.20494073  0.54870065  1
  Al  Al16  1  0.10523433  0.43111130  0.29773647  1
  Al  Al17  1  0.22899912  0.54714134  0.04818063  1
  Al  Al18  1  0.78115829  0.42447350  0.80219147  1
  Al  Al19  1  0.88397949  0.54502566  0.54417547  1
  Al  Al20  1  0.44821853  0.43051628  0.29471473  1
  Al  Al21  1  0.10953224  0.42850694  0.80024991  1
  Al  Al22  1  0.22289702  0.54045462  0.54855460  1
  Al  Al23  1  0.77319677  0.43226953  0.29580756  1
  Al  Al24  1  0.87344682  0.54934510  0.05500326  1
  Al  Al25  1  0.44554463  0.42500986  0.80152346  1
  Al  Al26  1  0.55291021  0.54387237  0.55072223  1
  Al  Al27  1  0.11124628  0.76863488  0.29613790  1
  Al  Al28  1  0.77457710  0.76287074  0.80781765  1
  Al  Al29  1  0.88757780  0.86734335  0.54447023  1
  Al  Al30  1  0.44355115  0.77042438  0.28406673  1
  Al  Al31  1  0.11186223  0.76554055  0.80597854  1
  Al  Al32  1  0.22421306  0.87596193  0.54974087  1
  Al  Al33  1  0.88927105  0.86953925  0.05783439  1
  Al  Al34  1  0.44560844  0.75855867  0.83044384  1
  Al  Al35  1  0.55837420  0.86686674  0.54927727  1
  N  N36  1  0.21124287  0.19269401  0.34632219  1
  N  N37  1  0.11842697  0.07801096  0.12295020  1
  N  N38  1  0.89054252  0.20335400  0.86222017  1
  N  N39  1  0.78095976  0.09140326  0.60227792  1
  N  N40  1  0.55270089  0.20743416  0.35452076  1
  N  N41  1  0.45426094  0.07592275  0.10205000  1
  N  N42  1  0.22088812  0.20753040  0.86292686  1
  N  N43  1  0.11225256  0.09280376  0.61513976  1
  N  N44  1  0.91284617  0.19538829  0.34712026  1
  N  N45  1  0.77882375  0.09110035  0.11013369  1
  N  N46  1  0.55746450  0.20230731  0.85535627  1
  N  N47  1  0.44390763  0.09049888  0.60776385  1
  N  N48  1  0.22374394  0.54093582  0.35363419  1
  N  N49  1  0.11027166  0.43234464  0.10615318  1
  N  N50  1  0.88670445  0.54053308  0.86258043  1
  N  N51  1  0.77843860  0.42598332  0.60683543  1
  N  N52  1  0.54990398  0.54859248  0.35786951  1
  N  N53  1  0.46440918  0.43130767  0.09811944  1
  N  N54  1  0.22254101  0.54066167  0.85671097  1
  N  N55  1  0.10999752  0.42656039  0.60273233  1
  N  N56  1  0.87287903  0.56387960  0.34644257  1
  N  N57  1  0.75247294  0.43309354  0.10056894  1
  N  N58  1  0.56169745  0.52730037  0.88136804  1
  N  N59  1  0.44637265  0.42702264  0.60955069  1
  N  N60  1  0.21262622  0.89864002  0.35482653  1
  N  N61  1  0.12986526  0.77390134  0.10415547  1
  N  N62  1  0.88893139  0.87130754  0.86415519  1
  N  N63  1  0.77672171  0.76072344  0.61591426  1
  N  N64  1  0.57972706  0.85825755  0.35485971  1
  N  N65  1  0.42277759  0.80347880  0.09517064  1
  N  N66  1  0.21904467  0.87806372  0.88514272  1
  N  N67  1  0.11168161  0.76343208  0.60868711  1
  N  N68  1  0.87828898  0.85700555  0.34768674  1
  N  N69  1  0.75409418  0.77160239  0.12458366  1
  N  N70  1  0.55662351  0.87395252  0.88534154  1
  N  N71  1  0.44471517  0.76026490  0.62559433  1
