# generated using pymatgen
data_Al31B5N36
_symmetry_space_group_name_H-M   'P 1'
_cell_length_a   9.15099060
_cell_length_b   9.22898164
_cell_length_c   9.87116402
_cell_angle_alpha   89.98138957
_cell_angle_beta   90.30900138
_cell_angle_gamma   60.34067836
_symmetry_Int_Tables_number   1
_chemical_formula_structural   Al31B5N36
_chemical_formula_sum   'Al31 B5 N36'
_cell_volume   724.42374295
_cell_formula_units_Z   1
loop_
 _symmetry_equiv_pos_site_id
 _symmetry_equiv_pos_as_xyz
  1  'x, y, z'
loop_
 _atom_site_type_symbol
 _atom_site_label
 _atom_site_symmetry_multiplicity
 _atom_site_fract_x
 _atom_site_fract_y
 _atom_site_fract_z
 _atom_site_occupancy
  B  B0  1  0.11222153  0.08898014  0.30657305  1
  B  B1  1  0.58856903  0.47259274  0.04996736  1
  B  B2  1  0.21247103  0.88978866  0.07196155  1
  B  B3  1  0.54424304  0.88599297  0.08653299  1
  B  B4  1  0.76709149  0.76704859  0.30774443  1
  Al  Al5  1  0.22371952  0.19895849  0.06907322  1
  Al  Al6  1  0.78109814  0.08962132  0.80977542  1
  Al  Al7  1  0.89537337  0.20300001  0.55821200  1
  Al  Al8  1  0.44796578  0.08670179  0.31439888  1
  Al  Al9  1  0.56117637  0.19298859  0.05802011  1
  Al  Al10  1  0.11610208  0.09056842  0.81867896  1
  Al  Al11  1  0.21926887  0.20277464  0.55699050  1
  Al  Al12  1  0.78188661  0.08779983  0.31210371  1
  Al  Al13  1  0.89444785  0.19472872  0.06476020  1
  Al  Al14  1  0.44425750  0.08750628  0.81194618  1
  Al  Al15  1  0.55533731  0.20690155  0.56176892  1
  Al  Al16  1  0.10506534  0.43202062  0.31072754  1
  Al  Al17  1  0.22892376  0.54652921  0.06023985  1
  Al  Al18  1  0.77992285  0.42575658  0.81394917  1
  Al  Al19  1  0.88439331  0.54464007  0.55583829  1
  Al  Al20  1  0.44912164  0.42805138  0.30684945  1
  Al  Al21  1  0.11016888  0.42804733  0.81274916  1
  Al  Al22  1  0.22398907  0.54168457  0.56240732  1
  Al  Al23  1  0.77643206  0.42902698  0.30757842  1
  Al  Al24  1  0.87188362  0.54914192  0.06652331  1
  Al  Al25  1  0.44573678  0.42582561  0.81415687  1
  Al  Al26  1  0.55371424  0.54337940  0.55859935  1
  Al  Al27  1  0.10950697  0.76811510  0.30915595  1
  Al  Al28  1  0.77477880  0.76117129  0.81501444  1
  Al  Al29  1  0.88870847  0.86772466  0.55673925  1
  Al  Al30  1  0.44392633  0.76888350  0.31141501  1
  Al  Al31  1  0.11391085  0.76577490  0.81834515  1
  Al  Al32  1  0.22236642  0.87782911  0.55851975  1
  Al  Al33  1  0.88717714  0.86956567  0.06778164  1
  Al  Al34  1  0.44872419  0.75857630  0.91643353  1
  Al  Al35  1  0.55910422  0.86789277  0.56118867  1
  N  N36  1  0.20937702  0.19421458  0.36001995  1
  N  N37  1  0.11668017  0.07811277  0.13663636  1
  N  N38  1  0.89104754  0.20280129  0.87379421  1
  N  N39  1  0.78156695  0.09121725  0.61569793  1
  N  N40  1  0.55484952  0.20767743  0.36923062  1
  N  N41  1  0.45483247  0.07621549  0.12181437  1
  N  N42  1  0.22275743  0.20684240  0.87710542  1
  N  N43  1  0.11256396  0.09319265  0.62901557  1
  N  N44  1  0.91319603  0.19478633  0.36115967  1
  N  N45  1  0.77917210  0.08956554  0.12271654  1
  N  N46  1  0.55685525  0.20152696  0.86814875  1
  N  N47  1  0.44372956  0.09354879  0.61763954  1
  N  N48  1  0.22489560  0.54088907  0.36748894  1
  N  N49  1  0.10910999  0.43315442  0.11975707  1
  N  N50  1  0.88719557  0.54014724  0.87580879  1
  N  N51  1  0.77878451  0.42616048  0.62022293  1
  N  N52  1  0.55560698  0.54032870  0.36636437  1
  N  N53  1  0.46535638  0.42581742  0.11202698  1
  N  N54  1  0.22312000  0.54101522  0.87043210  1
  N  N55  1  0.11061993  0.42723682  0.61635402  1
  N  N56  1  0.87308826  0.56416419  0.35854858  1
  N  N57  1  0.75666243  0.42715416  0.11415745  1
  N  N58  1  0.56420394  0.52224552  0.90183149  1
  N  N59  1  0.44772141  0.42768564  0.62395118  1
  N  N60  1  0.20548815  0.90229338  0.36448627  1
  N  N61  1  0.12725598  0.77398382  0.11903977  1
  N  N62  1  0.88980064  0.86962374  0.87621359  1
  N  N63  1  0.77990892  0.75966327  0.62544929  1
  N  N64  1  0.58215646  0.86150716  0.36736265  1
  N  N65  1  0.42711617  0.80283651  0.11367087  1
  N  N66  1  0.21465348  0.88070704  0.90677076  1
  N  N67  1  0.11167059  0.76463440  0.62267172  1
  N  N68  1  0.87815857  0.85706608  0.36031952  1
  N  N69  1  0.74653329  0.77503050  0.13856781  1
  N  N70  1  0.55940279  0.87337460  0.88729960  1
  N  N71  1  0.44314495  0.76169298  0.60134034  1
