# generated using pymatgen
data_Al31B5N36
_symmetry_space_group_name_H-M   'P 1'
_cell_length_a   9.11934184
_cell_length_b   9.19798136
_cell_length_c   10.17110811
_cell_angle_alpha   89.71560760
_cell_angle_beta   89.94680483
_cell_angle_gamma   60.28249311
_symmetry_Int_Tables_number   1
_chemical_formula_structural   Al31B5N36
_chemical_formula_sum   'Al31 B5 N36'
_cell_volume   740.93162149
_cell_formula_units_Z   1
loop_
 _symmetry_equiv_pos_site_id
 _symmetry_equiv_pos_as_xyz
  1  'x, y, z'
loop_
 _atom_site_type_symbol
 _atom_site_label
 _atom_site_symmetry_multiplicity
 _atom_site_fract_x
 _atom_site_fract_y
 _atom_site_fract_z
 _atom_site_occupancy
  B  B0  1  0.11208625  0.09366693  0.34335135  1
  B  B1  1  0.58744904  0.47513238  0.04880404  1
  B  B2  1  0.22493832  0.89710996  0.10798647  1
  B  B3  1  0.53897535  0.88561742  0.10033462  1
  B  B4  1  0.77253465  0.76548132  0.35438444  1
  Al  Al5  1  0.22215138  0.20185906  0.06427189  1
  Al  Al6  1  0.78133998  0.08882564  0.80748943  1
  Al  Al7  1  0.89466561  0.20263970  0.55921434  1
  Al  Al8  1  0.45104437  0.08412943  0.31389964  1
  Al  Al9  1  0.56138762  0.19319685  0.05876093  1
  Al  Al10  1  0.11331233  0.09319398  0.81688796  1
  Al  Al11  1  0.22084480  0.20311268  0.55701895  1
  Al  Al12  1  0.78244897  0.08755432  0.31061130  1
  Al  Al13  1  0.89486694  0.19318636  0.06050210  1
  Al  Al14  1  0.44075975  0.09554698  0.80925719  1
  Al  Al15  1  0.55578767  0.20540444  0.55850216  1
  Al  Al16  1  0.10328097  0.43570863  0.30815995  1
  Al  Al17  1  0.22853915  0.55093768  0.05939833  1
  Al  Al18  1  0.77924507  0.42338863  0.81359515  1
  Al  Al19  1  0.88724233  0.54120632  0.56231265  1
  Al  Al20  1  0.45017407  0.42907286  0.30337009  1
  Al  Al21  1  0.11289985  0.42404232  0.80935221  1
  Al  Al22  1  0.22516361  0.53744412  0.55688471  1
  Al  Al23  1  0.77473690  0.43494099  0.30467196  1
  Al  Al24  1  0.86544104  0.55272036  0.05631329  1
  Al  Al25  1  0.44632712  0.42482745  0.81535306  1
  Al  Al26  1  0.55974138  0.53036408  0.55783895  1
  Al  Al27  1  0.11281953  0.77112208  0.31033155  1
  Al  Al28  1  0.78003169  0.75697759  0.81968727  1
  Al  Al29  1  0.88915094  0.86750714  0.55838778  1
  Al  Al30  1  0.44281474  0.77471117  0.38215142  1
  Al  Al31  1  0.11051020  0.75414473  0.80846540  1
  Al  Al32  1  0.22833797  0.86922181  0.62413059  1
  Al  Al33  1  0.88230265  0.87257257  0.06079809  1
  Al  Al34  1  0.44086888  0.76552561  0.90297884  1
  Al  Al35  1  0.55583224  0.86571603  0.62556661  1
  N  N36  1  0.20817859  0.19567299  0.36470652  1
  N  N37  1  0.11769770  0.07948082  0.11138665  1
  N  N38  1  0.88873598  0.20134823  0.87358514  1
  N  N39  1  0.78086462  0.09088818  0.61720717  1
  N  N40  1  0.55541252  0.20835196  0.36972374  1
  N  N41  1  0.45170566  0.07921400  0.12419754  1
  N  N42  1  0.22353518  0.20583893  0.87720406  1
  N  N43  1  0.10850442  0.10190639  0.62835837  1
  N  N44  1  0.91395588  0.19706871  0.36565663  1
  N  N45  1  0.77941017  0.08936119  0.12564897  1
  N  N46  1  0.55850381  0.19934334  0.87241684  1
  N  N47  1  0.44083302  0.10051524  0.61868992  1
  N  N48  1  0.22606795  0.54067479  0.36606964  1
  N  N49  1  0.10292788  0.43951478  0.12104896  1
  N  N50  1  0.89139095  0.53263903  0.87147421  1
  N  N51  1  0.77829234  0.42490084  0.62417102  1
  N  N52  1  0.55825118  0.53543467  0.37033281  1
  N  N53  1  0.46499220  0.42756465  0.11229340  1
  N  N54  1  0.22341538  0.53612596  0.87381417  1
  N  N55  1  0.11338316  0.42480440  0.61748947  1
  N  N56  1  0.87268120  0.56808771  0.36751570  1
  N  N57  1  0.75603649  0.42843838  0.11428740  1
  N  N58  1  0.56456319  0.52154015  0.90307470  1
  N  N59  1  0.44703121  0.42595580  0.62722466  1
  N  N60  1  0.20353601  0.90940282  0.36015267  1
  N  N61  1  0.13186405  0.77982973  0.11946815  1
  N  N62  1  0.89242519  0.86991800  0.87431568  1
  N  N63  1  0.78892478  0.75411355  0.62858410  1
  N  N64  1  0.58949938  0.86012026  0.36041207  1
  N  N65  1  0.41544056  0.81780336  0.08600150  1
  N  N66  1  0.23342643  0.86093707  0.82090570  1
  N  N67  1  0.10898265  0.75454008  0.61817763  1
  N  N68  1  0.87890832  0.85634415  0.36604027  1
  N  N69  1  0.72761611  0.78455866  0.08462398  1
  N  N70  1  0.54829660  0.86490173  0.81836522  1
  N  N71  1  0.44587664  0.75856842  0.56935351  1
