# generated using pymatgen
data_Al31B5N36
_symmetry_space_group_name_H-M   'P 1'
_cell_length_a   9.17548695
_cell_length_b   9.25977724
_cell_length_c   10.14597324
_cell_angle_alpha   90.86735309
_cell_angle_beta   89.73563967
_cell_angle_gamma   60.18424159
_symmetry_Int_Tables_number   1
_chemical_formula_structural   Al31B5N36
_chemical_formula_sum   'Al31 B5 N36'
_cell_volume   747.76477900
_cell_formula_units_Z   1
loop_
 _symmetry_equiv_pos_site_id
 _symmetry_equiv_pos_as_xyz
  1  'x, y, z'
loop_
 _atom_site_type_symbol
 _atom_site_label
 _atom_site_symmetry_multiplicity
 _atom_site_fract_x
 _atom_site_fract_y
 _atom_site_fract_z
 _atom_site_occupancy
  B  B0  1  0.11556407  0.09632994  0.30944684  1
  B  B1  1  0.58773187  0.47950679  0.16053893  1
  B  B2  1  0.23302189  0.89123304  0.15537888  1
  B  B3  1  0.53546382  0.88538403  0.10813891  1
  B  B4  1  0.77297858  0.75644965  0.40299620  1
  Al  Al5  1  0.22636994  0.19429062  0.08227672  1
  Al  Al6  1  0.78034258  0.09168649  0.81942412  1
  Al  Al7  1  0.89937645  0.19280916  0.56294556  1
  Al  Al8  1  0.45735859  0.07476382  0.32002860  1
  Al  Al9  1  0.56607157  0.18934228  0.07298415  1
  Al  Al10  1  0.10736765  0.10279614  0.82169652  1
  Al  Al11  1  0.22351155  0.19363556  0.55530732  1
  Al  Al12  1  0.78833821  0.08200504  0.31904243  1
  Al  Al13  1  0.89590956  0.19571817  0.07851339  1
  Al  Al14  1  0.43753848  0.10160984  0.81374497  1
  Al  Al15  1  0.56039016  0.19670744  0.56536012  1
  Al  Al16  1  0.10192642  0.43087497  0.37094375  1
  Al  Al17  1  0.22780826  0.55105198  0.09777093  1
  Al  Al18  1  0.76829948  0.43673559  0.89764203  1
  Al  Al19  1  0.89195056  0.53266141  0.63740425  1
  Al  Al20  1  0.45237687  0.42496763  0.37900545  1
  Al  Al21  1  0.10279461  0.43344894  0.90367864  1
  Al  Al22  1  0.21938680  0.54114136  0.56749640  1
  Al  Al23  1  0.78368121  0.43015067  0.38606573  1
  Al  Al24  1  0.85663575  0.56593410  0.15117497  1
  Al  Al25  1  0.45307082  0.43134300  0.89705366  1
  Al  Al26  1  0.55491832  0.53804235  0.64161198  1
  Al  Al27  1  0.10868238  0.76953393  0.31393859  1
  Al  Al28  1  0.76159472  0.76448201  0.88544985  1
  Al  Al29  1  0.89214064  0.86801865  0.56483550  1
  Al  Al30  1  0.45359045  0.76031603  0.37759703  1
  Al  Al31  1  0.11022891  0.75334011  0.82459853  1
  Al  Al32  1  0.22992673  0.86538077  0.64103853  1
  Al  Al33  1  0.89313329  0.87462091  0.06954242  1
  Al  Al34  1  0.43366378  0.77455860  0.90063055  1
  Al  Al35  1  0.55646364  0.86432216  0.62042904  1
  N  N36  1  0.21658847  0.18591711  0.36322680  1
  N  N37  1  0.11247074  0.09054642  0.14941459  1
  N  N38  1  0.88945840  0.20298782  0.88956179  1
  N  N39  1  0.78099233  0.09035479  0.63067945  1
  N  N40  1  0.56375999  0.19389577  0.37570522  1
  N  N41  1  0.45614899  0.07548059  0.13065479  1
  N  N42  1  0.22403253  0.20090248  0.89271543  1
  N  N43  1  0.11031732  0.09839504  0.63304136  1
  N  N44  1  0.92254978  0.18422293  0.37076291  1
  N  N45  1  0.78176320  0.09037361  0.13464668  1
  N  N46  1  0.55812462  0.19884532  0.88401898  1
  N  N47  1  0.43778150  0.10137588  0.62496650  1
  N  N48  1  0.22398931  0.54297391  0.35384916  1
  N  N49  1  0.09415410  0.44012334  0.09884785  1
  N  N50  1  0.88836718  0.53721443  0.82957905  1
  N  N51  1  0.77498613  0.42658673  0.57434564  1
  N  N52  1  0.56618605  0.52654085  0.30603023  1
  N  N53  1  0.47059636  0.42961907  0.09580510  1
  N  N54  1  0.22402261  0.54163101  0.89196310  1
  N  N55  1  0.10753143  0.42442538  0.56696190  1
  N  N56  1  0.87111977  0.56864395  0.33602848  1
  N  N57  1  0.75233042  0.43856883  0.09463764  1
  N  N58  1  0.55259527  0.54597360  0.83090784  1
  N  N59  1  0.44909127  0.42843955  0.57385829  1
  N  N60  1  0.22923191  0.89158435  0.31605488  1
  N  N61  1  0.12164223  0.78182222  0.12692399  1
  N  N62  1  0.88822436  0.87219483  0.88197134  1
  N  N63  1  0.78078749  0.74744817  0.56607014  1
  N  N64  1  0.58872437  0.85460577  0.36256423  1
  N  N65  1  0.41620292  0.82013214  0.08712587  1
  N  N66  1  0.22324739  0.87182332  0.83014501  1
  N  N67  1  0.10672355  0.75421298  0.63190454  1
  N  N68  1  0.88627317  0.86060995  0.37750399  1
  N  N69  1  0.73006330  0.78215292  0.07637782  1
  N  N70  1  0.55171102  0.86728624  0.81451162  1
  N  N71  1  0.44189354  0.75155579  0.56660745  1
