# generated using pymatgen
data_Al31B5N36
_symmetry_space_group_name_H-M   'P 1'
_cell_length_a   9.17772625
_cell_length_b   9.24026584
_cell_length_c   10.02167923
_cell_angle_alpha   90.80121133
_cell_angle_beta   90.20135397
_cell_angle_gamma   60.19369315
_symmetry_Int_Tables_number   1
_chemical_formula_structural   Al31B5N36
_chemical_formula_sum   'Al31 B5 N36'
_cell_volume   737.37628759
_cell_formula_units_Z   1
loop_
 _symmetry_equiv_pos_site_id
 _symmetry_equiv_pos_as_xyz
  1  'x, y, z'
loop_
 _atom_site_type_symbol
 _atom_site_label
 _atom_site_symmetry_multiplicity
 _atom_site_fract_x
 _atom_site_fract_y
 _atom_site_fract_z
 _atom_site_occupancy
  B  B0  1  0.11078830  0.08975788  0.39811217  1
  B  B1  1  0.58498129  0.48182095  0.16890154  1
  B  B2  1  0.22788838  0.89133505  0.15809943  1
  B  B3  1  0.54551695  0.87621623  0.14604932  1
  B  B4  1  0.77093006  0.75612807  0.40384128  1
  Al  Al5  1  0.22953423  0.20017626  0.09475410  1
  Al  Al6  1  0.77976880  0.08445427  0.83298594  1
  Al  Al7  1  0.89482833  0.20226905  0.64474128  1
  Al  Al8  1  0.44842307  0.08342970  0.33235988  1
  Al  Al9  1  0.56542244  0.19129308  0.08480719  1
  Al  Al10  1  0.11079343  0.08761384  0.90526860  1
  Al  Al11  1  0.22271847  0.19898630  0.57022769  1
  Al  Al12  1  0.78046216  0.08184402  0.33633209  1
  Al  Al13  1  0.90308928  0.20056224  0.16100266  1
  Al  Al14  1  0.43703647  0.10163699  0.82804249  1
  Al  Al15  1  0.55742166  0.19752834  0.58151944  1
  Al  Al16  1  0.10251360  0.43811317  0.39454255  1
  Al  Al17  1  0.23187930  0.54924458  0.15470456  1
  Al  Al18  1  0.77453439  0.42799207  0.90639141  1
  Al  Al19  1  0.88706661  0.53838504  0.65015344  1
  Al  Al20  1  0.44534382  0.42949680  0.40082302  1
  Al  Al21  1  0.10545830  0.43818569  0.90662157  1
  Al  Al22  1  0.22260815  0.53765050  0.65287603  1
  Al  Al23  1  0.78541146  0.42451023  0.40203906  1
  Al  Al24  1  0.86410645  0.56026841  0.16066263  1
  Al  Al25  1  0.44941114  0.43400008  0.90576698  1
  Al  Al26  1  0.55405570  0.54125699  0.65360805  1
  Al  Al27  1  0.11585241  0.76501108  0.39021706  1
  Al  Al28  1  0.76477550  0.76418263  0.90383910  1
  Al  Al29  1  0.88544436  0.86818268  0.57435088  1
  Al  Al30  1  0.44999101  0.75956165  0.37954378  1
  Al  Al31  1  0.12512022  0.76212716  0.90699659  1
  Al  Al32  1  0.22464569  0.86791764  0.64282463  1
  Al  Al33  1  0.89015925  0.87400006  0.09600278  1
  Al  Al34  1  0.44245164  0.77206470  0.91548824  1
  Al  Al35  1  0.55420703  0.86330563  0.63867105  1
  N  N36  1  0.21254541  0.19398325  0.37588943  1
  N  N37  1  0.11885342  0.07436436  0.09681311  1
  N  N38  1  0.89342529  0.20807989  0.83976135  1
  N  N39  1  0.77660790  0.08336541  0.64235817  1
  N  N40  1  0.55798875  0.19717516  0.39211639  1
  N  N41  1  0.45600523  0.07807104  0.14373266  1
  N  N42  1  0.22409582  0.20725962  0.89796217  1
  N  N43  1  0.10825383  0.08028610  0.56508651  1
  N  N44  1  0.91835582  0.19245370  0.35130944  1
  N  N45  1  0.77925382  0.09302444  0.14870563  1
  N  N46  1  0.55870194  0.20024641  0.89484723  1
  N  N47  1  0.43591814  0.09908113  0.63734597  1
  N  N48  1  0.22674713  0.53859916  0.33981328  1
  N  N49  1  0.09934707  0.44733333  0.10041003  1
  N  N50  1  0.88532866  0.54133678  0.84253761  1
  N  N51  1  0.77661566  0.42383355  0.58975115  1
  N  N52  1  0.56647722  0.52185744  0.31836088  1
  N  N53  1  0.46548298  0.43391223  0.10226472  1
  N  N54  1  0.22623707  0.53909785  0.84556256  1
  N  N55  1  0.10831353  0.43034177  0.58877754  1
  N  N56  1  0.87297675  0.56430943  0.34850014  1
  N  N57  1  0.75792282  0.42985094  0.10416580  1
  N  N58  1  0.55398518  0.54718564  0.84450482  1
  N  N59  1  0.44457033  0.43041607  0.59258554  1
  N  N60  1  0.21343303  0.89858580  0.32590877  1
  N  N61  1  0.13753042  0.77482726  0.10251334  1
  N  N62  1  0.89259592  0.87005638  0.89994808  1
  N  N63  1  0.77122263  0.75101843  0.57095695  1
  N  N64  1  0.58556209  0.85206911  0.34601372  1
  N  N65  1  0.42355589  0.81094951  0.10612879  1
  N  N66  1  0.22642947  0.87360103  0.83278392  1
  N  N67  1  0.11685574  0.75435156  0.58528701  1
  N  N68  1  0.87891922  0.85685231  0.37935337  1
  N  N69  1  0.73576094  0.77889139  0.09442644  1
  N  N70  1  0.55542387  0.86774825  0.82997361  1
  N  N71  1  0.44385985  0.75292672  0.57377884  1
