# generated using pymatgen
data_Al31B5N36
_symmetry_space_group_name_H-M   'P 1'
_cell_length_a   9.11968441
_cell_length_b   9.19993521
_cell_length_c   10.15416035
_cell_angle_alpha   89.71315254
_cell_angle_beta   89.93666961
_cell_angle_gamma   60.27681877
_symmetry_Int_Tables_number   1
_chemical_formula_structural   Al31B5N36
_chemical_formula_sum   'Al31 B5 N36'
_cell_volume   739.84018813
_cell_formula_units_Z   1
loop_
 _symmetry_equiv_pos_site_id
 _symmetry_equiv_pos_as_xyz
  1  'x, y, z'
loop_
 _atom_site_type_symbol
 _atom_site_label
 _atom_site_symmetry_multiplicity
 _atom_site_fract_x
 _atom_site_fract_y
 _atom_site_fract_z
 _atom_site_occupancy
  B  B0  1  0.11206464  0.09369166  0.33161653  1
  B  B1  1  0.58775516  0.47465980  0.04864461  1
  B  B2  1  0.22563439  0.89618452  0.11214901  1
  B  B3  1  0.53882462  0.88637726  0.10037380  1
  B  B4  1  0.77240141  0.76545691  0.35438085  1
  Al  Al5  1  0.22195106  0.20230023  0.06603168  1
  Al  Al6  1  0.78181846  0.08869481  0.80773043  1
  Al  Al7  1  0.89528415  0.20216416  0.55734547  1
  Al  Al8  1  0.45106184  0.08444036  0.31405220  1
  Al  Al9  1  0.56154587  0.19337784  0.05867698  1
  Al  Al10  1  0.11337619  0.09324582  0.81501136  1
  Al  Al11  1  0.22067127  0.20264958  0.55519600  1
  Al  Al12  1  0.78225460  0.08780199  0.31068576  1
  Al  Al13  1  0.89556550  0.19320544  0.06226564  1
  Al  Al14  1  0.44047001  0.09549612  0.80958126  1
  Al  Al15  1  0.55584765  0.20525654  0.55874142  1
  Al  Al16  1  0.10346905  0.43572549  0.30819035  1
  Al  Al17  1  0.22862243  0.55117946  0.05939511  1
  Al  Al18  1  0.77977600  0.42277823  0.81381768  1
  Al  Al19  1  0.88730731  0.54095309  0.56241761  1
  Al  Al20  1  0.45026560  0.42903057  0.30361345  1
  Al  Al21  1  0.11299110  0.42352594  0.80962092  1
  Al  Al22  1  0.22519494  0.53706538  0.55693691  1
  Al  Al23  1  0.77452335  0.43484737  0.30480194  1
  Al  Al24  1  0.86531214  0.55293221  0.05641143  1
  Al  Al25  1  0.44632385  0.42483345  0.81521015  1
  Al  Al26  1  0.56001756  0.53010598  0.55796447  1
  Al  Al27  1  0.11305067  0.77087824  0.31090233  1
  Al  Al28  1  0.77990122  0.75691248  0.81973498  1
  Al  Al29  1  0.88900962  0.86747534  0.55837784  1
  Al  Al30  1  0.44253305  0.77470992  0.38225967  1
  Al  Al31  1  0.11052895  0.75410813  0.80828350  1
  Al  Al32  1  0.22789761  0.86930496  0.62234332  1
  Al  Al33  1  0.88202942  0.87265920  0.06084305  1
  Al  Al34  1  0.44026171  0.76576057  0.90283531  1
  Al  Al35  1  0.55569925  0.86580264  0.62549671  1
  N  N36  1  0.20864770  0.19621676  0.36295429  1
  N  N37  1  0.11688976  0.08195312  0.12397287  1
  N  N38  1  0.89026858  0.20039212  0.87501455  1
  N  N39  1  0.78119952  0.09091104  0.61719066  1
  N  N40  1  0.55544362  0.20837108  0.36980147  1
  N  N41  1  0.45206093  0.07940081  0.12396832  1
  N  N42  1  0.22298531  0.20496741  0.87859472  1
  N  N43  1  0.10854133  0.10179170  0.62744524  1
  N  N44  1  0.91311365  0.19746267  0.36408228  1
  N  N45  1  0.77952323  0.08927217  0.12543564  1
  N  N46  1  0.55856230  0.19938077  0.87219594  1
  N  N47  1  0.44036118  0.10064069  0.61869159  1
  N  N48  1  0.22610837  0.54064592  0.36597019  1
  N  N49  1  0.10263973  0.44032317  0.12087250  1
  N  N50  1  0.89138463  0.53256546  0.87143682  1
  N  N51  1  0.77874534  0.42410642  0.62416195  1
  N  N52  1  0.55813468  0.53555881  0.37031820  1
  N  N53  1  0.46506207  0.42762302  0.11227341  1
  N  N54  1  0.22343037  0.53595638  0.87368612  1
  N  N55  1  0.11361242  0.42414085  0.61743656  1
  N  N56  1  0.87258611  0.56813288  0.36741554  1
  N  N57  1  0.75594249  0.42868349  0.11420813  1
  N  N58  1  0.56461624  0.52152283  0.90295405  1
  N  N59  1  0.44705629  0.42585840  0.62713646  1
  N  N60  1  0.20429151  0.90828509  0.35941500  1
  N  N61  1  0.13204205  0.78055707  0.11931838  1
  N  N62  1  0.89243619  0.86969259  0.87429393  1
  N  N63  1  0.78883359  0.75402179  0.62856994  1
  N  N64  1  0.58930339  0.86020094  0.36038918  1
  N  N65  1  0.41394509  0.81953182  0.08592078  1
  N  N66  1  0.23280229  0.86140932  0.82099125  1
  N  N67  1  0.10893204  0.75425886  0.61796944  1
  N  N68  1  0.87877201  0.85631216  0.36583888  1
  N  N69  1  0.72727514  0.78469390  0.08461626  1
  N  N70  1  0.54816004  0.86498506  0.81871961  1
  N  N71  1  0.44626998  0.75810036  0.56980308  1
