# generated using pymatgen
data_Al31B5N36
_symmetry_space_group_name_H-M   'P 1'
_cell_length_a   9.14185543
_cell_length_b   9.18533775
_cell_length_c   10.35941043
_cell_angle_alpha   91.44127373
_cell_angle_beta   90.84000504
_cell_angle_gamma   60.22242905
_symmetry_Int_Tables_number   1
_chemical_formula_structural   Al31B5N36
_chemical_formula_sum   'Al31 B5 N36'
_cell_volume   754.78875295
_cell_formula_units_Z   1
loop_
 _symmetry_equiv_pos_site_id
 _symmetry_equiv_pos_as_xyz
  1  'x, y, z'
loop_
 _atom_site_type_symbol
 _atom_site_label
 _atom_site_symmetry_multiplicity
 _atom_site_fract_x
 _atom_site_fract_y
 _atom_site_fract_z
 _atom_site_occupancy
  B  B0  1  0.11852141  0.08569514  0.35393043  1
  B  B1  1  0.58535774  0.47901767  0.16215126  1
  B  B2  1  0.22772437  0.89019933  0.09344802  1
  B  B3  1  0.53744238  0.88324034  0.10020364  1
  B  B4  1  0.77192784  0.76293101  0.36063672  1
  Al  Al5  1  0.22740458  0.19472762  0.07089630  1
  Al  Al6  1  0.77415717  0.08780104  0.82240612  1
  Al  Al7  1  0.88451692  0.21086147  0.64534009  1
  Al  Al8  1  0.45070268  0.07774094  0.32037091  1
  Al  Al9  1  0.56330429  0.19072619  0.07526857  1
  Al  Al10  1  0.11496773  0.09717853  0.83235145  1
  Al  Al11  1  0.22213449  0.19636374  0.56307726  1
  Al  Al12  1  0.78154587  0.07797616  0.32440416  1
  Al  Al13  1  0.90346409  0.19364066  0.14596047  1
  Al  Al14  1  0.43652219  0.10689176  0.81463179  1
  Al  Al15  1  0.55779043  0.19850627  0.56605199  1
  Al  Al16  1  0.10281550  0.43989864  0.38592828  1
  Al  Al17  1  0.23009834  0.55415524  0.14652448  1
  Al  Al18  1  0.77294932  0.42726789  0.90347515  1
  Al  Al19  1  0.89843248  0.52384906  0.64632639  1
  Al  Al20  1  0.44428995  0.43188293  0.39046720  1
  Al  Al21  1  0.10611401  0.43916885  0.90069763  1
  Al  Al22  1  0.22372646  0.53727268  0.64303252  1
  Al  Al23  1  0.78667190  0.42529823  0.39043677  1
  Al  Al24  1  0.86070875  0.56205308  0.14532570  1
  Al  Al25  1  0.44800111  0.43543583  0.89927399  1
  Al  Al26  1  0.55681939  0.53898935  0.64505095  1
  Al  Al27  1  0.11473519  0.76640555  0.39349601  1
  Al  Al28  1  0.77586283  0.76111431  0.83197617  1
  Al  Al29  1  0.88277981  0.86565885  0.57305831  1
  Al  Al30  1  0.44837260  0.76303742  0.38606697  1
  Al  Al31  1  0.12332624  0.76143320  0.89214108  1
  Al  Al32  1  0.22705604  0.86641791  0.63710371  1
  Al  Al33  1  0.87852771  0.87339897  0.06895770  1
  Al  Al34  1  0.44496187  0.76841007  0.89349891  1
  Al  Al35  1  0.55562736  0.86691193  0.63159705  1
  N  N36  1  0.21242518  0.18678812  0.37233011  1
  N  N37  1  0.11931293  0.07204495  0.08853688  1
  N  N38  1  0.88108515  0.21248110  0.83629692  1
  N  N39  1  0.77374174  0.08677923  0.63430174  1
  N  N40  1  0.55797915  0.19741499  0.38058466  1
  N  N41  1  0.45216495  0.07577130  0.13413747  1
  N  N42  1  0.22734972  0.20757049  0.88868982  1
  N  N43  1  0.11436408  0.09966363  0.63827783  1
  N  N44  1  0.92386910  0.18908177  0.33689485  1
  N  N45  1  0.77812954  0.08548923  0.14245689  1
  N  N46  1  0.55759817  0.20060809  0.89140574  1
  N  N47  1  0.43801230  0.10423100  0.62878257  1
  N  N48  1  0.22414543  0.54338699  0.32770875  1
  N  N49  1  0.09885798  0.44889420  0.08859414  1
  N  N50  1  0.89166319  0.52571744  0.83493106  1
  N  N51  1  0.77744877  0.42431475  0.57412397  1
  N  N52  1  0.56565366  0.52402075  0.30780570  1
  N  N53  1  0.46386531  0.43494345  0.09410432  1
  N  N54  1  0.22614423  0.53618520  0.83197243  1
  N  N55  1  0.11064036  0.43113328  0.57126231  1
  N  N56  1  0.87190241  0.56921581  0.33384484  1
  N  N57  1  0.75645630  0.42731379  0.09745031  1
  N  N58  1  0.55650932  0.54153410  0.83199945  1
  N  N59  1  0.44376259  0.43318096  0.57713902  1
  N  N60  1  0.21004632  0.90229252  0.35705219  1
  N  N61  1  0.13958858  0.77585665  0.08120690  1
  N  N62  1  0.88967876  0.87194049  0.88692354  1
  N  N63  1  0.78779530  0.75313272  0.63976058  1
  N  N64  1  0.58894462  0.85381422  0.36763950  1
  N  N65  1  0.41959223  0.81312610  0.07544531  1
  N  N66  1  0.22940901  0.86332920  0.82239664  1
  N  N67  1  0.11582947  0.75588437  0.57827362  1
  N  N68  1  0.87381518  0.85429662  0.38125152  1
  N  N69  1  0.72723446  0.78235421  0.08731046  1
  N  N70  1  0.54521246  0.87612675  0.82150585  1
  N  N71  1  0.44807583  0.75152688  0.57188367  1
