# generated using pymatgen
data_Al31B5N36
_symmetry_space_group_name_H-M   'P 1'
_cell_length_a   9.12008606
_cell_length_b   9.21709635
_cell_length_c   10.24244774
_cell_angle_alpha   90.26757946
_cell_angle_beta   89.90558701
_cell_angle_gamma   60.41667953
_symmetry_Int_Tables_number   1
_chemical_formula_structural   Al31B5N36
_chemical_formula_sum   'Al31 B5 N36'
_cell_volume   748.73209068
_cell_formula_units_Z   1
loop_
 _symmetry_equiv_pos_site_id
 _symmetry_equiv_pos_as_xyz
  1  'x, y, z'
loop_
 _atom_site_type_symbol
 _atom_site_label
 _atom_site_symmetry_multiplicity
 _atom_site_fract_x
 _atom_site_fract_y
 _atom_site_fract_z
 _atom_site_occupancy
  B  B0  1  0.11694875  0.08718245  0.35265086  1
  B  B1  1  0.58949977  0.48399532  0.16135162  1
  B  B2  1  0.22850038  0.89215159  0.09866440  1
  B  B3  1  0.54058624  0.88225513  0.09559230  1
  B  B4  1  0.77641748  0.76507449  0.35621077  1
  Al  Al5  1  0.22513852  0.19841499  0.06210268  1
  Al  Al6  1  0.78010467  0.08833332  0.80916678  1
  Al  Al7  1  0.89697746  0.19474062  0.55922222  1
  Al  Al8  1  0.45266884  0.07886395  0.31408485  1
  Al  Al9  1  0.56194244  0.19488274  0.06097225  1
  Al  Al10  1  0.11239569  0.09511514  0.81943167  1
  Al  Al11  1  0.21984667  0.20451859  0.56067428  1
  Al  Al12  1  0.78476672  0.08345359  0.31031281  1
  Al  Al13  1  0.89494715  0.19111542  0.06526084  1
  Al  Al14  1  0.44042826  0.09777157  0.80785663  1
  Al  Al15  1  0.55665404  0.20342938  0.55855399  1
  Al  Al16  1  0.10470047  0.43288277  0.30816638  1
  Al  Al17  1  0.23434337  0.54785635  0.06326300  1
  Al  Al18  1  0.77346132  0.42506688  0.86397614  1
  Al  Al19  1  0.89128465  0.54317424  0.56168447  1
  Al  Al20  1  0.44075343  0.42252983  0.31271880  1
  Al  Al21  1  0.11144358  0.42619892  0.81311132  1
  Al  Al22  1  0.22356372  0.53765352  0.55913926  1
  Al  Al23  1  0.78272957  0.42858706  0.36288900  1
  Al  Al24  1  0.86793141  0.55288633  0.06985874  1
  Al  Al25  1  0.44289842  0.42115573  0.81174273  1
  Al  Al26  1  0.55919811  0.54014251  0.63138562  1
  Al  Al27  1  0.11450653  0.77076404  0.31038808  1
  Al  Al28  1  0.77852796  0.75734843  0.82205043  1
  Al  Al29  1  0.88995412  0.86626879  0.56090541  1
  Al  Al30  1  0.44968756  0.76550750  0.37936272  1
  Al  Al31  1  0.11131033  0.75485867  0.81026723  1
  Al  Al32  1  0.22864412  0.86938028  0.62415681  1
  Al  Al33  1  0.88390102  0.87137340  0.06038085  1
  Al  Al34  1  0.44232895  0.76443053  0.89082228  1
  Al  Al35  1  0.55645672  0.86582767  0.62171120  1
  N  N36  1  0.20850807  0.19388584  0.36851325  1
  N  N37  1  0.12248894  0.07162185  0.09602957  1
  N  N38  1  0.88773099  0.19962316  0.87589002  1
  N  N39  1  0.77996148  0.08952174  0.62073923  1
  N  N40  1  0.55821329  0.20412694  0.37219502  1
  N  N41  1  0.45291786  0.07567498  0.12447226  1
  N  N42  1  0.22356591  0.20867952  0.87621237  1
  N  N43  1  0.10766811  0.10253861  0.63045404  1
  N  N44  1  0.92200615  0.18270290  0.36659866  1
  N  N45  1  0.77990006  0.08711804  0.12721607  1
  N  N46  1  0.55764563  0.20163700  0.87503322  1
  N  N47  1  0.44051647  0.09965370  0.61828663  1
  N  N48  1  0.22171655  0.54241035  0.37133122  1
  N  N49  1  0.10866350  0.43514797  0.12327955  1
  N  N50  1  0.89166863  0.53501198  0.87930260  1
  N  N51  1  0.77450673  0.42540221  0.56229110  1
  N  N52  1  0.55798274  0.54216286  0.30434732  1
  N  N53  1  0.46556561  0.42188356  0.12384237  1
  N  N54  1  0.22429564  0.53768334  0.87773204  1
  N  N55  1  0.11184675  0.42576026  0.62270747  1
  N  N56  1  0.87884171  0.57179313  0.36840137  1
  N  N57  1  0.76160479  0.42437888  0.10876046  1
  N  N58  1  0.55524657  0.54381370  0.82015061  1
  N  N59  1  0.44287251  0.42104217  0.62254838  1
  N  N60  1  0.21080102  0.90476051  0.36023382  1
  N  N61  1  0.13345008  0.77687139  0.12015081  1
  N  N62  1  0.89223438  0.87044844  0.87518402  1
  N  N63  1  0.78969182  0.75260711  0.63130878  1
  N  N64  1  0.59271660  0.85738818  0.36428331  1
  N  N65  1  0.42057170  0.81065186  0.07533227  1
  N  N66  1  0.23070316  0.86525849  0.81816061  1
  N  N67  1  0.10893458  0.75444175  0.62043125  1
  N  N68  1  0.88085320  0.85703365  0.36863860  1
  N  N69  1  0.72925153  0.78453111  0.08584462  1
  N  N70  1  0.54776730  0.87009287  0.81529477  1
  N  N71  1  0.44856388  0.75112620  0.56365514  1
