# generated using pymatgen
data_Al31B5N36
_symmetry_space_group_name_H-M   'P 1'
_cell_length_a   9.16092192
_cell_length_b   9.24122218
_cell_length_c   9.76857059
_cell_angle_alpha   90.22898314
_cell_angle_beta   90.01656833
_cell_angle_gamma   60.22557730
_symmetry_Int_Tables_number   1
_chemical_formula_structural   Al31B5N36
_chemical_formula_sum   'Al31 B5 N36'
_cell_volume   717.80858229
_cell_formula_units_Z   1
loop_
 _symmetry_equiv_pos_site_id
 _symmetry_equiv_pos_as_xyz
  1  'x, y, z'
loop_
 _atom_site_type_symbol
 _atom_site_label
 _atom_site_symmetry_multiplicity
 _atom_site_fract_x
 _atom_site_fract_y
 _atom_site_fract_z
 _atom_site_occupancy
  B  B0  1  0.11203860  0.09485160  0.38925156  1
  B  B1  1  0.58270200  0.48586029  0.15628291  1
  B  B2  1  0.22808972  0.89435513  0.15079234  1
  B  B3  1  0.55166507  0.87530613  0.14865761  1
  B  B4  1  0.77775829  0.76137151  0.38716677  1
  Al  Al5  1  0.22352861  0.19744944  0.14484541  1
  Al  Al6  1  0.78107089  0.09088673  0.88904376  1
  Al  Al7  1  0.89333990  0.20300224  0.63371984  1
  Al  Al8  1  0.44663031  0.08542376  0.38466862  1
  Al  Al9  1  0.56124846  0.19808478  0.14155996  1
  Al  Al10  1  0.11547525  0.08836112  0.89127697  1
  Al  Al11  1  0.22158382  0.20310062  0.63299912  1
  Al  Al12  1  0.78264825  0.08591648  0.39158208  1
  Al  Al13  1  0.89894121  0.19304785  0.14626178  1
  Al  Al14  1  0.44586468  0.08819439  0.89319569  1
  Al  Al15  1  0.55490380  0.20414119  0.64105480  1
  Al  Al16  1  0.10607146  0.43103763  0.38900270  1
  Al  Al17  1  0.22904122  0.54607842  0.14043031  1
  Al  Al18  1  0.77352169  0.42863083  0.89266941  1
  Al  Al19  1  0.88497233  0.54331957  0.63455967  1
  Al  Al20  1  0.44652611  0.42450906  0.38978505  1
  Al  Al21  1  0.10995474  0.42748237  0.89077298  1
  Al  Al22  1  0.22265484  0.54048639  0.64122037  1
  Al  Al23  1  0.78383538  0.42668870  0.38796300  1
  Al  Al24  1  0.87068822  0.55163682  0.14515505  1
  Al  Al25  1  0.44969350  0.42976310  0.89348284  1
  Al  Al26  1  0.55335174  0.54414044  0.63968015  1
  Al  Al27  1  0.10885335  0.76596785  0.38170015  1
  Al  Al28  1  0.76927240  0.76388826  0.89126901  1
  Al  Al29  1  0.88867901  0.86793440  0.63357587  1
  Al  Al30  1  0.44844536  0.76024836  0.35856864  1
  Al  Al31  1  0.11428541  0.76493492  0.89439479  1
  Al  Al32  1  0.22657747  0.87073473  0.62904643  1
  Al  Al33  1  0.88535837  0.86761275  0.14218963  1
  Al  Al34  1  0.44106790  0.76811565  0.90774389  1
  Al  Al35  1  0.55429494  0.86837782  0.62879608  1
  N  N36  1  0.20792779  0.19597297  0.33844134  1
  N  N37  1  0.12144566  0.07543735  0.08441995  1
  N  N38  1  0.89150022  0.20564534  0.83052129  1
  N  N39  1  0.77875994  0.09192054  0.58327199  1
  N  N40  1  0.55751521  0.20284661  0.33267907  1
  N  N41  1  0.45431397  0.07675420  0.09149614  1
  N  N42  1  0.22178984  0.20454887  0.83007548  1
  N  N43  1  0.11385858  0.09019154  0.55665395  1
  N  N44  1  0.91424848  0.19167591  0.33946536  1
  N  N45  1  0.78311357  0.08857885  0.08325015  1
  N  N46  1  0.55436853  0.20601078  0.83629470  1
  N  N47  1  0.44555222  0.09198860  0.57712076  1
  N  N48  1  0.22462572  0.53827295  0.33116901  1
  N  N49  1  0.10740195  0.42952733  0.08670535  1
  N  N50  1  0.88528805  0.54117435  0.83187050  1
  N  N51  1  0.77667806  0.42682740  0.57933887  1
  N  N52  1  0.56406667  0.52430732  0.30840311  1
  N  N53  1  0.46562593  0.43147789  0.09015652  1
  N  N54  1  0.22411796  0.53960488  0.83769377  1
  N  N55  1  0.11087297  0.42827713  0.58231194  1
  N  N56  1  0.87506058  0.56499749  0.33757138  1
  N  N57  1  0.75771176  0.42843624  0.09311054  1
  N  N58  1  0.55211082  0.54788573  0.83374885  1
  N  N59  1  0.44684702  0.42658584  0.58218517  1
  N  N60  1  0.20868259  0.90062560  0.31724677  1
  N  N61  1  0.12244314  0.77377599  0.09044586  1
  N  N62  1  0.88964165  0.86721654  0.83023406  1
  N  N63  1  0.77490728  0.76165121  0.55591420  1
  N  N64  1  0.57974730  0.86178447  0.31691154  1
  N  N65  1  0.42395521  0.80510629  0.10336766  1
  N  N66  1  0.22553644  0.87176515  0.82372168  1
  N  N67  1  0.11265589  0.75982801  0.57561719  1
  N  N68  1  0.87687172  0.85784457  0.33593868  1
  N  N69  1  0.74510863  0.77442255  0.08346642  1
  N  N70  1  0.55255220  0.87102802  0.82288550  1
  N  N71  1  0.44658262  0.75576682  0.55910314  1
