# generated using pymatgen
data_Al31B5N36
_symmetry_space_group_name_H-M   'P 1'
_cell_length_a   9.12028212
_cell_length_b   9.20252416
_cell_length_c   10.13961319
_cell_angle_alpha   89.70537277
_cell_angle_beta   89.93059750
_cell_angle_gamma   60.27311069
_symmetry_Int_Tables_number   1
_chemical_formula_structural   Al31B5N36
_chemical_formula_sum   'Al31 B5 N36'
_cell_volume   739.00883642
_cell_formula_units_Z   1
loop_
 _symmetry_equiv_pos_site_id
 _symmetry_equiv_pos_as_xyz
  1  'x, y, z'
loop_
 _atom_site_type_symbol
 _atom_site_label
 _atom_site_symmetry_multiplicity
 _atom_site_fract_x
 _atom_site_fract_y
 _atom_site_fract_z
 _atom_site_occupancy
  B  B0  1  0.11189558  0.09413716  0.31913386  1
  B  B1  1  0.58791660  0.47432353  0.04854563  1
  B  B2  1  0.22702761  0.89396289  0.11769802  1
  B  B3  1  0.53880456  0.88683172  0.10055907  1
  B  B4  1  0.77233092  0.76546577  0.35439906  1
  Al  Al5  1  0.22190170  0.20278721  0.06753433  1
  Al  Al6  1  0.78212791  0.08860284  0.80790378  1
  Al  Al7  1  0.89580552  0.20182663  0.55577498  1
  Al  Al8  1  0.45093293  0.08486153  0.31432928  1
  Al  Al9  1  0.56168300  0.19345570  0.05868841  1
  Al  Al10  1  0.11342646  0.09322804  0.81382743  1
  Al  Al11  1  0.22050013  0.20230685  0.55364559  1
  Al  Al12  1  0.78209649  0.08816582  0.31088583  1
  Al  Al13  1  0.89572952  0.19353966  0.06377841  1
  Al  Al14  1  0.44029075  0.09540487  0.80981638  1
  Al  Al15  1  0.55587660  0.20521928  0.55890906  1
  Al  Al16  1  0.10377478  0.43559494  0.30836222  1
  Al  Al17  1  0.22862499  0.55119999  0.05936018  1
  Al  Al18  1  0.78011463  0.42243370  0.81399092  1
  Al  Al19  1  0.88736222  0.54079499  0.56247066  1
  Al  Al20  1  0.45033359  0.42900609  0.30386166  1
  Al  Al21  1  0.11299629  0.42316098  0.80979789  1
  Al  Al22  1  0.22519769  0.53683953  0.55697033  1
  Al  Al23  1  0.77434562  0.43468284  0.30507136  1
  Al  Al24  1  0.86521581  0.55309260  0.05654322  1
  Al  Al25  1  0.44631742  0.42482577  0.81510287  1
  Al  Al26  1  0.56014836  0.53004446  0.55798381  1
  Al  Al27  1  0.11312318  0.77044029  0.31112933  1
  Al  Al28  1  0.77974326  0.75688244  0.81975337  1
  Al  Al29  1  0.88891181  0.86753478  0.55839700  1
  Al  Al30  1  0.44232367  0.77473797  0.38206660  1
  Al  Al31  1  0.11045683  0.75401760  0.80828448  1
  Al  Al32  1  0.22792066  0.86912843  0.62207855  1
  Al  Al33  1  0.88187506  0.87264790  0.06086085  1
  Al  Al34  1  0.43979824  0.76598694  0.90289909  1
  Al  Al35  1  0.55558877  0.86595059  0.62526624  1
  N  N36  1  0.20922022  0.19703492  0.36164892  1
  N  N37  1  0.11605556  0.08424357  0.13553274  1
  N  N38  1  0.89149279  0.19965769  0.87625821  1
  N  N39  1  0.78143783  0.09099231  0.61723258  1
  N  N40  1  0.55547883  0.20841576  0.36986634  1
  N  N41  1  0.45232350  0.07943794  0.12380454  1
  N  N42  1  0.22252109  0.20424313  0.87980573  1
  N  N43  1  0.10868624  0.10148693  0.62672422  1
  N  N44  1  0.91202469  0.19804202  0.36290168  1
  N  N45  1  0.77971472  0.08911847  0.12528041  1
  N  N46  1  0.55858516  0.19941162  0.87207841  1
  N  N47  1  0.43998617  0.10081349  0.61874144  1
  N  N48  1  0.22614111  0.54067325  0.36591050  1
  N  N49  1  0.10241505  0.44082404  0.12075213  1
  N  N50  1  0.89136415  0.53253391  0.87144125  1
  N  N51  1  0.77902514  0.42359981  0.62419717  1
  N  N52  1  0.55796282  0.53578202  0.37026542  1
  N  N53  1  0.46507749  0.42764976  0.11226597  1
  N  N54  1  0.22344607  0.53573696  0.87355329  1
  N  N55  1  0.11376980  0.42366924  0.61745809  1
  N  N56  1  0.87251718  0.56822555  0.36732674  1
  N  N57  1  0.75579311  0.42894623  0.11416897  1
  N  N58  1  0.56460981  0.52153829  0.90288054  1
  N  N59  1  0.44706736  0.42586990  0.62707051  1
  N  N60  1  0.20565101  0.90699716  0.35596769  1
  N  N61  1  0.13185696  0.78075079  0.11904171  1
  N  N62  1  0.89236435  0.86956850  0.87423967  1
  N  N63  1  0.78877370  0.75398345  0.62854235  1
  N  N64  1  0.58918489  0.86031484  0.36036175  1
  N  N65  1  0.41281085  0.82087405  0.08592904  1
  N  N66  1  0.23236356  0.86165125  0.82115147  1
  N  N67  1  0.10896580  0.75416658  0.61778074  1
  N  N68  1  0.87868419  0.85634322  0.36572316  1
  N  N69  1  0.72707018  0.78476191  0.08460499  1
  N  N70  1  0.54799361  0.86500457  0.81891527  1
  N  N71  1  0.44626661  0.75803315  0.56989841  1
