# generated using pymatgen
data_Al31B5N36
_symmetry_space_group_name_H-M   'P 1'
_cell_length_a   9.17564595
_cell_length_b   9.28161398
_cell_length_c   10.20207769
_cell_angle_alpha   90.70961555
_cell_angle_beta   89.69174491
_cell_angle_gamma   59.95555244
_symmetry_Int_Tables_number   1
_chemical_formula_structural   Al31B5N36
_chemical_formula_sum   'Al31 B5 N36'
_cell_volume   751.99081621
_cell_formula_units_Z   1
loop_
 _symmetry_equiv_pos_site_id
 _symmetry_equiv_pos_as_xyz
  1  'x, y, z'
loop_
 _atom_site_type_symbol
 _atom_site_label
 _atom_site_symmetry_multiplicity
 _atom_site_fract_x
 _atom_site_fract_y
 _atom_site_fract_z
 _atom_site_occupancy
  B  B0  1  0.11182889  0.10406555  0.30593701  1
  B  B1  1  0.59122442  0.47963789  0.15887500  1
  B  B2  1  0.25628557  0.91557155  0.15861606  1
  B  B3  1  0.54116661  0.88977530  0.09415674  1
  B  B4  1  0.77752132  0.76597271  0.35732035  1
  Al  Al5  1  0.22869499  0.20134985  0.06484144  1
  Al  Al6  1  0.78167507  0.08955147  0.80959408  1
  Al  Al7  1  0.90167290  0.19092711  0.55451009  1
  Al  Al8  1  0.45660970  0.08139544  0.31400254  1
  Al  Al9  1  0.56472485  0.19827117  0.05980878  1
  Al  Al10  1  0.10735234  0.09878847  0.81395931  1
  Al  Al11  1  0.22223650  0.20009969  0.55510077  1
  Al  Al12  1  0.78666739  0.08415797  0.31174747  1
  Al  Al13  1  0.90051734  0.18791479  0.07102696  1
  Al  Al14  1  0.44038809  0.09692063  0.80668101  1
  Al  Al15  1  0.55882879  0.20237957  0.56076107  1
  Al  Al16  1  0.11299074  0.42919490  0.30917704  1
  Al  Al17  1  0.22495978  0.54117688  0.06251847  1
  Al  Al18  1  0.76430705  0.43243908  0.89554002  1
  Al  Al19  1  0.88625649  0.53303898  0.63880802  1
  Al  Al20  1  0.44454060  0.42213906  0.31454173  1
  Al  Al21  1  0.11790508  0.41844023  0.81683211  1
  Al  Al22  1  0.22316367  0.53480914  0.56159908  1
  Al  Al23  1  0.78748590  0.43485075  0.37887649  1
  Al  Al24  1  0.86063711  0.56351668  0.13199670  1
  Al  Al25  1  0.44261251  0.42271663  0.81275820  1
  Al  Al26  1  0.55947723  0.54096322  0.63496750  1
  Al  Al27  1  0.10895325  0.76084978  0.30037347  1
  Al  Al28  1  0.76359276  0.76091168  0.85977324  1
  Al  Al29  1  0.88953443  0.86312158  0.56177692  1
  Al  Al30  1  0.45878623  0.75969113  0.37271848  1
  Al  Al31  1  0.10561270  0.75361220  0.81381026  1
  Al  Al32  1  0.23084064  0.86308916  0.63405959  1
  Al  Al33  1  0.88322749  0.87029514  0.05900801  1
  Al  Al34  1  0.43086483  0.77153831  0.89708495  1
  Al  Al35  1  0.55767960  0.86315666  0.62182409  1
  N  N36  1  0.21268958  0.19499414  0.36370141  1
  N  N37  1  0.11928993  0.09580835  0.14355274  1
  N  N38  1  0.89051584  0.19818593  0.88420963  1
  N  N39  1  0.78327173  0.09041714  0.62045610  1
  N  N40  1  0.56027295  0.20452695  0.37341948  1
  N  N41  1  0.45875652  0.07959177  0.12264508  1
  N  N42  1  0.22309737  0.20143309  0.88015373  1
  N  N43  1  0.11227398  0.09613197  0.62566980  1
  N  N44  1  0.92360044  0.18512941  0.36213578  1
  N  N45  1  0.78151362  0.08818051  0.12760300  1
  N  N46  1  0.55645089  0.20232960  0.87358898  1
  N  N47  1  0.44239658  0.09756619  0.61678148  1
  N  N48  1  0.22450530  0.54046677  0.37374367  1
  N  N49  1  0.11140553  0.42497999  0.12175103  1
  N  N50  1  0.88450126  0.52887380  0.83251823  1
  N  N51  1  0.77796464  0.42616623  0.56372676  1
  N  N52  1  0.57011567  0.53264780  0.30266690  1
  N  N53  1  0.46369387  0.42472156  0.12380454  1
  N  N54  1  0.22269196  0.53441791  0.87693821  1
  N  N55  1  0.12060076  0.41717242  0.62436728  1
  N  N56  1  0.87340554  0.57546206  0.32338053  1
  N  N57  1  0.75319330  0.43361014  0.08937885  1
  N  N58  1  0.55134664  0.54702761  0.82665415  1
  N  N59  1  0.44502589  0.42195399  0.62340847  1
  N  N60  1  0.23301781  0.89198831  0.30466855  1
  N  N61  1  0.09630388  0.75269045  0.12228981  1
  N  N62  1  0.88520566  0.87293841  0.87285358  1
  N  N63  1  0.78431307  0.75221309  0.60975953  1
  N  N64  1  0.59351580  0.85721835  0.35287836  1
  N  N65  1  0.41809995  0.82868389  0.08233351  1
  N  N66  1  0.22148629  0.86839428  0.82385291  1
  N  N67  1  0.10926240  0.75315551  0.62179994  1
  N  N68  1  0.88079258  0.85934021  0.37062641  1
  N  N69  1  0.72803663  0.78207081  0.06367262  1
  N  N70  1  0.54093492  0.86936753  0.81443218  1
  N  N71  1  0.44441074  0.75208926  0.55843729  1
