# generated using pymatgen
data_Al31B5N36
_symmetry_space_group_name_H-M   'P 1'
_cell_length_a   9.18627286
_cell_length_b   9.28086065
_cell_length_c   9.89966666
_cell_angle_alpha   90.65704316
_cell_angle_beta   90.16908178
_cell_angle_gamma   60.18446490
_symmetry_Int_Tables_number   1
_chemical_formula_structural   Al31B5N36
_chemical_formula_sum   'Al31 B5 N36'
_cell_volume   732.23809887
_cell_formula_units_Z   1
loop_
 _symmetry_equiv_pos_site_id
 _symmetry_equiv_pos_as_xyz
  1  'x, y, z'
loop_
 _atom_site_type_symbol
 _atom_site_label
 _atom_site_symmetry_multiplicity
 _atom_site_fract_x
 _atom_site_fract_y
 _atom_site_fract_z
 _atom_site_occupancy
  B  B0  1  0.11007163  0.09090750  0.40063537  1
  B  B1  1  0.58509946  0.48127250  0.16867722  1
  B  B2  1  0.22935850  0.89423220  0.16247934  1
  B  B3  1  0.55372120  0.86963074  0.16202390  1
  B  B4  1  0.77581410  0.75746243  0.39811605  1
  Al  Al5  1  0.23252537  0.19710559  0.09406377  1
  Al  Al6  1  0.77703145  0.09096051  0.83147987  1
  Al  Al7  1  0.89445751  0.20639532  0.64302314  1
  Al  Al8  1  0.44515202  0.08782418  0.33225849  1
  Al  Al9  1  0.56836844  0.18888578  0.08503394  1
  Al  Al10  1  0.11164916  0.08584713  0.90429839  1
  Al  Al11  1  0.22202911  0.20097827  0.57378767  1
  Al  Al12  1  0.77947702  0.08683425  0.34458825  1
  Al  Al13  1  0.90413172  0.19740324  0.15964755  1
  Al  Al14  1  0.43828020  0.09955709  0.82983456  1
  Al  Al15  1  0.55526604  0.20056482  0.58248470  1
  Al  Al16  1  0.10286309  0.43776959  0.39366677  1
  Al  Al17  1  0.23228900  0.54655872  0.15312478  1
  Al  Al18  1  0.77407956  0.42909759  0.90544350  1
  Al  Al19  1  0.88509960  0.54248251  0.64851620  1
  Al  Al20  1  0.44409789  0.43088109  0.40040939  1
  Al  Al21  1  0.10570296  0.43661862  0.90494909  1
  Al  Al22  1  0.22239227  0.53896761  0.65379326  1
  Al  Al23  1  0.78482457  0.42625392  0.40107508  1
  Al  Al24  1  0.86908513  0.55287442  0.15757879  1
  Al  Al25  1  0.44847066  0.43511231  0.90518911  1
  Al  Al26  1  0.55299221  0.54409737  0.65347548  1
  Al  Al27  1  0.11047988  0.76616872  0.39302435  1
  Al  Al28  1  0.76731684  0.76699057  0.90465791  1
  Al  Al29  1  0.88972599  0.86253090  0.62899267  1
  Al  Al30  1  0.44847522  0.75911653  0.37458487  1
  Al  Al31  1  0.11485501  0.76571461  0.90783478  1
  Al  Al32  1  0.22548869  0.86833678  0.64334724  1
  Al  Al33  1  0.89093828  0.86069530  0.15173582  1
  Al  Al34  1  0.44190832  0.77172814  0.92005985  1
  Al  Al35  1  0.55479813  0.86366711  0.63929890  1
  N  N36  1  0.21141755  0.19483748  0.37673546  1
  N  N37  1  0.12175547  0.07208096  0.09777958  1
  N  N38  1  0.89333168  0.20917344  0.84059076  1
  N  N39  1  0.77567203  0.09196622  0.63375232  1
  N  N40  1  0.55499985  0.19957837  0.39159789  1
  N  N41  1  0.45796286  0.07731142  0.14275199  1
  N  N42  1  0.22303604  0.20648567  0.89449951  1
  N  N43  1  0.10926089  0.08157798  0.56766746  1
  N  N44  1  0.91772476  0.19411824  0.35314233  1
  N  N45  1  0.78234400  0.08995270  0.14728256  1
  N  N46  1  0.55774097  0.20174780  0.89282166  1
  N  N47  1  0.43751955  0.09812224  0.63652530  1
  N  N48  1  0.22574595  0.53975888  0.34080350  1
  N  N49  1  0.10304339  0.44085109  0.10112895  1
  N  N50  1  0.88408905  0.54267026  0.84343576  1
  N  N51  1  0.77560369  0.42808437  0.59029260  1
  N  N52  1  0.56640813  0.52182405  0.31925116  1
  N  N53  1  0.46640523  0.43257084  0.10268297  1
  N  N54  1  0.22503691  0.54008851  0.84774355  1
  N  N55  1  0.10781707  0.43194198  0.59023218  1
  N  N56  1  0.87352650  0.56354781  0.34751807  1
  N  N57  1  0.75896635  0.42762038  0.10414570  1
  N  N58  1  0.55306250  0.54872726  0.84564605  1
  N  N59  1  0.44377078  0.43267283  0.59398056  1
  N  N60  1  0.21003911  0.89998170  0.32800031  1
  N  N61  1  0.12719005  0.77298667  0.10229298  1
  N  N62  1  0.89321846  0.86210749  0.84666332  1
  N  N63  1  0.77193751  0.75869795  0.56483609  1
  N  N64  1  0.58458176  0.85166364  0.33223815  1
  N  N65  1  0.42482534  0.80732093  0.11338950  1
  N  N66  1  0.22612079  0.87127507  0.83535501  1
  N  N67  1  0.11484106  0.75655092  0.58480963  1
  N  N68  1  0.87975598  0.85096162  0.35084240  1
  N  N69  1  0.74386637  0.77469064  0.09570149  1
  N  N70  1  0.55496683  0.86687189  0.83267746  1
  N  N71  1  0.44453192  0.75510601  0.57157048  1
