# generated using pymatgen
data_Al31B5N36
_symmetry_space_group_name_H-M   'P 1'
_cell_length_a   9.14355318
_cell_length_b   9.13579680
_cell_length_c   10.25993697
_cell_angle_alpha   89.84456145
_cell_angle_beta   90.02370917
_cell_angle_gamma   60.03024051
_symmetry_Int_Tables_number   1
_chemical_formula_structural   Al31B5N36
_chemical_formula_sum   'Al31 B5 N36'
_cell_volume   742.44879429
_cell_formula_units_Z   1
loop_
 _symmetry_equiv_pos_site_id
 _symmetry_equiv_pos_as_xyz
  1  'x, y, z'
loop_
 _atom_site_type_symbol
 _atom_site_label
 _atom_site_symmetry_multiplicity
 _atom_site_fract_x
 _atom_site_fract_y
 _atom_site_fract_z
 _atom_site_occupancy
  B  B0  1  0.11466905  0.08921626  0.35678971  1
  B  B1  1  0.55587305  0.54102291  0.08899345  1
  B  B2  1  0.22016063  0.87547265  0.10304839  1
  B  B3  1  0.56037767  0.86494789  0.10214382  1
  B  B4  1  0.77536368  0.76240630  0.35801225  1
  Al  Al5  1  0.22985290  0.18766179  0.06106034  1
  Al  Al6  1  0.77828284  0.09454718  0.81005384  1
  Al  Al7  1  0.89543266  0.20201666  0.56176331  1
  Al  Al8  1  0.45263068  0.07725679  0.31251998  1
  Al  Al9  1  0.56063970  0.20177059  0.06197507  1
  Al  Al10  1  0.11039036  0.09689069  0.82207345  1
  Al  Al11  1  0.22221224  0.20229918  0.56208595  1
  Al  Al12  1  0.78250821  0.08733562  0.31196927  1
  Al  Al13  1  0.89079403  0.19931993  0.06040000  1
  Al  Al14  1  0.44127552  0.10107558  0.81159490  1
  Al  Al15  1  0.55506602  0.20419736  0.55690451  1
  Al  Al16  1  0.10633146  0.42959105  0.31047029  1
  Al  Al17  1  0.22898379  0.54425627  0.06133901  1
  Al  Al18  1  0.77741709  0.42779280  0.80960892  1
  Al  Al19  1  0.88959814  0.54107489  0.56362607  1
  Al  Al20  1  0.44793095  0.43068229  0.31061529  1
  Al  Al21  1  0.11303214  0.42563493  0.81055606  1
  Al  Al22  1  0.22357769  0.53773495  0.55822311  1
  Al  Al23  1  0.77566422  0.43652189  0.31272844  1
  Al  Al24  1  0.87438520  0.54492546  0.05831015  1
  Al  Al25  1  0.44567208  0.42863556  0.81192399  1
  Al  Al26  1  0.55948014  0.53083614  0.56979926  1
  Al  Al27  1  0.11084956  0.76891814  0.31410517  1
  Al  Al28  1  0.78222893  0.75742018  0.82213776  1
  Al  Al29  1  0.88869210  0.86876913  0.56207929  1
  Al  Al30  1  0.44448024  0.77174243  0.39057987  1
  Al  Al31  1  0.10961727  0.75504917  0.81148442  1
  Al  Al32  1  0.22830315  0.86949161  0.63268885  1
  Al  Al33  1  0.88370641  0.87458345  0.06114990  1
  Al  Al34  1  0.44473344  0.76069073  0.88959331  1
  Al  Al35  1  0.55642038  0.86657410  0.63272297  1
  N  N36  1  0.21099612  0.18996052  0.36973147  1
  N  N37  1  0.12883083  0.05717514  0.09013516  1
  N  N38  1  0.88567423  0.20704183  0.87559841  1
  N  N39  1  0.77858383  0.09377609  0.61983008  1
  N  N40  1  0.55439830  0.20458604  0.36832606  1
  N  N41  1  0.45847070  0.06197154  0.12208732  1
  N  N42  1  0.22475887  0.20686910  0.87720846  1
  N  N43  1  0.10794048  0.10295103  0.63206763  1
  N  N44  1  0.91720756  0.19345830  0.36881290  1
  N  N45  1  0.77921379  0.09266260  0.12838860  1
  N  N46  1  0.55683862  0.20448216  0.87739759  1
  N  N47  1  0.44163399  0.10117235  0.62214372  1
  N  N48  1  0.22371992  0.53922369  0.36966357  1
  N  N49  1  0.11110062  0.42515075  0.12410706  1
  N  N50  1  0.89345122  0.53208133  0.87449315  1
  N  N51  1  0.78338184  0.42425068  0.62148847  1
  N  N52  1  0.55997242  0.53196697  0.38016557  1
  N  N53  1  0.45885368  0.44365547  0.12081323  1
  N  N54  1  0.22352960  0.53611418  0.87707372  1
  N  N55  1  0.11346725  0.42572593  0.62076475  1
  N  N56  1  0.87755979  0.56559567  0.37156879  1
  N  N57  1  0.74958813  0.44250719  0.12336985  1
  N  N58  1  0.55891411  0.53502712  0.86332497  1
  N  N59  1  0.44352247  0.42376881  0.62439742  1
  N  N60  1  0.20615967  0.90484124  0.35942425  1
  N  N61  1  0.12659915  0.77302193  0.12255544  1
  N  N62  1  0.89164414  0.87337587  0.87670242  1
  N  N63  1  0.78896616  0.75493758  0.63219392  1
  N  N64  1  0.59227917  0.85379179  0.36085935  1
  N  N65  1  0.44583564  0.76042067  0.08755110  1
  N  N66  1  0.22984884  0.86453404  0.82399708  1
  N  N67  1  0.10835471  0.75584307  0.62189842  1
  N  N68  1  0.87857793  0.85658687  0.37027740  1
  N  N69  1  0.74295005  0.77645599  0.08957018  1
  N  N70  1  0.55054774  0.87048733  0.82388363  1
  N  N71  1  0.44410771  0.76269926  0.57470390  1
