# generated using pymatgen
data_Al31B5N36
_symmetry_space_group_name_H-M   'P 1'
_cell_length_a   9.16412652
_cell_length_b   9.23554130
_cell_length_c   10.09059084
_cell_angle_alpha   91.00801204
_cell_angle_beta   90.29178081
_cell_angle_gamma   60.23366904
_symmetry_Int_Tables_number   1
_chemical_formula_structural   Al31B5N36
_chemical_formula_sum   'Al31 B5 N36'
_cell_volume   741.22047303
_cell_formula_units_Z   1
loop_
 _symmetry_equiv_pos_site_id
 _symmetry_equiv_pos_as_xyz
  1  'x, y, z'
loop_
 _atom_site_type_symbol
 _atom_site_label
 _atom_site_symmetry_multiplicity
 _atom_site_fract_x
 _atom_site_fract_y
 _atom_site_fract_z
 _atom_site_occupancy
  B  B0  1  0.11176921  0.08997393  0.39756460  1
  B  B1  1  0.58549224  0.47940138  0.17012517  1
  B  B2  1  0.22566883  0.89229553  0.15621539  1
  B  B3  1  0.53738259  0.88291273  0.11846326  1
  B  B4  1  0.77298427  0.76284482  0.37554069  1
  Al  Al5  1  0.22744219  0.20101121  0.09526691  1
  Al  Al6  1  0.77897469  0.08443244  0.82895201  1
  Al  Al7  1  0.89593906  0.20213813  0.64337123  1
  Al  Al8  1  0.45140063  0.07984937  0.33113508  1
  Al  Al9  1  0.56628658  0.19093790  0.08400709  1
  Al  Al10  1  0.10988845  0.08745218  0.90517796  1
  Al  Al11  1  0.22552333  0.19782160  0.56840105  1
  Al  Al12  1  0.77992234  0.08232527  0.33811642  1
  Al  Al13  1  0.90243731  0.19951363  0.16258618  1
  Al  Al14  1  0.43484358  0.10302560  0.82826261  1
  Al  Al15  1  0.55747996  0.19717967  0.58016497  1
  Al  Al16  1  0.10236232  0.43976335  0.39489903  1
  Al  Al17  1  0.23102486  0.55057546  0.15571360  1
  Al  Al18  1  0.77418215  0.42457977  0.90830883  1
  Al  Al19  1  0.89256116  0.53243632  0.65901395  1
  Al  Al20  1  0.44505350  0.43057337  0.40148743  1
  Al  Al21  1  0.10656325  0.43690667  0.90982457  1
  Al  Al22  1  0.22223131  0.53824988  0.65202140  1
  Al  Al23  1  0.78521329  0.42777663  0.40288032  1
  Al  Al24  1  0.86157416  0.56128686  0.15487343  1
  Al  Al25  1  0.44855874  0.43360272  0.90580836  1
  Al  Al26  1  0.55573864  0.54054359  0.65383549  1
  Al  Al27  1  0.11659338  0.76510522  0.39192706  1
  Al  Al28  1  0.76612299  0.76313508  0.88669208  1
  Al  Al29  1  0.88530160  0.86349835  0.57969257  1
  Al  Al30  1  0.45268138  0.75991826  0.38373212  1
  Al  Al31  1  0.12400884  0.76189565  0.90594130  1
  Al  Al32  1  0.22542145  0.86828492  0.64254027  1
  Al  Al33  1  0.88652079  0.87547434  0.08915987  1
  Al  Al34  1  0.43993351  0.77040769  0.91229021  1
  Al  Al35  1  0.55764590  0.86245907  0.64210967  1
  N  N36  1  0.21418670  0.19337696  0.37453186  1
  N  N37  1  0.11702108  0.07470251  0.09654716  1
  N  N38  1  0.89342529  0.20671860  0.83816729  1
  N  N39  1  0.77744538  0.08459643  0.63909915  1
  N  N40  1  0.55659013  0.19834818  0.39098556  1
  N  N41  1  0.45670614  0.07494426  0.14160003  1
  N  N42  1  0.22378267  0.20698362  0.90085826  1
  N  N43  1  0.10983672  0.08007176  0.56356449  1
  N  N44  1  0.91845478  0.19364392  0.35146095  1
  N  N45  1  0.77885093  0.09095500  0.15147357  1
  N  N46  1  0.55920928  0.19985533  0.89559747  1
  N  N47  1  0.43655569  0.09972311  0.63909688  1
  N  N48  1  0.22664804  0.53975430  0.33957957  1
  N  N49  1  0.09970765  0.44766709  0.10200434  1
  N  N50  1  0.88836646  0.53242442  0.85026994  1
  N  N51  1  0.77859485  0.42408988  0.58928448  1
  N  N52  1  0.56647836  0.52301030  0.31820754  1
  N  N53  1  0.46486383  0.43358774  0.10279124  1
  N  N54  1  0.22530378  0.53854838  0.84473176  1
  N  N55  1  0.10976876  0.42874379  0.58720380  1
  N  N56  1  0.87138503  0.57018114  0.34499186  1
  N  N57  1  0.75708297  0.42776764  0.10503649  1
  N  N58  1  0.55425846  0.54521393  0.84420726  1
  N  N59  1  0.44500005  0.43064147  0.59177084  1
  N  N60  1  0.21496852  0.89808404  0.32489028  1
  N  N61  1  0.13602945  0.77517604  0.10126846  1
  N  N62  1  0.89164182  0.87219612  0.89904670  1
  N  N63  1  0.78318609  0.75137326  0.62520988  1
  N  N64  1  0.58963873  0.85410600  0.36684358  1
  N  N65  1  0.42094593  0.81291811  0.10142777  1
  N  N66  1  0.22387254  0.87358303  0.83172505  1
  N  N67  1  0.11842278  0.75481728  0.58302402  1
  N  N68  1  0.87652461  0.85486523  0.38190035  1
  N  N69  1  0.73077628  0.78073008  0.08789056  1
  N  N70  1  0.54596293  0.87250323  0.83506724  1
  N  N71  1  0.44557702  0.75236076  0.57594560  1
