# generated using pymatgen
data_Al31B5N36
_symmetry_space_group_name_H-M   'P 1'
_cell_length_a   9.16926144
_cell_length_b   9.25555086
_cell_length_c   10.14724487
_cell_angle_alpha   90.88331610
_cell_angle_beta   89.72205652
_cell_angle_gamma   60.16965970
_symmetry_Int_Tables_number   1
_chemical_formula_structural   Al31B5N36
_chemical_formula_sum   'Al31 B5 N36'
_cell_volume   746.89315815
_cell_formula_units_Z   1
loop_
 _symmetry_equiv_pos_site_id
 _symmetry_equiv_pos_as_xyz
  1  'x, y, z'
loop_
 _atom_site_type_symbol
 _atom_site_label
 _atom_site_symmetry_multiplicity
 _atom_site_fract_x
 _atom_site_fract_y
 _atom_site_fract_z
 _atom_site_occupancy
  B  B0  1  0.11526675  0.09706506  0.30921476  1
  B  B1  1  0.58699080  0.47978828  0.16008493  1
  B  B2  1  0.23280830  0.89049678  0.15438613  1
  B  B3  1  0.53554914  0.88542591  0.10813810  1
  B  B4  1  0.77296398  0.75640008  0.40261836  1
  Al  Al5  1  0.22631353  0.19436633  0.08104921  1
  Al  Al6  1  0.77957187  0.09239040  0.81936037  1
  Al  Al7  1  0.89935081  0.19259586  0.56260686  1
  Al  Al8  1  0.45697681  0.07539112  0.31988617  1
  Al  Al9  1  0.56645066  0.18893682  0.07210298  1
  Al  Al10  1  0.10721426  0.10351543  0.82162090  1
  Al  Al11  1  0.22366220  0.19326829  0.55471872  1
  Al  Al12  1  0.78732197  0.08291489  0.31880753  1
  Al  Al13  1  0.89588841  0.19561530  0.07838584  1
  Al  Al14  1  0.43746661  0.10193637  0.81403308  1
  Al  Al15  1  0.56102811  0.19616644  0.56468119  1
  Al  Al16  1  0.10370006  0.43411658  0.37448822  1
  Al  Al17  1  0.23120697  0.54418642  0.13041640  1
  Al  Al18  1  0.76792062  0.43676235  0.89758752  1
  Al  Al19  1  0.89075604  0.53307503  0.63726000  1
  Al  Al20  1  0.44660919  0.42817377  0.38157264  1
  Al  Al21  1  0.10389429  0.43452217  0.90230309  1
  Al  Al22  1  0.22427242  0.53062634  0.61496227  1
  Al  Al23  1  0.78363941  0.42983071  0.38514400  1
  Al  Al24  1  0.85732079  0.56582618  0.15064959  1
  Al  Al25  1  0.44953522  0.43335087  0.89787632  1
  Al  Al26  1  0.55522510  0.53857240  0.64171026  1
  Al  Al27  1  0.10765578  0.77219267  0.31518349  1
  Al  Al28  1  0.76164943  0.76414714  0.88542803  1
  Al  Al29  1  0.89278784  0.86739713  0.56411216  1
  Al  Al30  1  0.45374511  0.76017817  0.37735848  1
  Al  Al31  1  0.10829256  0.75777457  0.82567753  1
  Al  Al32  1  0.23002732  0.86593730  0.64047690  1
  Al  Al33  1  0.89449663  0.87373206  0.06951601  1
  Al  Al34  1  0.43403732  0.77438215  0.90062253  1
  Al  Al35  1  0.55650613  0.86466158  0.62065470  1
  N  N36  1  0.21584713  0.18723161  0.36355179  1
  N  N37  1  0.11243713  0.09098626  0.14942782  1
  N  N38  1  0.88934486  0.20293310  0.88954447  1
  N  N39  1  0.78094053  0.09033814  0.63046434  1
  N  N40  1  0.56272809  0.19531050  0.37596155  1
  N  N41  1  0.45593924  0.07585665  0.13065195  1
  N  N42  1  0.22399787  0.20072918  0.89246891  1
  N  N43  1  0.11009044  0.09913595  0.63297222  1
  N  N44  1  0.92245840  0.18404020  0.37058995  1
  N  N45  1  0.78187698  0.09011629  0.13460996  1
  N  N46  1  0.55790696  0.19918966  0.88405350  1
  N  N47  1  0.43744362  0.10221723  0.62505994  1
  N  N48  1  0.22662567  0.53793555  0.32643323  1
  N  N49  1  0.09478454  0.44201314  0.09369120  1
  N  N50  1  0.88778348  0.53698692  0.82900390  1
  N  N51  1  0.77491541  0.42647340  0.57364717  1
  N  N52  1  0.56510068  0.52586509  0.30601661  1
  N  N53  1  0.46947115  0.43041499  0.09297632  1
  N  N54  1  0.22643308  0.53370047  0.85741276  1
  N  N55  1  0.10872089  0.42600812  0.56664935  1
  N  N56  1  0.87232419  0.56797883  0.33593694  1
  N  N57  1  0.75222379  0.43862221  0.09486528  1
  N  N58  1  0.55225721  0.54582954  0.83089820  1
  N  N59  1  0.44739270  0.42971311  0.57281283  1
  N  N60  1  0.22909645  0.89187247  0.31593505  1
  N  N61  1  0.12373804  0.78063921  0.12423872  1
  N  N62  1  0.88730397  0.87285393  0.88221717  1
  N  N63  1  0.78071044  0.74750519  0.56569562  1
  N  N64  1  0.58868315  0.85476015  0.36219579  1
  N  N65  1  0.41647782  0.82004465  0.08702510  1
  N  N66  1  0.22367200  0.87268710  0.83004375  1
  N  N67  1  0.10630365  0.75687421  0.62977600  1
  N  N68  1  0.88581572  0.86078030  0.37703873  1
  N  N69  1  0.73021267  0.78205494  0.07635155  1
  N  N70  1  0.55180079  0.86744798  0.81432166  1
  N  N71  1  0.44233051  0.75179506  0.56646655  1
