# generated using pymatgen
data_Al31B5N36
_symmetry_space_group_name_H-M   'P 1'
_cell_length_a   9.10637824
_cell_length_b   9.20552690
_cell_length_c   10.28758692
_cell_angle_alpha   90.29842717
_cell_angle_beta   89.72920926
_cell_angle_gamma   60.41850620
_symmetry_Int_Tables_number   1
_chemical_formula_structural   Al31B5N36
_chemical_formula_sum   'Al31 B5 N36'
_cell_volume   749.95185378
_cell_formula_units_Z   1
loop_
 _symmetry_equiv_pos_site_id
 _symmetry_equiv_pos_as_xyz
  1  'x, y, z'
loop_
 _atom_site_type_symbol
 _atom_site_label
 _atom_site_symmetry_multiplicity
 _atom_site_fract_x
 _atom_site_fract_y
 _atom_site_fract_z
 _atom_site_occupancy
  B  B0  1  0.11874790  0.08647472  0.35144392  1
  B  B1  1  0.58895271  0.48491508  0.15418086  1
  B  B2  1  0.22863214  0.89191445  0.09871005  1
  B  B3  1  0.54023305  0.88267282  0.09505568  1
  B  B4  1  0.77776038  0.76446391  0.35618115  1
  Al  Al5  1  0.22476544  0.19852101  0.06100755  1
  Al  Al6  1  0.77969893  0.08907766  0.80841166  1
  Al  Al7  1  0.89801972  0.19343195  0.55911870  1
  Al  Al8  1  0.45368324  0.07865742  0.31324018  1
  Al  Al9  1  0.56113646  0.19490482  0.05962604  1
  Al  Al10  1  0.10960486  0.09748984  0.81673345  1
  Al  Al11  1  0.22097598  0.20407946  0.55954272  1
  Al  Al12  1  0.78584522  0.08317277  0.30981951  1
  Al  Al13  1  0.89720125  0.18635609  0.06292286  1
  Al  Al14  1  0.43958878  0.09836135  0.80672694  1
  Al  Al15  1  0.55722588  0.20357386  0.55778883  1
  Al  Al16  1  0.10627886  0.43231923  0.30819306  1
  Al  Al17  1  0.23323609  0.54847433  0.06152489  1
  Al  Al18  1  0.76262182  0.42870014  0.88962845  1
  Al  Al19  1  0.89286731  0.54245449  0.56254628  1
  Al  Al20  1  0.44368665  0.42203841  0.30982209  1
  Al  Al21  1  0.10817760  0.42668125  0.81289674  1
  Al  Al22  1  0.22573682  0.53690593  0.55852444  1
  Al  Al23  1  0.78191176  0.42882271  0.37212781  1
  Al  Al24  1  0.87046110  0.55564708  0.06877731  1
  Al  Al25  1  0.44129153  0.42176635  0.81109633  1
  Al  Al26  1  0.56263525  0.53872712  0.63501239  1
  Al  Al27  1  0.11563331  0.77016443  0.30962524  1
  Al  Al28  1  0.77810372  0.75589504  0.82094026  1
  Al  Al29  1  0.89064319  0.86574650  0.56028323  1
  Al  Al30  1  0.45226996  0.76339839  0.37818078  1
  Al  Al31  1  0.11000434  0.75519420  0.80908821  1
  Al  Al32  1  0.23008562  0.86803268  0.62378971  1
  Al  Al33  1  0.88312493  0.87221171  0.05914478  1
  Al  Al34  1  0.43974526  0.76625840  0.88938044  1
  Al  Al35  1  0.55657492  0.86538914  0.62123534  1
  N  N36  1  0.21004543  0.19348835  0.36819411  1
  N  N37  1  0.12288286  0.07174175  0.09789067  1
  N  N38  1  0.88693383  0.19949195  0.87585711  1
  N  N39  1  0.78032676  0.08910866  0.62028050  1
  N  N40  1  0.55910502  0.20445749  0.37170128  1
  N  N41  1  0.45213433  0.07617082  0.12404020  1
  N  N42  1  0.22240062  0.20877835  0.87574468  1
  N  N43  1  0.10870985  0.10181505  0.62879777  1
  N  N44  1  0.92317285  0.18256636  0.36541796  1
  N  N45  1  0.77873617  0.08787982  0.12740112  1
  N  N46  1  0.55662705  0.20209865  0.87459656  1
  N  N47  1  0.44116859  0.09934825  0.61768189  1
  N  N48  1  0.22471202  0.54179406  0.37081441  1
  N  N49  1  0.10862048  0.43534280  0.12376077  1
  N  N50  1  0.88937025  0.53529544  0.88011063  1
  N  N51  1  0.77456597  0.42494510  0.55913869  1
  N  N52  1  0.56604817  0.53811155  0.29772021  1
  N  N53  1  0.46380328  0.42270961  0.12176951  1
  N  N54  1  0.22201315  0.53823328  0.87697577  1
  N  N55  1  0.11297334  0.42517355  0.62245096  1
  N  N56  1  0.88011726  0.57094721  0.36841055  1
  N  N57  1  0.75294265  0.42937844  0.08603546  1
  N  N58  1  0.55384382  0.54443433  0.82105664  1
  N  N59  1  0.44436036  0.42076011  0.62299462  1
  N  N60  1  0.21306563  0.90348922  0.35883034  1
  N  N61  1  0.13279425  0.77730909  0.11959305  1
  N  N62  1  0.89057733  0.87075443  0.87452314  1
  N  N63  1  0.78995791  0.75224703  0.63085739  1
  N  N64  1  0.59381512  0.85708155  0.36362232  1
  N  N65  1  0.42043837  0.81042733  0.07396952  1
  N  N66  1  0.22868249  0.86684430  0.81673263  1
  N  N67  1  0.10939787  0.75391359  0.61982810  1
  N  N68  1  0.88208403  0.85668465  0.36859524  1
  N  N69  1  0.72893197  0.78590440  0.08712910  1
  N  N70  1  0.54687870  0.87046753  0.81408657  1
  N  N71  1  0.45074575  0.74828561  0.56243770  1
