# generated using pymatgen
data_Al31B5N36
_symmetry_space_group_name_H-M   'P 1'
_cell_length_a   9.14106533
_cell_length_b   9.17198539
_cell_length_c   10.26009877
_cell_angle_alpha   91.41330657
_cell_angle_beta   90.40014236
_cell_angle_gamma   60.20572360
_symmetry_Int_Tables_number   1
_chemical_formula_structural   Al31B5N36
_chemical_formula_sum   'Al31 B5 N36'
_cell_volume   746.27475937
_cell_formula_units_Z   1
loop_
 _symmetry_equiv_pos_site_id
 _symmetry_equiv_pos_as_xyz
  1  'x, y, z'
loop_
 _atom_site_type_symbol
 _atom_site_label
 _atom_site_symmetry_multiplicity
 _atom_site_fract_x
 _atom_site_fract_y
 _atom_site_fract_z
 _atom_site_occupancy
  B  B0  1  0.11608271  0.08893980  0.30918695  1
  B  B1  1  0.58366400  0.48093804  0.15910265  1
  B  B2  1  0.23005516  0.88488330  0.13771624  1
  B  B3  1  0.53586675  0.88516496  0.10029905  1
  B  B4  1  0.77308998  0.76382673  0.35748240  1
  Al  Al5  1  0.22469031  0.19610491  0.07946847  1
  Al  Al6  1  0.78141834  0.09075413  0.81913852  1
  Al  Al7  1  0.89976180  0.19123588  0.55980715  1
  Al  Al8  1  0.45339545  0.07880605  0.31901282  1
  Al  Al9  1  0.56243852  0.19211238  0.07142264  1
  Al  Al10  1  0.10745420  0.10394120  0.81930222  1
  Al  Al11  1  0.22448578  0.19425550  0.55569584  1
  Al  Al12  1  0.78481709  0.08164836  0.31779639  1
  Al  Al13  1  0.89672883  0.18982055  0.07898862  1
  Al  Al14  1  0.43621255  0.10424684  0.81551564  1
  Al  Al15  1  0.55928879  0.19883644  0.56617890  1
  Al  Al16  1  0.10441544  0.43706388  0.38081296  1
  Al  Al17  1  0.22824698  0.55530636  0.14331032  1
  Al  Al18  1  0.76927850  0.43321703  0.90129024  1
  Al  Al19  1  0.89799694  0.52096758  0.64135408  1
  Al  Al20  1  0.44402681  0.43105816  0.38803332  1
  Al  Al21  1  0.10676007  0.43585315  0.89936648  1
  Al  Al22  1  0.22192687  0.53812287  0.63968443  1
  Al  Al23  1  0.78257303  0.43041449  0.38145832  1
  Al  Al24  1  0.85961451  0.56342435  0.14226998  1
  Al  Al25  1  0.44724949  0.43501683  0.89480146  1
  Al  Al26  1  0.55776787  0.53803303  0.64091954  1
  Al  Al27  1  0.11614821  0.76492849  0.38521750  1
  Al  Al28  1  0.77610045  0.76015647  0.82942426  1
  Al  Al29  1  0.88268096  0.86626467  0.56949654  1
  Al  Al30  1  0.45066559  0.76068520  0.37911058  1
  Al  Al31  1  0.12305791  0.76346590  0.89314616  1
  Al  Al32  1  0.22768230  0.86482440  0.63703370  1
  Al  Al33  1  0.87633104  0.87241169  0.06709808  1
  Al  Al34  1  0.43908001  0.77295593  0.89637210  1
  Al  Al35  1  0.55593666  0.86579271  0.62780882  1
  N  N36  1  0.21486710  0.18583240  0.36585827  1
  N  N37  1  0.11424316  0.08755094  0.14952928  1
  N  N38  1  0.89328289  0.19724409  0.89267450  1
  N  N39  1  0.78071457  0.09194311  0.63118585  1
  N  N40  1  0.56142870  0.19665052  0.37876858  1
  N  N41  1  0.45352761  0.07760423  0.13176955  1
  N  N42  1  0.22479547  0.20096051  0.89344169  1
  N  N43  1  0.10901029  0.10255204  0.63385422  1
  N  N44  1  0.92211943  0.18046510  0.36967337  1
  N  N45  1  0.77878056  0.08854376  0.13636741  1
  N  N46  1  0.55907314  0.19999932  0.88515439  1
  N  N47  1  0.43780971  0.10378880  0.62738863  1
  N  N48  1  0.22543875  0.54064941  0.32484005  1
  N  N49  1  0.09756786  0.45035668  0.08708548  1
  N  N50  1  0.89355087  0.52189583  0.83053886  1
  N  N51  1  0.77483969  0.42748052  0.56741439  1
  N  N52  1  0.56282985  0.52574979  0.30481914  1
  N  N53  1  0.46263752  0.43606333  0.09016733  1
  N  N54  1  0.22480415  0.53645493  0.83036498  1
  N  N55  1  0.11161950  0.42962942  0.56802458  1
  N  N56  1  0.87301050  0.56976158  0.33021206  1
  N  N57  1  0.75138638  0.43502679  0.09573565  1
  N  N58  1  0.55566253  0.54252995  0.82894065  1
  N  N59  1  0.44281167  0.43353677  0.57582649  1
  N  N60  1  0.22136154  0.88601433  0.31994723  1
  N  N61  1  0.13415447  0.78042021  0.08334761  1
  N  N62  1  0.88991047  0.87113713  0.88246888  1
  N  N63  1  0.78835798  0.75234783  0.63598235  1
  N  N64  1  0.59009677  0.85393051  0.36569836  1
  N  N65  1  0.41388007  0.81993539  0.08008575  1
  N  N66  1  0.22601890  0.86814380  0.82127547  1
  N  N67  1  0.11601737  0.75835359  0.57231799  1
  N  N68  1  0.87433153  0.85561750  0.37583070  1
  N  N69  1  0.72562444  0.78320012  0.08383057  1
  N  N70  1  0.54525931  0.87346509  0.82004598  1
  N  N71  1  0.44515243  0.75339040  0.56691516  1
