# generated using pymatgen
data_Al31B5N36
_symmetry_space_group_name_H-M   'P 1'
_cell_length_a   9.23979250
_cell_length_b   9.34011289
_cell_length_c   9.72878159
_cell_angle_alpha   90.13094591
_cell_angle_beta   89.68085663
_cell_angle_gamma   60.03943332
_symmetry_Int_Tables_number   1
_chemical_formula_structural   Al31B5N36
_chemical_formula_sum   'Al31 B5 N36'
_cell_volume   727.38056948
_cell_formula_units_Z   1
loop_
 _symmetry_equiv_pos_site_id
 _symmetry_equiv_pos_as_xyz
  1  'x, y, z'
loop_
 _atom_site_type_symbol
 _atom_site_label
 _atom_site_symmetry_multiplicity
 _atom_site_fract_x
 _atom_site_fract_y
 _atom_site_fract_z
 _atom_site_occupancy
  B  B0  1  0.11113993  0.09908369  0.40250500  1
  B  B1  1  0.58638414  0.47807827  0.16893670  1
  B  B2  1  0.24746400  0.91585896  0.17118171  1
  B  B3  1  0.55586375  0.87521429  0.16453851  1
  B  B4  1  0.77945550  0.75791073  0.39991856  1
  Al  Al5  1  0.22256152  0.20138362  0.15626622  1
  Al  Al6  1  0.78465788  0.08720588  0.89855982  1
  Al  Al7  1  0.89277533  0.20282001  0.64617809  1
  Al  Al8  1  0.45080862  0.08458587  0.35554059  1
  Al  Al9  1  0.55956902  0.19648354  0.10781102  1
  Al  Al10  1  0.11769506  0.08674747  0.90095242  1
  Al  Al11  1  0.21314570  0.20803069  0.63383659  1
  Al  Al12  1  0.79241740  0.08162670  0.39617738  1
  Al  Al13  1  0.90199569  0.19016273  0.15640373  1
  Al  Al14  1  0.44610130  0.09509728  0.82906998  1
  Al  Al15  1  0.55676042  0.20553136  0.58615140  1
  Al  Al16  1  0.10449102  0.43387105  0.39872929  1
  Al  Al17  1  0.22323850  0.54178990  0.14834909  1
  Al  Al18  1  0.77251448  0.42820239  0.90364725  1
  Al  Al19  1  0.88471744  0.54322283  0.64724843  1
  Al  Al20  1  0.44330595  0.43232509  0.39434035  1
  Al  Al21  1  0.10972360  0.42621159  0.89939231  1
  Al  Al22  1  0.22193489  0.54187646  0.64917811  1
  Al  Al23  1  0.78622138  0.42570595  0.39866155  1
  Al  Al24  1  0.86957241  0.55135554  0.15367728  1
  Al  Al25  1  0.44653677  0.43358499  0.90306683  1
  Al  Al26  1  0.55322241  0.54424811  0.65203260  1
  Al  Al27  1  0.10988772  0.76594868  0.38520649  1
  Al  Al28  1  0.76573049  0.76629129  0.90153158  1
  Al  Al29  1  0.88967261  0.86705859  0.64114570  1
  Al  Al30  1  0.45284819  0.75714045  0.37199885  1
  Al  Al31  1  0.10913640  0.76138133  0.90477769  1
  Al  Al32  1  0.22542314  0.86971888  0.64034680  1
  Al  Al33  1  0.88057715  0.86335070  0.15211430  1
  Al  Al34  1  0.43865240  0.77243717  0.91961597  1
  Al  Al35  1  0.55747302  0.86167781  0.63231811  1
  N  N36  1  0.20441248  0.19982485  0.35485475  1
  N  N37  1  0.12677375  0.07540987  0.09656054  1
  N  N38  1  0.89203939  0.20457781  0.84366203  1
  N  N39  1  0.78605578  0.08890104  0.59260511  1
  N  N40  1  0.56088059  0.20495125  0.37376826  1
  N  N41  1  0.45659286  0.07609840  0.14820219  1
  N  N42  1  0.21412773  0.20708928  0.83436254  1
  N  N43  1  0.11261960  0.08906111  0.56774083  1
  N  N44  1  0.91745003  0.19190421  0.34967034  1
  N  N45  1  0.78972677  0.08415229  0.09803594  1
  N  N46  1  0.55278107  0.20512643  0.88562952  1
  N  N47  1  0.44495416  0.09233494  0.61355079  1
  N  N48  1  0.22349154  0.53814804  0.34001823  1
  N  N49  1  0.10720626  0.42263904  0.09602962  1
  N  N50  1  0.88360787  0.54175965  0.84530013  1
  N  N51  1  0.77742138  0.42647521  0.59171817  1
  N  N52  1  0.56669696  0.52439871  0.31883345  1
  N  N53  1  0.46373223  0.43460335  0.10441002  1
  N  N54  1  0.22399949  0.53702560  0.84477372  1
  N  N55  1  0.10870993  0.43215461  0.59174091  1
  N  N56  1  0.87646715  0.56315975  0.34709476  1
  N  N57  1  0.75837778  0.42518078  0.10439494  1
  N  N58  1  0.55088726  0.54967437  0.84703578  1
  N  N59  1  0.44446666  0.43385534  0.59095768  1
  N  N60  1  0.21496031  0.90437353  0.32663126  1
  N  N61  1  0.09982435  0.75468369  0.09369233  1
  N  N62  1  0.88608056  0.86733034  0.83680008  1
  N  N63  1  0.77820705  0.75864372  0.56690739  1
  N  N64  1  0.58869081  0.85115264  0.33683549  1
  N  N65  1  0.42405395  0.81594949  0.11696731  1
  N  N66  1  0.22298281  0.86973574  0.83693870  1
  N  N67  1  0.11372955  0.76035530  0.58206898  1
  N  N68  1  0.87762119  0.85625679  0.34677010  1
  N  N69  1  0.73904352  0.77584120  0.09490741  1
  N  N70  1  0.55272860  0.86650465  0.82947928  1
  N  N71  1  0.44562841  0.75415549  0.57050035  1
