# generated using pymatgen
data_Al31B5N36
_symmetry_space_group_name_H-M   'P 1'
_cell_length_a   9.15626430
_cell_length_b   9.22578663
_cell_length_c   10.17842081
_cell_angle_alpha   91.08077680
_cell_angle_beta   90.07372373
_cell_angle_gamma   60.17848802
_symmetry_Int_Tables_number   1
_chemical_formula_structural   Al31B5N36
_chemical_formula_sum   'Al31 B5 N36'
_cell_volume   745.78713291
_cell_formula_units_Z   1
loop_
 _symmetry_equiv_pos_site_id
 _symmetry_equiv_pos_as_xyz
  1  'x, y, z'
loop_
 _atom_site_type_symbol
 _atom_site_label
 _atom_site_symmetry_multiplicity
 _atom_site_fract_x
 _atom_site_fract_y
 _atom_site_fract_z
 _atom_site_occupancy
  B  B0  1  0.11421816  0.09742725  0.30838272  1
  B  B1  1  0.58311458  0.48178849  0.15873999  1
  B  B2  1  0.23175101  0.88811866  0.15370503  1
  B  B3  1  0.53855480  0.88327693  0.10365125  1
  B  B4  1  0.77360229  0.76508446  0.35672848  1
  Al  Al5  1  0.22621975  0.19438404  0.07959922  1
  Al  Al6  1  0.78046403  0.09188150  0.81755044  1
  Al  Al7  1  0.90036522  0.19158138  0.56082413  1
  Al  Al8  1  0.45352271  0.08016434  0.31988104  1
  Al  Al9  1  0.56401831  0.19017268  0.07044406  1
  Al  Al10  1  0.10684439  0.10377391  0.82041506  1
  Al  Al11  1  0.22423288  0.19412187  0.55666853  1
  Al  Al12  1  0.78242649  0.08587632  0.31792476  1
  Al  Al13  1  0.89567310  0.19154548  0.07845443  1
  Al  Al14  1  0.43619888  0.10261616  0.81531495  1
  Al  Al15  1  0.56104945  0.19742765  0.56673756  1
  Al  Al16  1  0.10368108  0.43817513  0.38204349  1
  Al  Al17  1  0.23106522  0.54473535  0.14068391  1
  Al  Al18  1  0.76745106  0.43439096  0.90052051  1
  Al  Al19  1  0.89638042  0.52423110  0.64207209  1
  Al  Al20  1  0.44353008  0.43208418  0.38946429  1
  Al  Al21  1  0.10602843  0.43308272  0.89940381  1
  Al  Al22  1  0.22420338  0.53376192  0.63711077  1
  Al  Al23  1  0.78238275  0.43171800  0.38199035  1
  Al  Al24  1  0.86010096  0.56282443  0.14137539  1
  Al  Al25  1  0.44798695  0.43383697  0.89397097  1
  Al  Al26  1  0.55696864  0.53960352  0.64132261  1
  Al  Al27  1  0.10938668  0.76993543  0.33670674  1
  Al  Al28  1  0.77250970  0.76180414  0.83342968  1
  Al  Al29  1  0.89006158  0.86210647  0.56740351  1
  Al  Al30  1  0.45416898  0.75968928  0.37779233  1
  Al  Al31  1  0.11468106  0.76065145  0.86130804  1
  Al  Al32  1  0.22919698  0.86398998  0.63772836  1
  Al  Al33  1  0.88268967  0.87067217  0.06990947  1
  Al  Al34  1  0.43694282  0.77379034  0.90330744  1
  Al  Al35  1  0.55653477  0.86553320  0.62676319  1
  N  N36  1  0.21370985  0.18894791  0.36536929  1
  N  N37  1  0.11214581  0.09161517  0.14969383  1
  N  N38  1  0.89059485  0.19959896  0.89078597  1
  N  N39  1  0.78264516  0.08978161  0.62871316  1
  N  N40  1  0.56017219  0.19846172  0.37814812  1
  N  N41  1  0.45509397  0.07600504  0.13143708  1
  N  N42  1  0.22419912  0.20023434  0.89250289  1
  N  N43  1  0.11040672  0.10010404  0.63366575  1
  N  N44  1  0.92192939  0.18266995  0.36933836  1
  N  N45  1  0.77907675  0.08918633  0.13516184  1
  N  N46  1  0.55806665  0.19993136  0.88297021  1
  N  N47  1  0.43840208  0.10257890  0.62611099  1
  N  N48  1  0.22728220  0.53632254  0.32539331  1
  N  N49  1  0.09866159  0.44475638  0.08787118  1
  N  N50  1  0.89192632  0.52429300  0.83262071  1
  N  N51  1  0.77571121  0.42761551  0.56933836  1
  N  N52  1  0.56239574  0.52642071  0.30549071  1
  N  N53  1  0.46435147  0.43387498  0.08929892  1
  N  N54  1  0.22632790  0.53081592  0.83136339  1
  N  N55  1  0.11140626  0.42767063  0.56973382  1
  N  N56  1  0.87258417  0.57173522  0.33084379  1
  N  N57  1  0.75107823  0.43583566  0.09581264  1
  N  N58  1  0.55288988  0.54560597  0.83062075  1
  N  N59  1  0.44623315  0.43093596  0.57763580  1
  N  N60  1  0.22773113  0.89044345  0.31445130  1
  N  N61  1  0.12362163  0.77914662  0.11508252  1
  N  N62  1  0.88762725  0.87324446  0.88316454  1
  N  N63  1  0.78791151  0.75416188  0.63575707  1
  N  N64  1  0.59121146  0.85549619  0.36595952  1
  N  N65  1  0.41650083  0.81771193  0.08864604  1
  N  N66  1  0.22582888  0.87044919  0.82758070  1
  N  N67  1  0.11581173  0.75628377  0.59203887  1
  N  N68  1  0.87514573  0.85726998  0.37295143  1
  N  N69  1  0.72835927  0.78268439  0.08330901  1
  N  N70  1  0.54247898  0.87327369  0.82166821  1
  N  N71  1  0.44557216  0.75365661  0.56592131  1
