# generated using pymatgen
data_Al31B5N36
_symmetry_space_group_name_H-M   'P 1'
_cell_length_a   9.15061998
_cell_length_b   9.13814501
_cell_length_c   10.26291681
_cell_angle_alpha   89.81432884
_cell_angle_beta   90.01682957
_cell_angle_gamma   60.01271675
_symmetry_Int_Tables_number   1
_chemical_formula_structural   Al31B5N36
_chemical_formula_sum   'Al31 B5 N36'
_cell_volume   743.29686792
_cell_formula_units_Z   1
loop_
 _symmetry_equiv_pos_site_id
 _symmetry_equiv_pos_as_xyz
  1  'x, y, z'
loop_
 _atom_site_type_symbol
 _atom_site_label
 _atom_site_symmetry_multiplicity
 _atom_site_fract_x
 _atom_site_fract_y
 _atom_site_fract_z
 _atom_site_occupancy
  B  B0  1  0.11508713  0.08866231  0.35686349  1
  B  B1  1  0.55400758  0.54514338  0.10186207  1
  B  B2  1  0.21763211  0.87545481  0.10272848  1
  B  B3  1  0.56239928  0.86445739  0.10194024  1
  B  B4  1  0.77540443  0.76241484  0.35803930  1
  Al  Al5  1  0.23025607  0.18700154  0.06087412  1
  Al  Al6  1  0.77809004  0.09495350  0.81004227  1
  Al  Al7  1  0.89563992  0.20181518  0.56093431  1
  Al  Al8  1  0.45255606  0.07652481  0.31277562  1
  Al  Al9  1  0.56098762  0.20172807  0.06237095  1
  Al  Al10  1  0.11025889  0.09707226  0.82218777  1
  Al  Al11  1  0.22204855  0.20254651  0.56238397  1
  Al  Al12  1  0.78252671  0.08718481  0.31199072  1
  Al  Al13  1  0.89048814  0.19940398  0.06071141  1
  Al  Al14  1  0.44122595  0.10122719  0.81178122  1
  Al  Al15  1  0.55493351  0.20404447  0.55612622  1
  Al  Al16  1  0.10634852  0.42931704  0.31034346  1
  Al  Al17  1  0.22898805  0.54427780  0.06157543  1
  Al  Al18  1  0.77972431  0.42678232  0.80728123  1
  Al  Al19  1  0.89000322  0.54125966  0.56292354  1
  Al  Al20  1  0.44800102  0.43081114  0.31306468  1
  Al  Al21  1  0.11288808  0.42591339  0.81053806  1
  Al  Al22  1  0.22300961  0.53781448  0.55755686  1
  Al  Al23  1  0.77536369  0.43658374  0.31536270  1
  Al  Al24  1  0.87462326  0.54487253  0.05862597  1
  Al  Al25  1  0.44449478  0.42761070  0.80968495  1
  Al  Al26  1  0.55812580  0.53339629  0.58231780  1
  Al  Al27  1  0.11078051  0.76904683  0.31452015  1
  Al  Al28  1  0.78218226  0.75742917  0.82195445  1
  Al  Al29  1  0.88857707  0.86898800  0.56224308  1
  Al  Al30  1  0.44551382  0.76989483  0.39217086  1
  Al  Al31  1  0.10976475  0.75509820  0.81142394  1
  Al  Al32  1  0.22768607  0.87024567  0.63286732  1
  Al  Al33  1  0.88387599  0.87462769  0.06087278  1
  Al  Al34  1  0.44622119  0.75776228  0.88683718  1
  Al  Al35  1  0.55631895  0.86729963  0.63290951  1
  N  N36  1  0.21099483  0.18977556  0.36978324  1
  N  N37  1  0.12905378  0.05661480  0.08995353  1
  N  N38  1  0.88536167  0.20752336  0.87619700  1
  N  N39  1  0.77837273  0.09412391  0.61977943  1
  N  N40  1  0.55445096  0.20384234  0.36764143  1
  N  N41  1  0.45886628  0.06092003  0.12198230  1
  N  N42  1  0.22462532  0.20704299  0.87721981  1
  N  N43  1  0.10761535  0.10327045  0.63222590  1
  N  N44  1  0.91765396  0.19273923  0.36827881  1
  N  N45  1  0.77936648  0.09254278  0.12839642  1
  N  N46  1  0.55668397  0.20489455  0.87801640  1
  N  N47  1  0.44154631  0.10140128  0.62230879  1
  N  N48  1  0.22303989  0.53935993  0.36913424  1
  N  N49  1  0.11154517  0.42445073  0.12403153  1
  N  N50  1  0.89337806  0.53209186  0.87499540  1
  N  N51  1  0.78688556  0.42267285  0.61941066  1
  N  N52  1  0.55991069  0.53180135  0.38200603  1
  N  N53  1  0.45911113  0.44520163  0.12150520  1
  N  N54  1  0.22360756  0.53612136  0.87752685  1
  N  N55  1  0.11322319  0.42610813  0.62085495  1
  N  N56  1  0.87793609  0.56577097  0.37113349  1
  N  N57  1  0.74819905  0.44394577  0.12437432  1
  N  N58  1  0.55659181  0.53948630  0.83830444  1
  N  N59  1  0.44143593  0.42198172  0.62252896  1
  N  N60  1  0.20673859  0.90431746  0.35928154  1
  N  N61  1  0.12586431  0.77302939  0.12258651  1
  N  N62  1  0.89162791  0.87343967  0.87655741  1
  N  N63  1  0.78887858  0.75500187  0.63218553  1
  N  N64  1  0.59245440  0.85326943  0.36105133  1
  N  N65  1  0.44910171  0.75506756  0.08720914  1
  N  N66  1  0.22920726  0.86514475  0.82468384  1
  N  N67  1  0.10839115  0.75594416  0.62182215  1
  N  N68  1  0.87854153  0.85669465  0.37042239  1
  N  N69  1  0.74417949  0.77619873  0.08993184  1
  N  N70  1  0.55066902  0.87104492  0.82468427  1
  N  N71  1  0.44297019  0.76502975  0.57501425  1
