
#======================================================================
# CRYSTAL DATA
#----------------------------------------------------------------------
data_VESTA_phase_1

_chemical_name_common                  'Al   Mg   Hf   N                      '
_cell_length_a                         9.942170
_cell_length_b                         9.939665
_cell_length_c                         8.629422
_cell_angle_alpha                      89.991302
_cell_angle_beta                       89.999153
_cell_angle_gamma                      59.871189
_cell_volume                           737.564665
_space_group_name_H-M_alt              'P 1'
_space_group_IT_number                 1

loop_
_space_group_symop_operation_xyz
   'x, y, z'

loop_
   _atom_site_label
   _atom_site_occupancy
   _atom_site_fract_x
   _atom_site_fract_y
   _atom_site_fract_z
   _atom_site_adp_type
   _atom_site_U_iso_or_equiv
   _atom_site_type_symbol
   Al1        1.0     0.107590     0.096161     0.344811    Uiso  ? Al
   Al2        1.0     0.222085     0.205473     0.095630    Uiso  ? Al
   Al3        1.0     0.778339     0.095047     0.846000    Uiso  ? Al
   Al4        1.0     0.888269     0.205454     0.592170    Uiso  ? Al
   Al5        1.0     0.444932     0.098366     0.345806    Uiso  ? Al
   Al6        1.0     0.556393     0.204617     0.093989    Uiso  ? Al
   Al7        1.0     0.108040     0.098389     0.846752    Uiso  ? Al
   Al8        1.0     0.221499     0.205730     0.595965    Uiso  ? Al
   Al9        1.0     0.778166     0.093037     0.345071    Uiso  ? Al
   Al10       1.0     0.887559     0.205612     0.100374    Uiso  ? Al
   Al11       1.0     0.442212     0.098240     0.845668    Uiso  ? Al
   Al12       1.0     0.555816     0.205560     0.596779    Uiso  ? Al
   Al13       1.0     0.111785     0.428305     0.345622    Uiso  ? Al
   Al14       1.0     0.221579     0.538127     0.095237    Uiso  ? Al
   Al15       1.0     0.781734     0.426004     0.852346    Uiso  ? Al
   Al16       1.0     0.889355     0.539264     0.592721    Uiso  ? Al
   Al17       1.0     0.442208     0.423830     0.344296    Uiso  ? Al
   Al18       1.0     0.558309     0.533206     0.090522    Uiso  ? Al
   Al19       1.0     0.110247     0.427911     0.845847    Uiso  ? Al
   Al20       1.0     0.222141     0.537575     0.595847    Uiso  ? Al
   Al21       1.0     0.889360     0.538429     0.100356    Uiso  ? Al
   Al22       1.0     0.442343     0.426589     0.846997    Uiso  ? Al
   Al23       1.0     0.559017     0.531120     0.606347    Uiso  ? Al
   Al24       1.0     0.107096     0.760486     0.346124    Uiso  ? Al
   Al25       1.0     0.217032     0.874450     0.086690    Uiso  ? Al
   Al26       1.0     0.782563     0.758383     0.847492    Uiso  ? Al
   Al27       1.0     0.888272     0.872966     0.596729    Uiso  ? Al
   Al28       1.0     0.558343     0.875413     0.086979    Uiso  ? Al
   Al29       1.0     0.109587     0.758767     0.845361    Uiso  ? Al
   Al30       1.0     0.214990     0.875820     0.608100    Uiso  ? Al
   Al31       1.0     0.783545     0.762876     0.343665    Uiso  ? Al
   Al32       1.0     0.888532     0.873786     0.093634    Uiso  ? Al
   Al33       1.0     0.444805     0.760754     0.848262    Uiso  ? Al
   Al34       1.0     0.560314     0.875862     0.608117    Uiso  ? Al
   Mg1        1.0     0.781496     0.425093     0.350160    Uiso  ? Mg
   Hf1        1.0     0.443966     0.762666     0.355162    Uiso  ? Hf
   N1         1.0     0.222804     0.203600     0.362109    Uiso  ? N
   N2         1.0     0.112528     0.093209     0.110420    Uiso  ? N
   N3         1.0     0.889365     0.203094     0.864612    Uiso  ? N
   N4         1.0     0.776948     0.094604     0.613854    Uiso  ? N
   N5         1.0     0.555483     0.205368     0.362833    Uiso  ? N
   N6         1.0     0.444498     0.094585     0.111389    Uiso  ? N
   N7         1.0     0.221682     0.205987     0.863491    Uiso  ? N
   N8         1.0     0.110353     0.096331     0.615088    Uiso  ? N
   N9         1.0     0.894039     0.192658     0.360485    Uiso  ? N
   N10        1.0     0.776483     0.094006     0.111925    Uiso  ? N
   N11        1.0     0.555842     0.204830     0.863148    Uiso  ? N
   N12        1.0     0.443169     0.096932     0.614342    Uiso  ? N
   N13        1.0     0.222358     0.538528     0.362156    Uiso  ? N
   N14        1.0     0.112848     0.426270     0.113116    Uiso  ? N
   N15        1.0     0.891284     0.539110     0.864567    Uiso  ? N
   N16        1.0     0.780097     0.426968     0.617928    Uiso  ? N
   N17        1.0     0.549283     0.529194     0.365523    Uiso  ? N
   N18        1.0     0.443966     0.426830     0.109547    Uiso  ? N
   N19        1.0     0.220971     0.538419     0.863556    Uiso  ? N
   N20        1.0     0.111965     0.426758     0.612502    Uiso  ? N
   N21        1.0     0.894785     0.547049     0.360332    Uiso  ? N
   N22        1.0     0.777241     0.428334     0.098722    Uiso  ? N
   N23        1.0     0.553376     0.538844     0.857553    Uiso  ? N
   N24        1.0     0.442861     0.425999     0.616076    Uiso  ? N
   N25        1.0     0.206281     0.878606     0.366918    Uiso  ? N
   N26        1.0     0.111252     0.761068     0.111553    Uiso  ? N
   N27        1.0     0.889417     0.872912     0.862991    Uiso  ? N
   N28        1.0     0.780118     0.760948     0.616881    Uiso  ? N
   N29        1.0     0.566153     0.880935     0.366580    Uiso  ? N
   N30        1.0     0.444026     0.762772     0.101326    Uiso  ? N
   N31        1.0     0.220650     0.872239     0.857364    Uiso  ? N
   N32        1.0     0.110317     0.759534     0.614067    Uiso  ? N
   N33        1.0     0.889189     0.873042     0.363177    Uiso  ? N
   N34        1.0     0.777386     0.763253     0.109053    Uiso  ? N
   N35        1.0     0.555990     0.873389     0.857908    Uiso  ? N
   N36        1.0     0.444504     0.762911     0.613934    Uiso  ? N
