
#======================================================================
# CRYSTAL DATA
#----------------------------------------------------------------------
data_VESTA_phase_1

_chemical_name_common                  'Al   Mg   Hf   N                      '
_cell_length_a                         9.453000
_cell_length_b                         9.454511
_cell_length_c                         10.072155
_cell_angle_alpha                      89.970695
_cell_angle_beta                       89.972069
_cell_angle_gamma                      59.902641
_cell_volume                           778.815841
_space_group_name_H-M_alt              'P 1'
_space_group_IT_number                 1

loop_
_space_group_symop_operation_xyz
   'x, y, z'

loop_
   _atom_site_label
   _atom_site_occupancy
   _atom_site_fract_x
   _atom_site_fract_y
   _atom_site_fract_z
   _atom_site_adp_type
   _atom_site_U_iso_or_equiv
   _atom_site_type_symbol
   Al1        1.0     0.104804     0.098434     0.312183    Uiso  ? Al
   Al2        1.0     0.221290     0.206049     0.062431    Uiso  ? Al
   Al3        1.0     0.777654     0.094125     0.811897    Uiso  ? Al
   Al4        1.0     0.889134     0.204278     0.561742    Uiso  ? Al
   Al5        1.0     0.444604     0.099686     0.311760    Uiso  ? Al
   Al6        1.0     0.556242     0.205283     0.062158    Uiso  ? Al
   Al7        1.0     0.110415     0.095873     0.811622    Uiso  ? Al
   Al8        1.0     0.221698     0.205967     0.562049    Uiso  ? Al
   Al9        1.0     0.779302     0.094232     0.312893    Uiso  ? Al
   Al10       1.0     0.887576     0.206613     0.060080    Uiso  ? Al
   Al11       1.0     0.443310     0.096565     0.812082    Uiso  ? Al
   Al12       1.0     0.555659     0.205713     0.562126    Uiso  ? Al
   Al13       1.0     0.109638     0.429329     0.312612    Uiso  ? Al
   Al14       1.0     0.221675     0.538375     0.062146    Uiso  ? Al
   Al15       1.0     0.779718     0.426861     0.812811    Uiso  ? Al
   Al16       1.0     0.890001     0.539682     0.561651    Uiso  ? Al
   Al17       1.0     0.443384     0.423767     0.311731    Uiso  ? Al
   Al18       1.0     0.558261     0.534165     0.054090    Uiso  ? Al
   Al19       1.0     0.111393     0.427695     0.811704    Uiso  ? Al
   Al20       1.0     0.222063     0.537958     0.561406    Uiso  ? Al
   Al21       1.0     0.888412     0.538239     0.060189    Uiso  ? Al
   Al22       1.0     0.442860     0.426744     0.811793    Uiso  ? Al
   Al23       1.0     0.557176     0.533404     0.567947    Uiso  ? Al
   Al24       1.0     0.106377     0.760321     0.312214    Uiso  ? Al
   Al25       1.0     0.217945     0.874147     0.056610    Uiso  ? Al
   Al26       1.0     0.779901     0.760651     0.811907    Uiso  ? Al
   Al27       1.0     0.888484     0.872835     0.561605    Uiso  ? Al
   Al28       1.0     0.557728     0.873887     0.056533    Uiso  ? Al
   Al29       1.0     0.110113     0.760098     0.811798    Uiso  ? Al
   Al30       1.0     0.216700     0.875003     0.566933    Uiso  ? Al
   Al31       1.0     0.785273     0.760789     0.312266    Uiso  ? Al
   Al32       1.0     0.888333     0.873082     0.062080    Uiso  ? Al
   Al33       1.0     0.444051     0.761673     0.809397    Uiso  ? Al
   Al34       1.0     0.559221     0.875531     0.567890    Uiso  ? Al
   Mg1        1.0     0.783643     0.422708     0.311716    Uiso  ? Mg
   Hf1        1.0     0.446193     0.760579     0.316728    Uiso  ? Hf
   N1         1.0     0.222550     0.204183     0.370410    Uiso  ? N
   N2         1.0     0.111234     0.093543     0.120557    Uiso  ? N
   N3         1.0     0.889546     0.203525     0.869432    Uiso  ? N
   N4         1.0     0.776822     0.094093     0.622180    Uiso  ? N
   N5         1.0     0.555933     0.205301     0.371276    Uiso  ? N
   N6         1.0     0.444580     0.093727     0.120921    Uiso  ? N
   N7         1.0     0.221969     0.205610     0.872005    Uiso  ? N
   N8         1.0     0.111453     0.095609     0.622682    Uiso  ? N
   N9         1.0     0.894607     0.191493     0.376055    Uiso  ? N
   N10        1.0     0.777682     0.094518     0.121118    Uiso  ? N
   N11        1.0     0.555475     0.205298     0.872091    Uiso  ? N
   N12        1.0     0.443280     0.096816     0.622316    Uiso  ? N
   N13        1.0     0.222571     0.538242     0.370337    Uiso  ? N
   N14        1.0     0.110841     0.427737     0.121238    Uiso  ? N
   N15        1.0     0.890020     0.539662     0.869441    Uiso  ? N
   N16        1.0     0.779767     0.427054     0.621800    Uiso  ? N
   N17        1.0     0.549518     0.528326     0.380973    Uiso  ? N
   N18        1.0     0.444404     0.428116     0.120214    Uiso  ? N
   N19        1.0     0.221648     0.538873     0.871881    Uiso  ? N
   N20        1.0     0.112375     0.426886     0.621715    Uiso  ? N
   N21        1.0     0.895082     0.547142     0.374948    Uiso  ? N
   N22        1.0     0.776713     0.428486     0.106736    Uiso  ? N
   N23        1.0     0.553733     0.539164     0.864498    Uiso  ? N
   N24        1.0     0.442682     0.426167     0.623072    Uiso  ? N
   N25        1.0     0.206786     0.878587     0.376149    Uiso  ? N
   N26        1.0     0.111379     0.761215     0.121038    Uiso  ? N
   N27        1.0     0.889012     0.872375     0.872033    Uiso  ? N
   N28        1.0     0.779532     0.761549     0.623325    Uiso  ? N
   N29        1.0     0.565863     0.881946     0.377367    Uiso  ? N
   N30        1.0     0.444295     0.760769     0.108845    Uiso  ? N
   N31        1.0     0.221397     0.872229     0.867349    Uiso  ? N
   N32        1.0     0.110412     0.759956     0.621803    Uiso  ? N
   N33        1.0     0.888881     0.873510     0.371364    Uiso  ? N
   N34        1.0     0.777154     0.761689     0.120454    Uiso  ? N
   N35        1.0     0.555662     0.872730     0.867435    Uiso  ? N
   N36        1.0     0.444368     0.762681     0.615550    Uiso  ? N
