
#======================================================================
# CRYSTAL DATA
#----------------------------------------------------------------------
data_VESTA_phase_1

_chemical_name_common                  'Al   Mg   Hf   N                      '
_cell_length_a                         9.622268
_cell_length_b                         9.621116
_cell_length_c                         9.613589
_cell_angle_alpha                      89.979004
_cell_angle_beta                       89.992226
_cell_angle_gamma                      59.873333
_cell_volume                           769.774105
_space_group_name_H-M_alt              'P 1'
_space_group_IT_number                 1

loop_
_space_group_symop_operation_xyz
   'x, y, z'

loop_
   _atom_site_label
   _atom_site_occupancy
   _atom_site_fract_x
   _atom_site_fract_y
   _atom_site_fract_z
   _atom_site_adp_type
   _atom_site_U_iso_or_equiv
   _atom_site_type_symbol
   Al1        1.0     0.105494     0.097350     0.327533    Uiso  ? Al
   Al2        1.0     0.221694     0.205792     0.079195    Uiso  ? Al
   Al3        1.0     0.777872     0.094403     0.828423    Uiso  ? Al
   Al4        1.0     0.888988     0.204552     0.577016    Uiso  ? Al
   Al5        1.0     0.445054     0.099006     0.327867    Uiso  ? Al
   Al6        1.0     0.556523     0.204824     0.078386    Uiso  ? Al
   Al7        1.0     0.109627     0.096906     0.829459    Uiso  ? Al
   Al8        1.0     0.221544     0.205857     0.578333    Uiso  ? Al
   Al9        1.0     0.778828     0.093729     0.328962    Uiso  ? Al
   Al10       1.0     0.887327     0.206312     0.078847    Uiso  ? Al
   Al11       1.0     0.442729     0.097345     0.829175    Uiso  ? Al
   Al12       1.0     0.555374     0.205870     0.578487    Uiso  ? Al
   Al13       1.0     0.110450     0.428905     0.329031    Uiso  ? Al
   Al14       1.0     0.221506     0.538325     0.078881    Uiso  ? Al
   Al15       1.0     0.780673     0.426567     0.833320    Uiso  ? Al
   Al16       1.0     0.890009     0.539796     0.577314    Uiso  ? Al
   Al17       1.0     0.442965     0.423573     0.326962    Uiso  ? Al
   Al18       1.0     0.557389     0.535967     0.072511    Uiso  ? Al
   Al19       1.0     0.111127     0.427685     0.828263    Uiso  ? Al
   Al20       1.0     0.222187     0.537545     0.577808    Uiso  ? Al
   Al21       1.0     0.888870     0.538097     0.079078    Uiso  ? Al
   Al22       1.0     0.442335     0.426602     0.829853    Uiso  ? Al
   Al23       1.0     0.558712     0.529957     0.586468    Uiso  ? Al
   Al24       1.0     0.106280     0.760545     0.328349    Uiso  ? Al
   Al25       1.0     0.219755     0.873071     0.073276    Uiso  ? Al
   Al26       1.0     0.781076     0.759718     0.830147    Uiso  ? Al
   Al27       1.0     0.888414     0.872634     0.578235    Uiso  ? Al
   Al28       1.0     0.556906     0.873509     0.073491    Uiso  ? Al
   Al29       1.0     0.110018     0.759305     0.828849    Uiso  ? Al
   Al30       1.0     0.213219     0.876756     0.585952    Uiso  ? Al
   Al31       1.0     0.784703     0.761992     0.327130    Uiso  ? Al
   Al32       1.0     0.888513     0.873573     0.078051    Uiso  ? Al
   Al33       1.0     0.444298     0.761646     0.823517    Uiso  ? Al
   Al34       1.0     0.561244     0.877104     0.586329    Uiso  ? Al
   Mg1        1.0     0.782523     0.423886     0.331201    Uiso  ? Mg
   Hf1        1.0     0.445126     0.761465     0.345017    Uiso  ? Hf
   N1         1.0     0.222744     0.203459     0.378941    Uiso  ? N
   N2         1.0     0.112002     0.092895     0.128336    Uiso  ? N
   N3         1.0     0.889522     0.202936     0.879951    Uiso  ? N
   N4         1.0     0.776746     0.094330     0.630636    Uiso  ? N
   N5         1.0     0.555449     0.205456     0.379727    Uiso  ? N
   N6         1.0     0.444812     0.093691     0.129070    Uiso  ? N
   N7         1.0     0.221821     0.205923     0.881125    Uiso  ? N
   N8         1.0     0.110524     0.096780     0.632423    Uiso  ? N
   N9         1.0     0.894544     0.191491     0.382406    Uiso  ? N
   N10        1.0     0.777222     0.094244     0.129844    Uiso  ? N
   N11        1.0     0.555834     0.204889     0.880907    Uiso  ? N
   N12        1.0     0.442816     0.097712     0.631684    Uiso  ? N
   N13        1.0     0.222599     0.538243     0.378901    Uiso  ? N
   N14        1.0     0.111756     0.427073     0.130382    Uiso  ? N
   N15        1.0     0.891017     0.539368     0.880066    Uiso  ? N
   N16        1.0     0.780677     0.426667     0.631888    Uiso  ? N
   N17        1.0     0.549865     0.525966     0.389764    Uiso  ? N
   N18        1.0     0.444462     0.427853     0.127753    Uiso  ? N
   N19        1.0     0.221190     0.538601     0.881064    Uiso  ? N
   N20        1.0     0.112304     0.426721     0.630125    Uiso  ? N
   N21        1.0     0.895125     0.547839     0.381731    Uiso  ? N
   N22        1.0     0.776469     0.428696     0.115302    Uiso  ? N
   N23        1.0     0.552775     0.540543     0.872941    Uiso  ? N
   N24        1.0     0.442220     0.425571     0.633218    Uiso  ? N
   N25        1.0     0.203606     0.879802     0.386147    Uiso  ? N
   N26        1.0     0.111535     0.761369     0.129185    Uiso  ? N
   N27        1.0     0.889248     0.872739     0.880634    Uiso  ? N
   N28        1.0     0.780603     0.760964     0.633548    Uiso  ? N
   N29        1.0     0.567783     0.882866     0.386695    Uiso  ? N
   N30        1.0     0.444277     0.761529     0.124667    Uiso  ? N
   N31        1.0     0.222546     0.871457     0.874674    Uiso  ? N
   N32        1.0     0.110013     0.759280     0.631243    Uiso  ? N
   N33        1.0     0.888982     0.873242     0.380035    Uiso  ? N
   N34        1.0     0.777028     0.762614     0.127716    Uiso  ? N
   N35        1.0     0.555117     0.872324     0.875150    Uiso  ? N
   N36        1.0     0.444447     0.763179     0.619113    Uiso  ? N
