
#======================================================================
# CRYSTAL DATA
#----------------------------------------------------------------------
data_VESTA_phase_1

_chemical_name_common                  'Al   Mg   Hf   N                      '
_cell_length_a                         9.674140
_cell_length_b                         9.672626
_cell_length_c                         9.461647
_cell_angle_alpha                      90.019058
_cell_angle_beta                       90.005783
_cell_angle_gamma                      59.871803
_cell_volume                           765.758138
_space_group_name_H-M_alt              'P 1'
_space_group_IT_number                 1

loop_
_space_group_symop_operation_xyz
   'x, y, z'

loop_
   _atom_site_label
   _atom_site_occupancy
   _atom_site_fract_x
   _atom_site_fract_y
   _atom_site_fract_z
   _atom_site_adp_type
   _atom_site_U_iso_or_equiv
   _atom_site_type_symbol
   Al1        1.0     0.105967     0.096911     0.380014    Uiso  ? Al
   Al2        1.0     0.221495     0.205865     0.129078    Uiso  ? Al
   Al3        1.0     0.777967     0.094513     0.878871    Uiso  ? Al
   Al4        1.0     0.887340     0.206103     0.627629    Uiso  ? Al
   Al5        1.0     0.445168     0.098724     0.379423    Uiso  ? Al
   Al6        1.0     0.555365     0.205891     0.128842    Uiso  ? Al
   Al7        1.0     0.109253     0.097373     0.877691    Uiso  ? Al
   Al8        1.0     0.221821     0.205719     0.628092    Uiso  ? Al
   Al9        1.0     0.778695     0.093531     0.378541    Uiso  ? Al
   Al10       1.0     0.888951     0.204663     0.130871    Uiso  ? Al
   Al11       1.0     0.442519     0.097703     0.878201    Uiso  ? Al
   Al12       1.0     0.556562     0.204700     0.629048    Uiso  ? Al
   Al13       1.0     0.110749     0.428782     0.378367    Uiso  ? Al
   Al14       1.0     0.222226     0.537467     0.129576    Uiso  ? Al
   Al15       1.0     0.781067     0.426376     0.872685    Uiso  ? Al
   Al16       1.0     0.889021     0.538133     0.627414    Uiso  ? Al
   Al17       1.0     0.442892     0.423644     0.380618    Uiso  ? Al
   Al18       1.0     0.558906     0.529680     0.119982    Uiso  ? Al
   Al19       1.0     0.110982     0.427734     0.879077    Uiso  ? Al
   Al20       1.0     0.221465     0.538338     0.628396    Uiso  ? Al
   Al21       1.0     0.889952     0.539779     0.130487    Uiso  ? Al
   Al22       1.0     0.442171     0.426491     0.877259    Uiso  ? Al
   Al23       1.0     0.557252     0.536018     0.634890    Uiso  ? Al
   Al24       1.0     0.106418     0.760655     0.378924    Uiso  ? Al
   Al25       1.0     0.213029     0.876870     0.120140    Uiso  ? Al
   Al26       1.0     0.781541     0.759366     0.876865    Uiso  ? Al
   Al27       1.0     0.888546     0.873682     0.629451    Uiso  ? Al
   Al28       1.0     0.561405     0.877124     0.119932    Uiso  ? Al
   Al29       1.0     0.109873     0.759059     0.878544    Uiso  ? Al
   Al30       1.0     0.219715     0.873055     0.634679    Uiso  ? Al
   Al31       1.0     0.784358     0.762346     0.380591    Uiso  ? Al
   Al32       1.0     0.888378     0.872602     0.129007    Uiso  ? Al
   Al33       1.0     0.444369     0.761567     0.883342    Uiso  ? Al
   Al34       1.0     0.556872     0.873687     0.634402    Uiso  ? Al
   Mg1        1.0     0.782127     0.424235     0.375260    Uiso  ? Mg
   Hf1        1.0     0.444861     0.761692     0.361076    Uiso  ? Hf
   N1         1.0     0.222787     0.203388     0.331754    Uiso  ? N
   N2         1.0     0.110296     0.097065     0.078069    Uiso  ? N
   N3         1.0     0.889543     0.202767     0.830059    Uiso  ? N
   N4         1.0     0.777052     0.094132     0.580820    Uiso  ? N
   N5         1.0     0.555388     0.205492     0.330959    Uiso  ? N
   N6         1.0     0.442708     0.097886     0.078910    Uiso  ? N
   N7         1.0     0.221776     0.206015     0.829423    Uiso  ? N
   N8         1.0     0.112291     0.092672     0.582537    Uiso  ? N
   N9         1.0     0.894547     0.191548     0.329221    Uiso  ? N
   N10        1.0     0.776781     0.094410     0.080025    Uiso  ? N
   N11        1.0     0.555901     0.204809     0.829711    Uiso  ? N
   N12        1.0     0.444875     0.093646     0.581658    Uiso  ? N
   N13        1.0     0.222618     0.538279     0.331792    Uiso  ? N
   N14        1.0     0.112226     0.426732     0.080639    Uiso  ? N
   N15        1.0     0.891265     0.539320     0.829955    Uiso  ? N
   N16        1.0     0.776362     0.428749     0.595820    Uiso  ? N
   N17        1.0     0.549686     0.526220     0.321066    Uiso  ? N
   N18        1.0     0.442143     0.425469     0.077174    Uiso  ? N
   N19        1.0     0.221075     0.538558     0.829451    Uiso  ? N
   N20        1.0     0.112046     0.426877     0.580155    Uiso  ? N
   N21        1.0     0.895095     0.547888     0.329786    Uiso  ? N
   N22        1.0     0.780914     0.426561     0.078458    Uiso  ? N
   N23        1.0     0.552707     0.540469     0.838109    Uiso  ? N
   N24        1.0     0.444484     0.427771     0.583193    Uiso  ? N
   N25        1.0     0.203624     0.879797     0.324087    Uiso  ? N
   N26        1.0     0.109945     0.759118     0.079345    Uiso  ? N
   N27        1.0     0.889302     0.872823     0.830041    Uiso  ? N
   N28        1.0     0.776870     0.762935     0.583341    Uiso  ? N
   N29        1.0     0.567802     0.882697     0.323738    Uiso  ? N
   N30        1.0     0.444471     0.763237     0.091261    Uiso  ? N
   N31        1.0     0.222375     0.871493     0.836730    Uiso  ? N
   N32        1.0     0.111567     0.761449     0.581536    Uiso  ? N
   N33        1.0     0.889006     0.873162     0.330580    Uiso  ? N
   N34        1.0     0.780844     0.760749     0.076783    Uiso  ? N
   N35        1.0     0.555164     0.872457     0.836139    Uiso  ? N
   N36        1.0     0.444213     0.761760     0.586183    Uiso  ? N
