
#======================================================================
# CRYSTAL DATA
#----------------------------------------------------------------------
data_VESTA_phase_1

_chemical_name_common                  'Al   Mg   Hf   N                      '
_cell_length_a                         9.452975
_cell_length_b                         9.454509
_cell_length_c                         10.072176
_cell_angle_alpha                      90.029457
_cell_angle_beta                       90.028130
_cell_angle_gamma                      59.902908
_cell_volume                           778.817366
_space_group_name_H-M_alt              'P 1'
_space_group_IT_number                 1

loop_
_space_group_symop_operation_xyz
   'x, y, z'

loop_
   _atom_site_label
   _atom_site_occupancy
   _atom_site_fract_x
   _atom_site_fract_y
   _atom_site_fract_z
   _atom_site_adp_type
   _atom_site_U_iso_or_equiv
   _atom_site_type_symbol
   Al1        1.0     0.104789     0.098410     0.403650    Uiso  ? Al
   Al2        1.0     0.221683     0.205943     0.153783    Uiso  ? Al
   Al3        1.0     0.777638     0.094101     0.903934    Uiso  ? Al
   Al4        1.0     0.887561     0.206588     0.655754    Uiso  ? Al
   Al5        1.0     0.444589     0.099662     0.404072    Uiso  ? Al
   Al6        1.0     0.555644     0.205689     0.153705    Uiso  ? Al
   Al7        1.0     0.110401     0.095849     0.904211    Uiso  ? Al
   Al8        1.0     0.221275     0.206026     0.653401    Uiso  ? Al
   Al9        1.0     0.779287     0.094208     0.402939    Uiso  ? Al
   Al10       1.0     0.889119     0.204255     0.154090    Uiso  ? Al
   Al11       1.0     0.443295     0.096542     0.903750    Uiso  ? Al
   Al12       1.0     0.556226     0.205259     0.653673    Uiso  ? Al
   Al13       1.0     0.109623     0.429306     0.403219    Uiso  ? Al
   Al14       1.0     0.222048     0.537935     0.154425    Uiso  ? Al
   Al15       1.0     0.779702     0.426837     0.903022    Uiso  ? Al
   Al16       1.0     0.888397     0.538215     0.655645    Uiso  ? Al
   Al17       1.0     0.443369     0.423743     0.404101    Uiso  ? Al
   Al18       1.0     0.557161     0.533381     0.147888    Uiso  ? Al
   Al19       1.0     0.111378     0.427671     0.904127    Uiso  ? Al
   Al20       1.0     0.221659     0.538351     0.653685    Uiso  ? Al
   Al21       1.0     0.889986     0.539658     0.154180    Uiso  ? Al
   Al22       1.0     0.442845     0.426720     0.904039    Uiso  ? Al
   Al23       1.0     0.558245     0.534142     0.661744    Uiso  ? Al
   Al24       1.0     0.106362     0.760297     0.403618    Uiso  ? Al
   Al25       1.0     0.216684     0.874980     0.148905    Uiso  ? Al
   Al26       1.0     0.779886     0.760627     0.903926    Uiso  ? Al
   Al27       1.0     0.888318     0.873058     0.653751    Uiso  ? Al
   Al28       1.0     0.559206     0.875507     0.147946    Uiso  ? Al
   Al29       1.0     0.110098     0.760074     0.904034    Uiso  ? Al
   Al30       1.0     0.217930     0.874124     0.659228    Uiso  ? Al
   Al31       1.0     0.785258     0.760764     0.403566    Uiso  ? Al
   Al32       1.0     0.888469     0.872812     0.154226    Uiso  ? Al
   Al33       1.0     0.444036     0.761649     0.906443    Uiso  ? Al
   Al34       1.0     0.557713     0.873863     0.659305    Uiso  ? Al
   Mg1        1.0     0.783629     0.422684     0.404120    Uiso  ? Mg
   Hf1        1.0     0.446178     0.760556     0.399110    Uiso  ? Hf
   N1         1.0     0.222535     0.204159     0.345422    Uiso  ? N
   N2         1.0     0.111438     0.095584     0.093152    Uiso  ? N
   N3         1.0     0.889531     0.203502     0.846403    Uiso  ? N
   N4         1.0     0.777667     0.094495     0.594714    Uiso  ? N
   N5         1.0     0.555918     0.205278     0.344555    Uiso  ? N
   N6         1.0     0.443265     0.096792     0.093517    Uiso  ? N
   N7         1.0     0.221954     0.205586     0.843827    Uiso  ? N
   N8         1.0     0.111218     0.093519     0.595277    Uiso  ? N
   N9         1.0     0.894592     0.191471     0.339777    Uiso  ? N
   N10        1.0     0.776807     0.094069     0.093651    Uiso  ? N
   N11        1.0     0.555460     0.205274     0.843740    Uiso  ? N
   N12        1.0     0.444565     0.093702     0.594912    Uiso  ? N
   N13        1.0     0.222556     0.538218     0.345495    Uiso  ? N
   N14        1.0     0.112360     0.426862     0.094116    Uiso  ? N
   N15        1.0     0.890005     0.539639     0.846394    Uiso  ? N
   N16        1.0     0.776698     0.428462     0.609099    Uiso  ? N
   N17        1.0     0.549504     0.528303     0.334862    Uiso  ? N
   N18        1.0     0.442667     0.426143     0.092760    Uiso  ? N
   N19        1.0     0.221633     0.538850     0.843951    Uiso  ? N
   N20        1.0     0.110825     0.427713     0.594594    Uiso  ? N
   N21        1.0     0.895067     0.547118     0.340884    Uiso  ? N
   N22        1.0     0.779752     0.427031     0.094033    Uiso  ? N
   N23        1.0     0.553717     0.539142     0.851336    Uiso  ? N
   N24        1.0     0.444389     0.428092     0.595618    Uiso  ? N
   N25        1.0     0.206772     0.878564     0.339688    Uiso  ? N
   N26        1.0     0.110397     0.759933     0.094030    Uiso  ? N
   N27        1.0     0.888997     0.872352     0.843799    Uiso  ? N
   N28        1.0     0.777138     0.761665     0.595380    Uiso  ? N
   N29        1.0     0.565847     0.881922     0.338469    Uiso  ? N
   N30        1.0     0.444352     0.762658     0.100288    Uiso  ? N
   N31        1.0     0.221383     0.872206     0.848487    Uiso  ? N
   N32        1.0     0.111364     0.761192     0.594795    Uiso  ? N
   N33        1.0     0.888866     0.873486     0.344469    Uiso  ? N
   N34        1.0     0.779516     0.761525     0.092508    Uiso  ? N
   N35        1.0     0.555646     0.872707     0.848402    Uiso  ? N
   N36        1.0     0.444279     0.760746     0.606993    Uiso  ? N
