
#======================================================================
# CRYSTAL DATA
#----------------------------------------------------------------------
data_VESTA_phase_1

_chemical_name_common                  'Al   Mg   Hf   N                      '
_cell_length_a                         9.453457
_cell_length_b                         9.454967
_cell_length_c                         10.071081
_cell_angle_alpha                      89.971024
_cell_angle_beta                       89.972610
_cell_angle_gamma                      59.901764
_cell_volume                           778.801159
_space_group_name_H-M_alt              'P 1'
_space_group_IT_number                 1

loop_
_space_group_symop_operation_xyz
   'x, y, z'

loop_
   _atom_site_label
   _atom_site_occupancy
   _atom_site_fract_x
   _atom_site_fract_y
   _atom_site_fract_z
   _atom_site_adp_type
   _atom_site_U_iso_or_equiv
   _atom_site_type_symbol
   Al1        1.0     0.104796     0.098428     0.319650    Uiso  ? Al
   Al2        1.0     0.221288     0.206043     0.069903    Uiso  ? Al
   Al3        1.0     0.777651     0.094121     0.819366    Uiso  ? Al
   Al4        1.0     0.889127     0.204276     0.569213    Uiso  ? Al
   Al5        1.0     0.444600     0.099681     0.319227    Uiso  ? Al
   Al6        1.0     0.556241     0.205276     0.069627    Uiso  ? Al
   Al7        1.0     0.110413     0.095866     0.819102    Uiso  ? Al
   Al8        1.0     0.221693     0.205958     0.569521    Uiso  ? Al
   Al9        1.0     0.779295     0.094228     0.320364    Uiso  ? Al
   Al10       1.0     0.887571     0.206608     0.067556    Uiso  ? Al
   Al11       1.0     0.443307     0.096559     0.819560    Uiso  ? Al
   Al12       1.0     0.555651     0.205709     0.569597    Uiso  ? Al
   Al13       1.0     0.109635     0.429321     0.320085    Uiso  ? Al
   Al14       1.0     0.221671     0.538367     0.069617    Uiso  ? Al
   Al15       1.0     0.779715     0.426858     0.820296    Uiso  ? Al
   Al16       1.0     0.889995     0.539679     0.569124    Uiso  ? Al
   Al17       1.0     0.443376     0.423759     0.319197    Uiso  ? Al
   Al18       1.0     0.558254     0.534171     0.061580    Uiso  ? Al
   Al19       1.0     0.111390     0.427688     0.819175    Uiso  ? Al
   Al20       1.0     0.222058     0.537951     0.568879    Uiso  ? Al
   Al21       1.0     0.888412     0.538232     0.067666    Uiso  ? Al
   Al22       1.0     0.442857     0.426740     0.819273    Uiso  ? Al
   Al23       1.0     0.557178     0.533381     0.575422    Uiso  ? Al
   Al24       1.0     0.106371     0.760314     0.319682    Uiso  ? Al
   Al25       1.0     0.217956     0.874134     0.064094    Uiso  ? Al
   Al26       1.0     0.779900     0.760645     0.819387    Uiso  ? Al
   Al27       1.0     0.888481     0.872830     0.569077    Uiso  ? Al
   Al28       1.0     0.557722     0.873876     0.064019    Uiso  ? Al
   Al29       1.0     0.110113     0.760090     0.819276    Uiso  ? Al
   Al30       1.0     0.216675     0.875007     0.574407    Uiso  ? Al
   Al31       1.0     0.785271     0.760787     0.319731    Uiso  ? Al
   Al32       1.0     0.888332     0.873080     0.069549    Uiso  ? Al
   Al33       1.0     0.444050     0.761669     0.816851    Uiso  ? Al
   Al34       1.0     0.559228     0.875535     0.575363    Uiso  ? Al
   Mg1        1.0     0.783638     0.422707     0.319194    Uiso  ? Mg
   Hf1        1.0     0.446186     0.760578     0.324263    Uiso  ? Hf
   N1         1.0     0.222546     0.204171     0.377866    Uiso  ? N
   N2         1.0     0.111232     0.093538     0.128010    Uiso  ? N
   N3         1.0     0.889541     0.203519     0.876891    Uiso  ? N
   N4         1.0     0.776816     0.094090     0.629634    Uiso  ? N
   N5         1.0     0.555924     0.205297     0.378732    Uiso  ? N
   N6         1.0     0.444578     0.093724     0.128374    Uiso  ? N
   N7         1.0     0.221965     0.205604     0.879462    Uiso  ? N
   N8         1.0     0.111446     0.095607     0.630144    Uiso  ? N
   N9         1.0     0.894599     0.191490     0.383507    Uiso  ? N
   N10        1.0     0.777679     0.094514     0.128575    Uiso  ? N
   N11        1.0     0.555474     0.205290     0.879546    Uiso  ? N
   N12        1.0     0.443275     0.096815     0.629777    Uiso  ? N
   N13        1.0     0.222565     0.538234     0.377793    Uiso  ? N
   N14        1.0     0.110842     0.427729     0.128696    Uiso  ? N
   N15        1.0     0.890021     0.539655     0.876901    Uiso  ? N
   N16        1.0     0.779765     0.427051     0.629262    Uiso  ? N
   N17        1.0     0.549520     0.528298     0.388430    Uiso  ? N
   N18        1.0     0.444402     0.428109     0.127666    Uiso  ? N
   N19        1.0     0.221644     0.538865     0.879338    Uiso  ? N
   N20        1.0     0.112372     0.426879     0.629170    Uiso  ? N
   N21        1.0     0.895076     0.547141     0.382402    Uiso  ? N
   N22        1.0     0.776713     0.428482     0.114194    Uiso  ? N
   N23        1.0     0.553723     0.539170     0.871961    Uiso  ? N
   N24        1.0     0.442676     0.426161     0.630535    Uiso  ? N
   N25        1.0     0.206758     0.878589     0.383608    Uiso  ? N
   N26        1.0     0.111378     0.761208     0.128491    Uiso  ? N
   N27        1.0     0.889010     0.872373     0.879488    Uiso  ? N
   N28        1.0     0.779532     0.761544     0.630788    Uiso  ? N
   N29        1.0     0.565873     0.881950     0.384824    Uiso  ? N
   N30        1.0     0.444295     0.760766     0.116356    Uiso  ? N
   N31        1.0     0.221406     0.872217     0.874810    Uiso  ? N
   N32        1.0     0.110407     0.759950     0.629264    Uiso  ? N
   N33        1.0     0.888877     0.873504     0.378819    Uiso  ? N
   N34        1.0     0.777157     0.761685     0.127905    Uiso  ? N
   N35        1.0     0.555655     0.872719     0.874896    Uiso  ? N
   N36        1.0     0.444365     0.762680     0.622973    Uiso  ? N
