
#======================================================================
# CRYSTAL DATA
#----------------------------------------------------------------------
data_VESTA_phase_1

_chemical_name_common                  'Al   Mg   Hf   N                      '
_cell_length_a                         9.723752
_cell_length_b                         9.721948
_cell_length_c                         9.312534
_cell_angle_alpha                      89.982681
_cell_angle_beta                       89.995659
_cell_angle_gamma                      59.871300
_cell_volume                           761.414189
_space_group_name_H-M_alt              'P 1'
_space_group_IT_number                 1

loop_
_space_group_symop_operation_xyz
   'x, y, z'

loop_
   _atom_site_label
   _atom_site_occupancy
   _atom_site_fract_x
   _atom_site_fract_y
   _atom_site_fract_z
   _atom_site_adp_type
   _atom_site_U_iso_or_equiv
   _atom_site_type_symbol
   Al1        1.0     0.106433     0.096523     0.330592    Uiso  ? Al
   Al2        1.0     0.221927     0.205664     0.082670    Uiso  ? Al
   Al3        1.0     0.778062     0.094628     0.831929    Uiso  ? Al
   Al4        1.0     0.888906     0.204780     0.579359    Uiso  ? Al
   Al5        1.0     0.445241     0.098485     0.331413    Uiso  ? Al
   Al6        1.0     0.556591     0.204593     0.081565    Uiso  ? Al
   Al7        1.0     0.108885     0.097807     0.833198    Uiso  ? Al
   Al8        1.0     0.221458     0.205858     0.581631    Uiso  ? Al
   Al9        1.0     0.778561     0.093355     0.332048    Uiso  ? Al
   Al10       1.0     0.887367     0.205899     0.084011    Uiso  ? Al
   Al11       1.0     0.442334     0.098026     0.832469    Uiso  ? Al
   Al12       1.0     0.555372     0.205903     0.581964    Uiso  ? Al
   Al13       1.0     0.111034     0.428659     0.332326    Uiso  ? Al
   Al14       1.0     0.221428     0.538339     0.082371    Uiso  ? Al
   Al15       1.0     0.781415     0.426198     0.839320    Uiso  ? Al
   Al16       1.0     0.889865     0.539755     0.579816    Uiso  ? Al
   Al17       1.0     0.442811     0.423714     0.329954    Uiso  ? Al
   Al18       1.0     0.557206     0.535874     0.075774    Uiso  ? Al
   Al19       1.0     0.110825     0.427789     0.831670    Uiso  ? Al
   Al20       1.0     0.222260     0.537422     0.581165    Uiso  ? Al
   Al21       1.0     0.889166     0.538177     0.084201    Uiso  ? Al
   Al22       1.0     0.442053     0.426401     0.833651    Uiso  ? Al
   Al23       1.0     0.559002     0.529658     0.591658    Uiso  ? Al
   Al24       1.0     0.106570     0.760735     0.331926    Uiso  ? Al
   Al25       1.0     0.219488     0.873142     0.075391    Uiso  ? Al
   Al26       1.0     0.781967     0.759035     0.834153    Uiso  ? Al
   Al27       1.0     0.888347     0.872583     0.581875    Uiso  ? Al
   Al28       1.0     0.556934     0.873942     0.075717    Uiso  ? Al
   Al29       1.0     0.109729     0.758852     0.832109    Uiso  ? Al
   Al30       1.0     0.213107     0.876845     0.591909    Uiso  ? Al
   Al31       1.0     0.784032     0.762655     0.329843    Uiso  ? Al
   Al32       1.0     0.888568     0.873779     0.081112    Uiso  ? Al
   Al33       1.0     0.444447     0.761457     0.828381    Uiso  ? Al
   Al34       1.0     0.561416     0.877010     0.591975    Uiso  ? Al
   Mg1        1.0     0.781796     0.424534     0.336325    Uiso  ? Mg
   Hf1        1.0     0.444628     0.761908     0.350094    Uiso  ? Hf
   N1         1.0     0.222814     0.203355     0.375275    Uiso  ? N
   N2         1.0     0.112543     0.092507     0.124325    Uiso  ? N
   N3         1.0     0.889551     0.202649     0.877598    Uiso  ? N
   N4         1.0     0.776824     0.094487     0.627039    Uiso  ? N
   N5         1.0     0.555348     0.205518     0.376091    Uiso  ? N
   N6         1.0     0.444911     0.093641     0.125337    Uiso  ? N
   N7         1.0     0.221738     0.206088     0.877702    Uiso  ? N
   N8         1.0     0.110116     0.097258     0.629096    Uiso  ? N
   N9         1.0     0.894528     0.191650     0.376842    Uiso  ? N
   N10        1.0     0.776888     0.094033     0.126208    Uiso  ? N
   N11        1.0     0.555952     0.204747     0.877351    Uiso  ? N
   N12        1.0     0.442639     0.097980     0.628167    Uiso  ? N
   N13        1.0     0.222624     0.538316     0.375240    Uiso  ? N
   N14        1.0     0.112315     0.426695     0.127001    Uiso  ? N
   N15        1.0     0.891455     0.539272     0.877685    Uiso  ? N
   N16        1.0     0.781073     0.426491     0.628839    Uiso  ? N
   N17        1.0     0.549502     0.526638     0.385607    Uiso  ? N
   N18        1.0     0.444483     0.427669     0.123601    Uiso  ? N
   N19        1.0     0.220984     0.538522     0.877707    Uiso  ? N
   N20        1.0     0.112141     0.426754     0.626300    Uiso  ? N
   N21        1.0     0.895047     0.547877     0.376374    Uiso  ? N
   N22        1.0     0.776305     0.428777     0.110720    Uiso  ? N
   N23        1.0     0.552724     0.540269     0.868599    Uiso  ? N
   N24        1.0     0.442114     0.425424     0.630076    Uiso  ? N
   N25        1.0     0.203860     0.879700     0.383257    Uiso  ? N
   N26        1.0     0.111579     0.761502     0.125467    Uiso  ? N
   N27        1.0     0.889346     0.872897     0.876980    Uiso  ? N
   N28        1.0     0.781006     0.760571     0.630543    Uiso  ? N
   N29        1.0     0.567691     0.882445     0.383430    Uiso  ? N
   N30        1.0     0.444150     0.761973     0.120051    Uiso  ? N
   N31        1.0     0.222102     0.871585     0.869619    Uiso  ? N
   N32        1.0     0.109911     0.759009     0.627735    Uiso  ? N
   N33        1.0     0.889031     0.873095     0.376529    Uiso  ? N
   N34        1.0     0.776748     0.763214     0.123343    Uiso  ? N
   N35        1.0     0.555261     0.872637     0.870310    Uiso  ? N
   N36        1.0     0.444497     0.763250     0.616682    Uiso  ? N
