
#======================================================================
# CRYSTAL DATA
#----------------------------------------------------------------------
data_VESTA_phase_1

_chemical_name_common                  'Al   Mg   Hf   N                      '
_cell_length_a                         9.902620
_cell_length_b                         9.900172
_cell_length_c                         8.753452
_cell_angle_alpha                      90.010727
_cell_angle_beta                       90.001343
_cell_angle_gamma                      59.871037
_cell_volume                           742.227476
_space_group_name_H-M_alt              'P 1'
_space_group_IT_number                 1

loop_
_space_group_symop_operation_xyz
   'x, y, z'

loop_
   _atom_site_label
   _atom_site_occupancy
   _atom_site_fract_x
   _atom_site_fract_y
   _atom_site_fract_z
   _atom_site_adp_type
   _atom_site_U_iso_or_equiv
   _atom_site_type_symbol
   Al1        1.0     0.107592     0.095990     0.368005    Uiso  ? Al
   Al2        1.0     0.221455     0.205750     0.116780    Uiso  ? Al
   Al3        1.0     0.778331     0.095015     0.866536    Uiso  ? Al
   Al4        1.0     0.887495     0.205566     0.612060    Uiso  ? Al
   Al5        1.0     0.445079     0.098235     0.366816    Uiso  ? Al
   Al6        1.0     0.555660     0.205708     0.116044    Uiso  ? Al
   Al7        1.0     0.107998     0.098560     0.865528    Uiso  ? Al
   Al8        1.0     0.222111     0.205512     0.616611    Uiso  ? Al
   Al9        1.0     0.778170     0.093006     0.367359    Uiso  ? Al
   Al10       1.0     0.888470     0.205303     0.120493    Uiso  ? Al
   Al11       1.0     0.442113     0.098430     0.866750    Uiso  ? Al
   Al12       1.0     0.556495     0.204503     0.618230    Uiso  ? Al
   Al13       1.0     0.111774     0.428305     0.366782    Uiso  ? Al
   Al14       1.0     0.222226     0.537504     0.117016    Uiso  ? Al
   Al15       1.0     0.781908     0.425916     0.858469    Uiso  ? Al
   Al16       1.0     0.889416     0.538349     0.612034    Uiso  ? Al
   Al17       1.0     0.442335     0.423824     0.368646    Uiso  ? Al
   Al18       1.0     0.558983     0.530820     0.105367    Uiso  ? Al
   Al19       1.0     0.110292     0.427925     0.866813    Uiso  ? Al
   Al20       1.0     0.221474     0.538202     0.616973    Uiso  ? Al
   Al21       1.0     0.889435     0.539445     0.119890    Uiso  ? Al
   Al22       1.0     0.442178     0.426458     0.865207    Uiso  ? Al
   Al23       1.0     0.557963     0.533897     0.622289    Uiso  ? Al
   Al24       1.0     0.107050     0.760619     0.366387    Uiso  ? Al
   Al25       1.0     0.214616     0.876048     0.103773    Uiso  ? Al
   Al26       1.0     0.782710     0.758319     0.864554    Uiso  ? Al
   Al27       1.0     0.888563     0.873876     0.618658    Uiso  ? Al
   Al28       1.0     0.560606     0.876038     0.103820    Uiso  ? Al
   Al29       1.0     0.109510     0.758641     0.867100    Uiso  ? Al
   Al30       1.0     0.217572     0.874129     0.625552    Uiso  ? Al
   Al31       1.0     0.783449     0.763055     0.369231    Uiso  ? Al
   Al32       1.0     0.888276     0.872802     0.116041    Uiso  ? Al
   Al33       1.0     0.444754     0.760880     0.864558    Uiso  ? Al
   Al34       1.0     0.557946     0.875176     0.625219    Uiso  ? Al
   Mg1        1.0     0.781353     0.425123     0.361318    Uiso  ? Mg
   Hf1        1.0     0.444029     0.762577     0.354066    Uiso  ? Hf
   N1         1.0     0.222819     0.203498     0.343573    Uiso  ? N
   N2         1.0     0.110101     0.096805     0.090178    Uiso  ? N
   N3         1.0     0.889398     0.202913     0.840491    Uiso  ? N
   N4         1.0     0.776477     0.093922     0.593345    Uiso  ? N
   N5         1.0     0.555412     0.205441     0.342737    Uiso  ? N
   N6         1.0     0.442931     0.097358     0.091089    Uiso  ? N
   N7         1.0     0.221678     0.206075     0.841713    Uiso  ? N
   N8         1.0     0.112770     0.092806     0.595165    Uiso  ? N
   N9         1.0     0.894172     0.192437     0.345136    Uiso  ? N
   N10        1.0     0.776967     0.094645     0.091774    Uiso  ? N
   N11        1.0     0.555924     0.204747     0.842133    Uiso  ? N
   N12        1.0     0.444676     0.094239     0.594020    Uiso  ? N
   N13        1.0     0.222454     0.538478     0.343551    Uiso  ? N
   N14        1.0     0.111920     0.426800     0.093051    Uiso  ? N
   N15        1.0     0.891454     0.539094     0.840522    Uiso  ? N
   N16        1.0     0.776839     0.428530     0.608143    Uiso  ? N
   N17        1.0     0.549203     0.528750     0.338183    Uiso  ? N
   N18        1.0     0.442589     0.425798     0.089091    Uiso  ? N
   N19        1.0     0.220904     0.538432     0.841628    Uiso  ? N
   N20        1.0     0.112900     0.426261     0.592160    Uiso  ? N
   N21        1.0     0.894808     0.547298     0.345338    Uiso  ? N
   N22        1.0     0.780579     0.426740     0.088756    Uiso  ? N
   N23        1.0     0.553270     0.539063     0.849468    Uiso  ? N
   N24        1.0     0.444142     0.427035     0.596052    Uiso  ? N
   N25        1.0     0.205765     0.878852     0.337365    Uiso  ? N
   N26        1.0     0.110161     0.759270     0.091433    Uiso  ? N
   N27        1.0     0.889422     0.872972     0.842409    Uiso  ? N
   N28        1.0     0.777038     0.763494     0.596591    Uiso  ? N
   N29        1.0     0.566537     0.881200     0.337665    Uiso  ? N
   N30        1.0     0.444532     0.763004     0.094531    Uiso  ? N
   N31        1.0     0.220855     0.872123     0.849553    Uiso  ? N
   N32        1.0     0.111378     0.761272     0.593860    Uiso  ? N
   N33        1.0     0.889152     0.873012     0.342307    Uiso  ? N
   N34        1.0     0.780561     0.760637     0.088330    Uiso  ? N
   N35        1.0     0.555844     0.873323     0.848876    Uiso  ? N
   N36        1.0     0.444007     0.762653     0.604111    Uiso  ? N
