
#======================================================================
# CRYSTAL DATA
#----------------------------------------------------------------------
data_VESTA_phase_1

_chemical_name_common                  'Al   Mg   Hf   N                      '
_cell_length_a                         9.860932
_cell_length_b                         9.858577
_cell_length_c                         8.885315
_cell_angle_alpha                      90.012474
_cell_angle_beta                       90.001869
_cell_angle_gamma                      59.870834
_cell_volume                           747.083106
_space_group_name_H-M_alt              'P 1'
_space_group_IT_number                 1

loop_
_space_group_symop_operation_xyz
   'x, y, z'

loop_
   _atom_site_label
   _atom_site_occupancy
   _atom_site_fract_x
   _atom_site_fract_y
   _atom_site_fract_z
   _atom_site_adp_type
   _atom_site_U_iso_or_equiv
   _atom_site_type_symbol
   Al1        1.0     0.107461     0.095939     0.371283    Uiso  ? Al
   Al2        1.0     0.221431     0.205778     0.120050    Uiso  ? Al
   Al3        1.0     0.778294     0.094948     0.869696    Uiso  ? Al
   Al4        1.0     0.887455     0.205560     0.615503    Uiso  ? Al
   Al5        1.0     0.445189     0.098176     0.370042    Uiso  ? Al
   Al6        1.0     0.555539     0.205810     0.119406    Uiso  ? Al
   Al7        1.0     0.108076     0.098580     0.868521    Uiso  ? Al
   Al8        1.0     0.222106     0.205549     0.619475    Uiso  ? Al
   Al9        1.0     0.778224     0.093024     0.370307    Uiso  ? Al
   Al10       1.0     0.888631     0.205161     0.123553    Uiso  ? Al
   Al11       1.0     0.442073     0.098504     0.869732    Uiso  ? Al
   Al12       1.0     0.556563     0.204454     0.621003    Uiso  ? Al
   Al13       1.0     0.111682     0.428351     0.369765    Uiso  ? Al
   Al14       1.0     0.222275     0.537449     0.120372    Uiso  ? Al
   Al15       1.0     0.781958     0.425896     0.860816    Uiso  ? Al
   Al16       1.0     0.889426     0.538298     0.615434    Uiso  ? Al
   Al17       1.0     0.442470     0.423821     0.371972    Uiso  ? Al
   Al18       1.0     0.558987     0.530469     0.108344    Uiso  ? Al
   Al19       1.0     0.110385     0.427916     0.870030    Uiso  ? Al
   Al20       1.0     0.221415     0.538259     0.619805    Uiso  ? Al
   Al21       1.0     0.889536     0.539575     0.122951    Uiso  ? Al
   Al22       1.0     0.442055     0.426367     0.868136    Uiso  ? Al
   Al23       1.0     0.557655     0.534537     0.625752    Uiso  ? Al
   Al24       1.0     0.106970     0.760716     0.369552    Uiso  ? Al
   Al25       1.0     0.214189     0.876289     0.106964    Uiso  ? Al
   Al26       1.0     0.782720     0.758363     0.867433    Uiso  ? Al
   Al27       1.0     0.888580     0.873913     0.621479    Uiso  ? Al
   Al28       1.0     0.560882     0.876278     0.107057    Uiso  ? Al
   Al29       1.0     0.109486     0.758582     0.870102    Uiso  ? Al
   Al30       1.0     0.218113     0.873827     0.628264    Uiso  ? Al
   Al31       1.0     0.783451     0.763115     0.372469    Uiso  ? Al
   Al32       1.0     0.888286     0.872687     0.119380    Uiso  ? Al
   Al33       1.0     0.444686     0.761026     0.868825    Uiso  ? Al
   Al34       1.0     0.557603     0.874891     0.627907    Uiso  ? Al
   Mg1        1.0     0.781311     0.425081     0.364070    Uiso  ? Mg
   Hf1        1.0     0.444128     0.762446     0.354717    Uiso  ? Hf
   N1         1.0     0.222829     0.203423     0.340680    Uiso  ? N
   N2         1.0     0.109966     0.097131     0.087000    Uiso  ? N
   N3         1.0     0.889451     0.202747     0.837384    Uiso  ? N
   N4         1.0     0.776523     0.093889     0.590140    Uiso  ? N
   N5         1.0     0.555361     0.205493     0.339810    Uiso  ? N
   N6         1.0     0.442759     0.097680     0.088002    Uiso  ? N
   N7         1.0     0.221681     0.206128     0.838487    Uiso  ? N
   N8         1.0     0.112873     0.092551     0.592129    Uiso  ? N
   N9         1.0     0.894297     0.192205     0.341765    Uiso  ? N
   N10        1.0     0.776953     0.094645     0.088861    Uiso  ? N
   N11        1.0     0.555973     0.204700     0.838936    Uiso  ? N
   N12        1.0     0.444802     0.093978     0.590914    Uiso  ? N
   N13        1.0     0.222530     0.538431     0.340683    Uiso  ? N
   N14        1.0     0.111932     0.426811     0.090020    Uiso  ? N
   N15        1.0     0.891571     0.539119     0.837387    Uiso  ? N
   N16        1.0     0.776560     0.428663     0.605843    Uiso  ? N
   N17        1.0     0.549182     0.528242     0.333495    Uiso  ? N
   N18        1.0     0.442373     0.425627     0.085882    Uiso  ? N
   N19        1.0     0.220874     0.538448     0.838404    Uiso  ? N
   N20        1.0     0.112860     0.426306     0.589012    Uiso  ? N
   N21        1.0     0.894857     0.547514     0.342020    Uiso  ? N
   N22        1.0     0.780909     0.426584     0.086431    Uiso  ? N
   N23        1.0     0.553117     0.539343     0.847326    Uiso  ? N
   N24        1.0     0.444283     0.427226     0.593002    Uiso  ? N
   N25        1.0     0.205227     0.879102     0.333464    Uiso  ? N
   N26        1.0     0.110040     0.759085     0.088391    Uiso  ? N
   N27        1.0     0.889418     0.872996     0.839290    Uiso  ? N
   N28        1.0     0.776814     0.763593     0.593528    Uiso  ? N
   N29        1.0     0.566898     0.881502     0.333684    Uiso  ? N
   N30        1.0     0.444539     0.763097     0.094057    Uiso  ? N
   N31        1.0     0.221116     0.871995     0.847223    Uiso  ? N
   N32        1.0     0.111471     0.761411     0.590759    Uiso  ? N
   N33        1.0     0.889117     0.873002     0.339330    Uiso  ? N
   N34        1.0     0.780867     0.760461     0.085186    Uiso  ? N
   N35        1.0     0.555696     0.873202     0.846466    Uiso  ? N
   N36        1.0     0.444016     0.762513     0.600167    Uiso  ? N
