
#======================================================================
# CRYSTAL DATA
#----------------------------------------------------------------------
data_VESTA_phase_1

_chemical_name_common                  'Al   Mg   Hf   N                      '
_cell_length_a                         9.453012
_cell_length_b                         9.454505
_cell_length_c                         10.072152
_cell_angle_alpha                      89.970757
_cell_angle_beta                       89.972122
_cell_angle_gamma                      59.902649
_cell_volume                           778.816152
_space_group_name_H-M_alt              'P 1'
_space_group_IT_number                 1

loop_
_space_group_symop_operation_xyz
   'x, y, z'

loop_
   _atom_site_label
   _atom_site_occupancy
   _atom_site_fract_x
   _atom_site_fract_y
   _atom_site_fract_z
   _atom_site_adp_type
   _atom_site_U_iso_or_equiv
   _atom_site_type_symbol
   Al1        1.0     0.104805     0.098437     0.308663    Uiso  ? Al
   Al2        1.0     0.221292     0.206052     0.058911    Uiso  ? Al
   Al3        1.0     0.777655     0.094128     0.808378    Uiso  ? Al
   Al4        1.0     0.889135     0.204281     0.558221    Uiso  ? Al
   Al5        1.0     0.444606     0.099689     0.308241    Uiso  ? Al
   Al6        1.0     0.556243     0.205286     0.058639    Uiso  ? Al
   Al7        1.0     0.110417     0.095876     0.808102    Uiso  ? Al
   Al8        1.0     0.221699     0.205970     0.558531    Uiso  ? Al
   Al9        1.0     0.779303     0.094234     0.309373    Uiso  ? Al
   Al10       1.0     0.887578     0.206615     0.056561    Uiso  ? Al
   Al11       1.0     0.443311     0.096569     0.808562    Uiso  ? Al
   Al12       1.0     0.555661     0.205715     0.558608    Uiso  ? Al
   Al13       1.0     0.109640     0.429332     0.309094    Uiso  ? Al
   Al14       1.0     0.221677     0.538377     0.058628    Uiso  ? Al
   Al15       1.0     0.779720     0.426863     0.809290    Uiso  ? Al
   Al16       1.0     0.890002     0.539684     0.558132    Uiso  ? Al
   Al17       1.0     0.443385     0.423770     0.308214    Uiso  ? Al
   Al18       1.0     0.558263     0.534167     0.050570    Uiso  ? Al
   Al19       1.0     0.111394     0.427698     0.808187    Uiso  ? Al
   Al20       1.0     0.222064     0.537961     0.557888    Uiso  ? Al
   Al21       1.0     0.888414     0.538241     0.056670    Uiso  ? Al
   Al22       1.0     0.442862     0.426746     0.808274    Uiso  ? Al
   Al23       1.0     0.557178     0.533407     0.564427    Uiso  ? Al
   Al24       1.0     0.106379     0.760323     0.308695    Uiso  ? Al
   Al25       1.0     0.217947     0.874150     0.053084    Uiso  ? Al
   Al26       1.0     0.779903     0.760653     0.808387    Uiso  ? Al
   Al27       1.0     0.888486     0.872838     0.558087    Uiso  ? Al
   Al28       1.0     0.557730     0.873889     0.053007    Uiso  ? Al
   Al29       1.0     0.110115     0.760100     0.808279    Uiso  ? Al
   Al30       1.0     0.216702     0.875005     0.563411    Uiso  ? Al
   Al31       1.0     0.785274     0.760791     0.308747    Uiso  ? Al
   Al32       1.0     0.888335     0.873084     0.058561    Uiso  ? Al
   Al33       1.0     0.444053     0.761675     0.805873    Uiso  ? Al
   Al34       1.0     0.559222     0.875533     0.564370    Uiso  ? Al
   Mg1        1.0     0.783644     0.422711     0.308195    Uiso  ? Mg
   Hf1        1.0     0.446197     0.760577     0.313204    Uiso  ? Hf
   N1         1.0     0.222552     0.204185     0.366891    Uiso  ? N
   N2         1.0     0.111236     0.093545     0.117036    Uiso  ? N
   N3         1.0     0.889548     0.203528     0.865912    Uiso  ? N
   N4         1.0     0.776823     0.094096     0.618662    Uiso  ? N
   N5         1.0     0.555935     0.205303     0.367758    Uiso  ? N
   N6         1.0     0.444582     0.093729     0.117402    Uiso  ? N
   N7         1.0     0.221971     0.205612     0.868485    Uiso  ? N
   N8         1.0     0.111454     0.095612     0.619161    Uiso  ? N
   N9         1.0     0.894609     0.191495     0.372534    Uiso  ? N
   N10        1.0     0.777683     0.094521     0.117599    Uiso  ? N
   N11        1.0     0.555477     0.205300     0.868573    Uiso  ? N
   N12        1.0     0.443281     0.096819     0.618796    Uiso  ? N
   N13        1.0     0.222572     0.538244     0.366819    Uiso  ? N
   N14        1.0     0.110842     0.427739     0.117719    Uiso  ? N
   N15        1.0     0.890022     0.539665     0.865921    Uiso  ? N
   N16        1.0     0.779769     0.427057     0.618280    Uiso  ? N
   N17        1.0     0.549520     0.528332     0.377453    Uiso  ? N
   N18        1.0     0.444406     0.428119     0.116696    Uiso  ? N
   N19        1.0     0.221650     0.538876     0.868362    Uiso  ? N
   N20        1.0     0.112376     0.426889     0.618198    Uiso  ? N
   N21        1.0     0.895084     0.547144     0.371429    Uiso  ? N
   N22        1.0     0.776714     0.428489     0.103216    Uiso  ? N
   N23        1.0     0.553735     0.539167     0.860977    Uiso  ? N
   N24        1.0     0.442683     0.426169     0.619554    Uiso  ? N
   N25        1.0     0.206789     0.878590     0.372627    Uiso  ? N
   N26        1.0     0.111381     0.761219     0.117518    Uiso  ? N
   N27        1.0     0.889013     0.872378     0.868514    Uiso  ? N
   N28        1.0     0.779533     0.761551     0.619805    Uiso  ? N
   N29        1.0     0.565864     0.881948     0.373847    Uiso  ? N
   N30        1.0     0.444296     0.760773     0.105320    Uiso  ? N
   N31        1.0     0.221399     0.872232     0.863826    Uiso  ? N
   N32        1.0     0.110413     0.759960     0.618283    Uiso  ? N
   N33        1.0     0.888882     0.873512     0.367845    Uiso  ? N
   N34        1.0     0.777154     0.761692     0.116934    Uiso  ? N
   N35        1.0     0.555663     0.872733     0.863911    Uiso  ? N
   N36        1.0     0.444369     0.762684     0.612029    Uiso  ? N
