
#======================================================================
# CRYSTAL DATA
#----------------------------------------------------------------------
data_VESTA_phase_1

_chemical_name_common                  'Al   Mg   Hf   N                      '
_cell_length_a                         9.452984
_cell_length_b                         9.454496
_cell_length_c                         10.072177
_cell_angle_alpha                      89.970695
_cell_angle_beta                       89.971977
_cell_angle_gamma                      59.902828
_cell_volume                           778.816496
_space_group_name_H-M_alt              'P 1'
_space_group_IT_number                 1

loop_
_space_group_symop_operation_xyz
   'x, y, z'

loop_
   _atom_site_label
   _atom_site_occupancy
   _atom_site_fract_x
   _atom_site_fract_y
   _atom_site_fract_z
   _atom_site_adp_type
   _atom_site_U_iso_or_equiv
   _atom_site_type_symbol
   Al1        1.0     0.104810     0.098441     0.302055    Uiso  ? Al
   Al2        1.0     0.221295     0.206056     0.052302    Uiso  ? Al
   Al3        1.0     0.777659     0.094133     0.801769    Uiso  ? Al
   Al4        1.0     0.889139     0.204285     0.551613    Uiso  ? Al
   Al5        1.0     0.444609     0.099693     0.301633    Uiso  ? Al
   Al6        1.0     0.556246     0.205290     0.052030    Uiso  ? Al
   Al7        1.0     0.110419     0.095881     0.801494    Uiso  ? Al
   Al8        1.0     0.221702     0.205974     0.551922    Uiso  ? Al
   Al9        1.0     0.779307     0.094238     0.302764    Uiso  ? Al
   Al10       1.0     0.887581     0.206620     0.049955    Uiso  ? Al
   Al11       1.0     0.443314     0.096573     0.801953    Uiso  ? Al
   Al12       1.0     0.555664     0.205720     0.551999    Uiso  ? Al
   Al13       1.0     0.109644     0.429336     0.302485    Uiso  ? Al
   Al14       1.0     0.221680     0.538382     0.052019    Uiso  ? Al
   Al15       1.0     0.779723     0.426868     0.802682    Uiso  ? Al
   Al16       1.0     0.890006     0.539689     0.551523    Uiso  ? Al
   Al17       1.0     0.443389     0.423775     0.301605    Uiso  ? Al
   Al18       1.0     0.558266     0.534172     0.043962    Uiso  ? Al
   Al19       1.0     0.111397     0.427702     0.801578    Uiso  ? Al
   Al20       1.0     0.222067     0.537966     0.551280    Uiso  ? Al
   Al21       1.0     0.888416     0.538246     0.050063    Uiso  ? Al
   Al22       1.0     0.442865     0.426751     0.801665    Uiso  ? Al
   Al23       1.0     0.557180     0.533413     0.557821    Uiso  ? Al
   Al24       1.0     0.106382     0.760328     0.302087    Uiso  ? Al
   Al25       1.0     0.217950     0.874155     0.046478    Uiso  ? Al
   Al26       1.0     0.779907     0.760657     0.801778    Uiso  ? Al
   Al27       1.0     0.888489     0.872843     0.551479    Uiso  ? Al
   Al28       1.0     0.557733     0.873894     0.046401    Uiso  ? Al
   Al29       1.0     0.110117     0.760105     0.801671    Uiso  ? Al
   Al30       1.0     0.216705     0.875010     0.556805    Uiso  ? Al
   Al31       1.0     0.785277     0.760796     0.302139    Uiso  ? Al
   Al32       1.0     0.888338     0.873089     0.051952    Uiso  ? Al
   Al33       1.0     0.444056     0.761680     0.799269    Uiso  ? Al
   Al34       1.0     0.559225     0.875537     0.557764    Uiso  ? Al
   Mg1        1.0     0.783647     0.422716     0.301588    Uiso  ? Mg
   Hf1        1.0     0.446198     0.760586     0.306597    Uiso  ? Hf
   N1         1.0     0.222555     0.204191     0.360284    Uiso  ? N
   N2         1.0     0.111239     0.093550     0.110430    Uiso  ? N
   N3         1.0     0.889550     0.203533     0.859306    Uiso  ? N
   N4         1.0     0.776827     0.094101     0.612054    Uiso  ? N
   N5         1.0     0.555938     0.205309     0.361150    Uiso  ? N
   N6         1.0     0.444585     0.093734     0.110794    Uiso  ? N
   N7         1.0     0.221974     0.205617     0.861878    Uiso  ? N
   N8         1.0     0.111457     0.095617     0.612555    Uiso  ? N
   N9         1.0     0.894612     0.191500     0.365927    Uiso  ? N
   N10        1.0     0.777686     0.094525     0.110991    Uiso  ? N
   N11        1.0     0.555480     0.205305     0.861964    Uiso  ? N
   N12        1.0     0.443284     0.096824     0.612189    Uiso  ? N
   N13        1.0     0.222576     0.538249     0.360211    Uiso  ? N
   N14        1.0     0.110846     0.427744     0.111112    Uiso  ? N
   N15        1.0     0.890024     0.539670     0.859315    Uiso  ? N
   N16        1.0     0.779772     0.427061     0.611672    Uiso  ? N
   N17        1.0     0.549523     0.528334     0.370848    Uiso  ? N
   N18        1.0     0.444409     0.428123     0.110089    Uiso  ? N
   N19        1.0     0.221653     0.538881     0.861754    Uiso  ? N
   N20        1.0     0.112379     0.426894     0.611590    Uiso  ? N
   N21        1.0     0.895087     0.547149     0.364821    Uiso  ? N
   N22        1.0     0.776717     0.428494     0.096610    Uiso  ? N
   N23        1.0     0.553738     0.539171     0.854370    Uiso  ? N
   N24        1.0     0.442686     0.426174     0.612946    Uiso  ? N
   N25        1.0     0.206793     0.878594     0.366022    Uiso  ? N
   N26        1.0     0.111383     0.761223     0.110911    Uiso  ? N
   N27        1.0     0.889016     0.872383     0.861906    Uiso  ? N
   N28        1.0     0.779537     0.761555     0.613198    Uiso  ? N
   N29        1.0     0.565867     0.881952     0.367241    Uiso  ? N
   N30        1.0     0.444299     0.760777     0.098714    Uiso  ? N
   N31        1.0     0.221401     0.872237     0.857220    Uiso  ? N
   N32        1.0     0.110416     0.759964     0.611676    Uiso  ? N
   N33        1.0     0.888886     0.873517     0.361237    Uiso  ? N
   N34        1.0     0.777158     0.761697     0.110327    Uiso  ? N
   N35        1.0     0.555666     0.872738     0.857305    Uiso  ? N
   N36        1.0     0.444372     0.762689     0.605425    Uiso  ? N
