
#======================================================================
# CRYSTAL DATA
#----------------------------------------------------------------------
data_VESTA_phase_1

_chemical_name_common                  'Al   Mg   Hf   N                      '
_cell_length_a                         9.512710
_cell_length_b                         9.513195
_cell_length_c                         9.918185
_cell_angle_alpha                      90.025543
_cell_angle_beta                       90.014153
_cell_angle_gamma                      59.882660
_cell_volume                           776.387832
_space_group_name_H-M_alt              'P 1'
_space_group_IT_number                 1

loop_
_space_group_symop_operation_xyz
   'x, y, z'

loop_
   _atom_site_label
   _atom_site_occupancy
   _atom_site_fract_x
   _atom_site_fract_y
   _atom_site_fract_z
   _atom_site_adp_type
   _atom_site_U_iso_or_equiv
   _atom_site_type_symbol
   Al1        1.0     0.104774     0.098182     0.383333    Uiso  ? Al
   Al2        1.0     0.221643     0.205848     0.132982    Uiso  ? Al
   Al3        1.0     0.777711     0.094213     0.883139    Uiso  ? Al
   Al4        1.0     0.887408     0.206600     0.634211    Uiso  ? Al
   Al5        1.0     0.444745     0.099550     0.383517    Uiso  ? Al
   Al6        1.0     0.555469     0.205804     0.132927    Uiso  ? Al
   Al7        1.0     0.110248     0.096081     0.882691    Uiso  ? Al
   Al8        1.0     0.221414     0.205961     0.632473    Uiso  ? Al
   Al9        1.0     0.779091     0.094116     0.382217    Uiso  ? Al
   Al10       1.0     0.889048     0.204381     0.133539    Uiso  ? Al
   Al11       1.0     0.443153     0.096701     0.882509    Uiso  ? Al
   Al12       1.0     0.556390     0.205101     0.632972    Uiso  ? Al
   Al13       1.0     0.109874     0.429141     0.382365    Uiso  ? Al
   Al14       1.0     0.222103     0.537784     0.133577    Uiso  ? Al
   Al15       1.0     0.779930     0.426866     0.880774    Uiso  ? Al
   Al16       1.0     0.888597     0.538116     0.634014    Uiso  ? Al
   Al17       1.0     0.443154     0.423556     0.383845    Uiso  ? Al
   Al18       1.0     0.557900     0.531631     0.126522    Uiso  ? Al
   Al19       1.0     0.111344     0.427637     0.883269    Uiso  ? Al
   Al20       1.0     0.221598     0.538303     0.632789    Uiso  ? Al
   Al21       1.0     0.890010     0.539779     0.133458    Uiso  ? Al
   Al22       1.0     0.442711     0.426773     0.882424    Uiso  ? Al
   Al23       1.0     0.557872     0.535153     0.639586    Uiso  ? Al
   Al24       1.0     0.106186     0.760319     0.383061    Uiso  ? Al
   Al25       1.0     0.214818     0.875919     0.127490    Uiso  ? Al
   Al26       1.0     0.780217     0.760376     0.882277    Uiso  ? Al
   Al27       1.0     0.888417     0.873306     0.633145    Uiso  ? Al
   Al28       1.0     0.560270     0.876423     0.126740    Uiso  ? Al
   Al29       1.0     0.110202     0.759829     0.882803    Uiso  ? Al
   Al30       1.0     0.219027     0.873529     0.637722    Uiso  ? Al
   Al31       1.0     0.785253     0.761216     0.383419    Uiso  ? Al
   Al32       1.0     0.888475     0.872742     0.133363    Uiso  ? Al
   Al33       1.0     0.444162     0.761699     0.887213    Uiso  ? Al
   Al34       1.0     0.557311     0.873526     0.637679    Uiso  ? Al
   Mg1        1.0     0.783329     0.423123     0.382174    Uiso  ? Mg
   Hf1        1.0     0.445771     0.760921     0.372344    Uiso  ? Hf
   N1         1.0     0.222611     0.203773     0.326944    Uiso  ? N
   N2         1.0     0.111081     0.096029     0.074094    Uiso  ? N
   N3         1.0     0.889492     0.203329     0.827283    Uiso  ? N
   N4         1.0     0.777545     0.094454     0.576153    Uiso  ? N
   N5         1.0     0.555664     0.205360     0.326124    Uiso  ? N
   N6         1.0     0.443105     0.097173     0.074607    Uiso  ? N
   N7         1.0     0.221918     0.205705     0.825126    Uiso  ? N
   N8         1.0     0.111435     0.093375     0.577112    Uiso  ? N
   N9         1.0     0.894512     0.191506     0.321895    Uiso  ? N
   N10        1.0     0.776743     0.094178     0.075266    Uiso  ? N
   N11        1.0     0.555644     0.205109     0.825178    Uiso  ? N
   N12        1.0     0.444655     0.093785     0.576651    Uiso  ? N
   N13        1.0     0.222550     0.538193     0.326999    Uiso  ? N
   N14        1.0     0.112393     0.426766     0.075682    Uiso  ? N
   N15        1.0     0.890411     0.539509     0.827197    Uiso  ? N
   N16        1.0     0.776713     0.428550     0.590327    Uiso  ? N
   N17        1.0     0.549920     0.526621     0.316211    Uiso  ? N
   N18        1.0     0.442487     0.425921     0.073536    Uiso  ? N
   N19        1.0     0.221468     0.538727     0.825240    Uiso  ? N
   N20        1.0     0.111168     0.427477     0.575870    Uiso  ? N
   N21        1.0     0.895097     0.547512     0.322837    Uiso  ? N
   N22        1.0     0.780073     0.426941     0.074904    Uiso  ? N
   N23        1.0     0.553220     0.540054     0.832537    Uiso  ? N
   N24        1.0     0.444403     0.427987     0.577550    Uiso  ? N
   N25        1.0     0.204802     0.879322     0.320741    Uiso  ? N
   N26        1.0     0.110245     0.759699     0.075083    Uiso  ? N
   N27        1.0     0.889110     0.872536     0.825315    Uiso  ? N
   N28        1.0     0.777285     0.761961     0.577392    Uiso  ? N
   N29        1.0     0.567027     0.882662     0.319760    Uiso  ? N
   N30        1.0     0.444396     0.762924     0.084841    Uiso  ? N
   N31        1.0     0.222252     0.871716     0.830092    Uiso  ? N
   N32        1.0     0.111440     0.761204     0.576541    Uiso  ? N
   N33        1.0     0.888923     0.873424     0.325971    Uiso  ? N
   N34        1.0     0.779953     0.761397     0.073287    Uiso  ? N
   N35        1.0     0.555302     0.872361     0.829869    Uiso  ? N
   N36        1.0     0.444361     0.761030     0.584008    Uiso  ? N
