
#======================================================================
# CRYSTAL DATA
#----------------------------------------------------------------------
data_VESTA_phase_1

_chemical_name_common                  'Al   Mg   Hf   N                      '
_cell_length_a                         9.771524
_cell_length_b                         9.769500
_cell_length_c                         9.165804
_cell_angle_alpha                      90.015709
_cell_angle_beta                       90.003288
_cell_angle_gamma                      59.870899
_cell_volume                           756.779532
_space_group_name_H-M_alt              'P 1'
_space_group_IT_number                 1

loop_
_space_group_symop_operation_xyz
   'x, y, z'

loop_
   _atom_site_label
   _atom_site_occupancy
   _atom_site_fract_x
   _atom_site_fract_y
   _atom_site_fract_z
   _atom_site_adp_type
   _atom_site_U_iso_or_equiv
   _atom_site_type_symbol
   Al1        1.0     0.106859     0.096217     0.376374    Uiso  ? Al
   Al2        1.0     0.221433     0.205839     0.125245    Uiso  ? Al
   Al3        1.0     0.778154     0.094744     0.874882    Uiso  ? Al
   Al4        1.0     0.887397     0.205729     0.621985    Uiso  ? Al
   Al5        1.0     0.445272     0.098303     0.375347    Uiso  ? Al
   Al6        1.0     0.555401     0.205898     0.124809    Uiso  ? Al
   Al7        1.0     0.108543     0.098180     0.873589    Uiso  ? Al
   Al8        1.0     0.222013     0.205618     0.624245    Uiso  ? Al
   Al9        1.0     0.778431     0.093205     0.374998    Uiso  ? Al
   Al10       1.0     0.888841     0.204904     0.127998    Uiso  ? Al
   Al11       1.0     0.442191     0.098287     0.874519    Uiso  ? Al
   Al12       1.0     0.556604     0.204509     0.625499    Uiso  ? Al
   Al13       1.0     0.111297     0.428537     0.374620    Uiso  ? Al
   Al14       1.0     0.222284     0.537404     0.125676    Uiso  ? Al
   Al15       1.0     0.781697     0.426048     0.866521    Uiso  ? Al
   Al16       1.0     0.889293     0.538221     0.621831    Uiso  ? Al
   Al17       1.0     0.442715     0.423770     0.377046    Uiso  ? Al
   Al18       1.0     0.559025     0.529828     0.114390    Uiso  ? Al
   Al19       1.0     0.110664     0.427842     0.875189    Uiso  ? Al
   Al20       1.0     0.221402     0.538328     0.624543    Uiso  ? Al
   Al21       1.0     0.889761     0.539717     0.127477    Uiso  ? Al
   Al22       1.0     0.441989     0.426342     0.873135    Uiso  ? Al
   Al23       1.0     0.557257     0.535560     0.631142    Uiso  ? Al
   Al24       1.0     0.106722     0.760775     0.374825    Uiso  ? Al
   Al25       1.0     0.213374     0.876717     0.113713    Uiso  ? Al
   Al26       1.0     0.782330     0.758739     0.872537    Uiso  ? Al
   Al27       1.0     0.888582     0.873855     0.625986    Uiso  ? Al
   Al28       1.0     0.561312     0.876801     0.113754    Uiso  ? Al
   Al29       1.0     0.109605     0.758693     0.874890    Uiso  ? Al
   Al30       1.0     0.219112     0.873315     0.632173    Uiso  ? Al
   Al31       1.0     0.783756     0.762900     0.377297    Uiso  ? Al
   Al32       1.0     0.888322     0.872587     0.124837    Uiso  ? Al
   Al33       1.0     0.444527     0.761325     0.877110    Uiso  ? Al
   Al34       1.0     0.557086     0.874248     0.631821    Uiso  ? Al
   Mg1        1.0     0.781536     0.424784     0.369820    Uiso  ? Mg
   Hf1        1.0     0.444428     0.762106     0.357093    Uiso  ? Hf
   N1         1.0     0.222829     0.203351     0.335776    Uiso  ? N
   N2         1.0     0.109988     0.097347     0.081902    Uiso  ? N
   N3         1.0     0.889537     0.202601     0.832930    Uiso  ? N
   N4         1.0     0.776739     0.093953     0.584899    Uiso  ? N
   N5         1.0     0.555330     0.205529     0.334934    Uiso  ? N
   N6         1.0     0.442619     0.097985     0.082895    Uiso  ? N
   N7         1.0     0.221711     0.206132     0.833322    Uiso  ? N
   N8         1.0     0.112739     0.092418     0.586895    Uiso  ? N
   N9         1.0     0.894479     0.191800     0.335192    Uiso  ? N
   N10        1.0     0.776873     0.094557     0.083980    Uiso  ? N
   N11        1.0     0.555983     0.204705     0.833726    Uiso  ? N
   N12        1.0     0.444916     0.093685     0.585767    Uiso  ? N
   N13        1.0     0.222614     0.538351     0.335808    Uiso  ? N
   N14        1.0     0.112056     0.426779     0.084857    Uiso  ? N
   N15        1.0     0.891575     0.539220     0.832870    Uiso  ? N
   N16        1.0     0.776306     0.428779     0.600790    Uiso  ? N
   N17        1.0     0.549340     0.527152     0.326109    Uiso  ? N
   N18        1.0     0.442137     0.425435     0.080849    Uiso  ? N
   N19        1.0     0.220917     0.538492     0.833284    Uiso  ? N
   N20        1.0     0.112552     0.426531     0.583980    Uiso  ? N
   N21        1.0     0.894986     0.547808     0.335577    Uiso  ? N
   N22        1.0     0.781139     0.426467     0.082019    Uiso  ? N
   N23        1.0     0.552812     0.539985     0.842687    Uiso  ? N
   N24        1.0     0.444452     0.427545     0.587682    Uiso  ? N
   N25        1.0     0.204238     0.879540     0.327713    Uiso  ? N
   N26        1.0     0.109914     0.758959     0.083321    Uiso  ? N
   N27        1.0     0.889380     0.872953     0.834120    Uiso  ? N
   N28        1.0     0.776684     0.763432     0.588051    Uiso  ? N
   N29        1.0     0.567489     0.882143     0.327695    Uiso  ? N
   N30        1.0     0.444517     0.763229     0.092993    Uiso  ? N
   N31        1.0     0.221770     0.871713     0.842009    Uiso  ? N
   N32        1.0     0.111570     0.761520     0.585629    Uiso  ? N
   N33        1.0     0.889057     0.873044     0.334456    Uiso  ? N
   N34        1.0     0.781078     0.760448     0.080307    Uiso  ? N
   N35        1.0     0.555395     0.872839     0.841253    Uiso  ? N
   N36        1.0     0.444092     0.762173     0.592276    Uiso  ? N
