
#======================================================================
# CRYSTAL DATA
#----------------------------------------------------------------------
data_VESTA_phase_1

_chemical_name_common                  'Al   Mg   Hf   N                      '
_cell_length_a                         9.452984
_cell_length_b                         9.454508
_cell_length_c                         10.072167
_cell_angle_alpha                      90.029182
_cell_angle_beta                       90.027962
_cell_angle_gamma                      59.902893
_cell_volume                           778.817213
_space_group_name_H-M_alt              'P 1'
_space_group_IT_number                 1

loop_
_space_group_symop_operation_xyz
   'x, y, z'

loop_
   _atom_site_label
   _atom_site_occupancy
   _atom_site_fract_x
   _atom_site_fract_y
   _atom_site_fract_z
   _atom_site_adp_type
   _atom_site_U_iso_or_equiv
   _atom_site_type_symbol
   Al1        1.0     0.104787     0.098405     0.410046    Uiso  ? Al
   Al2        1.0     0.221679     0.205939     0.160178    Uiso  ? Al
   Al3        1.0     0.777636     0.094097     0.910331    Uiso  ? Al
   Al4        1.0     0.887558     0.206584     0.662148    Uiso  ? Al
   Al5        1.0     0.444586     0.099657     0.410468    Uiso  ? Al
   Al6        1.0     0.555641     0.205684     0.160101    Uiso  ? Al
   Al7        1.0     0.110397     0.095845     0.910607    Uiso  ? Al
   Al8        1.0     0.221273     0.206021     0.659798    Uiso  ? Al
   Al9        1.0     0.779284     0.094203     0.409336    Uiso  ? Al
   Al10       1.0     0.889116     0.204250     0.160487    Uiso  ? Al
   Al11       1.0     0.443292     0.096538     0.910147    Uiso  ? Al
   Al12       1.0     0.556224     0.205255     0.660070    Uiso  ? Al
   Al13       1.0     0.109620     0.429301     0.409615    Uiso  ? Al
   Al14       1.0     0.222044     0.537930     0.160821    Uiso  ? Al
   Al15       1.0     0.779700     0.426832     0.909418    Uiso  ? Al
   Al16       1.0     0.888394     0.538211     0.662039    Uiso  ? Al
   Al17       1.0     0.443366     0.423739     0.410496    Uiso  ? Al
   Al18       1.0     0.557158     0.533377     0.154282    Uiso  ? Al
   Al19       1.0     0.111375     0.427667     0.910522    Uiso  ? Al
   Al20       1.0     0.221657     0.538347     0.660081    Uiso  ? Al
   Al21       1.0     0.889983     0.539654     0.160577    Uiso  ? Al
   Al22       1.0     0.442842     0.426715     0.910435    Uiso  ? Al
   Al23       1.0     0.558243     0.534137     0.668139    Uiso  ? Al
   Al24       1.0     0.106359     0.760293     0.410014    Uiso  ? Al
   Al25       1.0     0.216682     0.874975     0.155299    Uiso  ? Al
   Al26       1.0     0.779884     0.760622     0.910322    Uiso  ? Al
   Al27       1.0     0.888315     0.873054     0.660148    Uiso  ? Al
   Al28       1.0     0.559203     0.875502     0.154339    Uiso  ? Al
   Al29       1.0     0.110095     0.760069     0.910430    Uiso  ? Al
   Al30       1.0     0.217927     0.874119     0.665624    Uiso  ? Al
   Al31       1.0     0.785254     0.760760     0.409962    Uiso  ? Al
   Al32       1.0     0.888466     0.872807     0.160622    Uiso  ? Al
   Al33       1.0     0.444033     0.761645     0.912836    Uiso  ? Al
   Al34       1.0     0.557710     0.873859     0.665701    Uiso  ? Al
   Mg1        1.0     0.783625     0.422680     0.410515    Uiso  ? Mg
   Hf1        1.0     0.446175     0.760551     0.405506    Uiso  ? Hf
   N1         1.0     0.222532     0.204155     0.351817    Uiso  ? N
   N2         1.0     0.111434     0.095581     0.099547    Uiso  ? N
   N3         1.0     0.889528     0.203498     0.852797    Uiso  ? N
   N4         1.0     0.777664     0.094490     0.601110    Uiso  ? N
   N5         1.0     0.555915     0.205273     0.350951    Uiso  ? N
   N6         1.0     0.443261     0.096788     0.099913    Uiso  ? N
   N7         1.0     0.221951     0.205582     0.850223    Uiso  ? N
   N8         1.0     0.111216     0.093514     0.601672    Uiso  ? N
   N9         1.0     0.894589     0.191465     0.346174    Uiso  ? N
   N10        1.0     0.776804     0.094065     0.100047    Uiso  ? N
   N11        1.0     0.555457     0.205270     0.850136    Uiso  ? N
   N12        1.0     0.444563     0.093698     0.601307    Uiso  ? N
   N13        1.0     0.222553     0.538214     0.351890    Uiso  ? N
   N14        1.0     0.112357     0.426858     0.100511    Uiso  ? N
   N15        1.0     0.890002     0.539634     0.852788    Uiso  ? N
   N16        1.0     0.776695     0.428458     0.615493    Uiso  ? N
   N17        1.0     0.549501     0.528299     0.341255    Uiso  ? N
   N18        1.0     0.442664     0.426138     0.099155    Uiso  ? N
   N19        1.0     0.221631     0.538846     0.850346    Uiso  ? N
   N20        1.0     0.110823     0.427708     0.600989    Uiso  ? N
   N21        1.0     0.895064     0.547114     0.347280    Uiso  ? N
   N22        1.0     0.779749     0.427026     0.100429    Uiso  ? N
   N23        1.0     0.553715     0.539136     0.857731    Uiso  ? N
   N24        1.0     0.444386     0.428088     0.602013    Uiso  ? N
   N25        1.0     0.206770     0.878559     0.346081    Uiso  ? N
   N26        1.0     0.110393     0.759928     0.100425    Uiso  ? N
   N27        1.0     0.888994     0.872348     0.850195    Uiso  ? N
   N28        1.0     0.777135     0.761661     0.601775    Uiso  ? N
   N29        1.0     0.565844     0.881917     0.344862    Uiso  ? N
   N30        1.0     0.444349     0.762653     0.106680    Uiso  ? N
   N31        1.0     0.221379     0.872201     0.854883    Uiso  ? N
   N32        1.0     0.111361     0.761187     0.601191    Uiso  ? N
   N33        1.0     0.888863     0.873482     0.350864    Uiso  ? N
   N34        1.0     0.779514     0.761520     0.098903    Uiso  ? N
   N35        1.0     0.555644     0.872703     0.854798    Uiso  ? N
   N36        1.0     0.444276     0.760741     0.613388    Uiso  ? N
