
#======================================================================
# CRYSTAL DATA
#----------------------------------------------------------------------
data_VESTA_phase_1

_chemical_name_common                  'iAl   Mg   Hf   N '
_cell_length_a                         9.452349
_cell_length_b                         9.453817
_cell_length_c                         10.071946
_cell_angle_alpha                      89.971268
_cell_angle_beta                       89.972855
_cell_angle_gamma                      59.904236
_cell_volume                           778.701488
_space_group_name_H-M_alt              'P 1'
_space_group_IT_number                 1

loop_
_space_group_symop_operation_xyz
   'x, y, z'

loop_
   _atom_site_label
   _atom_site_occupancy
   _atom_site_fract_x
   _atom_site_fract_y
   _atom_site_fract_z
   _atom_site_adp_type
   _atom_site_U_iso_or_equiv
   _atom_site_type_symbol
   Al1        1.0     0.104785     0.098468     0.295799    Uiso  ? Al
   Al2        1.0     0.221316     0.206061     0.046052    Uiso  ? Al
   Al3        1.0     0.777676     0.094128     0.795519    Uiso  ? Al
   Al4        1.0     0.889121     0.204302     0.545359    Uiso  ? Al
   Al5        1.0     0.444598     0.099700     0.295379    Uiso  ? Al
   Al6        1.0     0.556266     0.205292     0.045786    Uiso  ? Al
   Al7        1.0     0.110440     0.095879     0.795242    Uiso  ? Al
   Al8        1.0     0.221696     0.205976     0.545670    Uiso  ? Al
   Al9        1.0     0.779295     0.094251     0.296522    Uiso  ? Al
   Al10       1.0     0.887595     0.206626     0.043698    Uiso  ? Al
   Al11       1.0     0.443340     0.096562     0.795705    Uiso  ? Al
   Al12       1.0     0.555653     0.205721     0.545750    Uiso  ? Al
   Al13       1.0     0.109640     0.429340     0.296237    Uiso  ? Al
   Al14       1.0     0.221701     0.538386     0.045770    Uiso  ? Al
   Al15       1.0     0.779743     0.426873     0.796431    Uiso  ? Al
   Al16       1.0     0.890001     0.539689     0.545265    Uiso  ? Al
   Al17       1.0     0.443379     0.423776     0.295349    Uiso  ? Al
   Al18       1.0     0.558281     0.534182     0.037702    Uiso  ? Al
   Al19       1.0     0.111432     0.427696     0.795322    Uiso  ? Al
   Al20       1.0     0.222060     0.537973     0.545026    Uiso  ? Al
   Al21       1.0     0.888452     0.538249     0.043804    Uiso  ? Al
   Al22       1.0     0.442888     0.426746     0.795413    Uiso  ? Al
   Al23       1.0     0.557172     0.533416     0.551554    Uiso  ? Al
   Al24       1.0     0.106359     0.760339     0.295834    Uiso  ? Al
   Al25       1.0     0.217956     0.874164     0.040226    Uiso  ? Al
   Al26       1.0     0.779924     0.760657     0.795525    Uiso  ? Al
   Al27       1.0     0.888475     0.872848     0.545227    Uiso  ? Al
   Al28       1.0     0.557749     0.873895     0.040153    Uiso  ? Al
   Al29       1.0     0.110133     0.760102     0.795419    Uiso  ? Al
   Al30       1.0     0.216675     0.875024     0.550543    Uiso  ? Al
   Al31       1.0     0.785266     0.760793     0.295881    Uiso  ? Al
   Al32       1.0     0.888352     0.873098     0.045706    Uiso  ? Al
   Al33       1.0     0.444063     0.761684     0.793005    Uiso  ? Al
   Al34       1.0     0.559212     0.875539     0.551500    Uiso  ? Al
   Mg1        1.0     0.783630     0.422732     0.295307    Uiso  ? Mg
   Hf1        1.0     0.446159     0.760595     0.300337    Uiso  ? Hf
   N1         1.0     0.222550     0.204198     0.354035    Uiso  ? N
   N2         1.0     0.111248     0.093562     0.104177    Uiso  ? N
   N3         1.0     0.889569     0.203532     0.853054    Uiso  ? N
   N4         1.0     0.776817     0.094105     0.605806    Uiso  ? N
   N5         1.0     0.555929     0.205311     0.354905    Uiso  ? N
   N6         1.0     0.444603     0.093734     0.104549    Uiso  ? N
   N7         1.0     0.222003     0.205612     0.855631    Uiso  ? N
   N8         1.0     0.111441     0.095627     0.606304    Uiso  ? N
   N9         1.0     0.894588     0.191532     0.359676    Uiso  ? N
   N10        1.0     0.777701     0.094531     0.104753    Uiso  ? N
   N11        1.0     0.555506     0.205297     0.855723    Uiso  ? N
   N12        1.0     0.443280     0.096818     0.605941    Uiso  ? N
   N13        1.0     0.222566     0.538262     0.353961    Uiso  ? N
   N14        1.0     0.110870     0.427745     0.104869    Uiso  ? N
   N15        1.0     0.890062     0.539668     0.853060    Uiso  ? N
   N16        1.0     0.779761     0.427073     0.605422    Uiso  ? N
   N17        1.0     0.549523     0.528338     0.364583    Uiso  ? N
   N18        1.0     0.444429     0.428125     0.103838    Uiso  ? N
   N19        1.0     0.221680     0.538882     0.855509    Uiso  ? N
   N20        1.0     0.112375     0.426895     0.605336    Uiso  ? N
   N21        1.0     0.895074     0.547149     0.358564    Uiso  ? N
   N22        1.0     0.776739     0.428503     0.090340    Uiso  ? N
   N23        1.0     0.553759     0.539175     0.848113    Uiso  ? N
   N24        1.0     0.442682     0.426175     0.606692    Uiso  ? N
   N25        1.0     0.206753     0.878621     0.359765    Uiso  ? N
   N26        1.0     0.111392     0.761228     0.104665    Uiso  ? N
   N27        1.0     0.889036     0.872383     0.855663    Uiso  ? N
   N28        1.0     0.779524     0.761557     0.606942    Uiso  ? N
   N29        1.0     0.565854     0.881954     0.360978    Uiso  ? N
   N30        1.0     0.444306     0.760786     0.092460    Uiso  ? N
   N31        1.0     0.221414     0.872239     0.850969    Uiso  ? N
   N32        1.0     0.110399     0.759969     0.605428    Uiso  ? N
   N33        1.0     0.888862     0.873527     0.354990    Uiso  ? N
   N34        1.0     0.777176     0.761698     0.104075    Uiso  ? N
   N35        1.0     0.555689     0.872731     0.851057    Uiso  ? N
   N36        1.0     0.444351     0.762695     0.599150    Uiso  ? N
