
#======================================================================
# CRYSTAL DATA
#----------------------------------------------------------------------
data_VESTA_phase_1

_chemical_name_common                  'Al   Mg   Hf   N                      '
_cell_length_a                         9.452986
_cell_length_b                         9.454512
_cell_length_c                         10.072153
_cell_angle_alpha                      90.029259
_cell_angle_beta                       90.028015
_cell_angle_gamma                      59.902859
_cell_volume                           778.816307
_space_group_name_H-M_alt              'P 1'
_space_group_IT_number                 1

loop_
_space_group_symop_operation_xyz
   'x, y, z'

loop_
   _atom_site_label
   _atom_site_occupancy
   _atom_site_fract_x
   _atom_site_fract_y
   _atom_site_fract_z
   _atom_site_adp_type
   _atom_site_U_iso_or_equiv
   _atom_site_type_symbol
   Al1        1.0     0.104788     0.098407     0.406908    Uiso  ? Al
   Al2        1.0     0.221681     0.205941     0.157042    Uiso  ? Al
   Al3        1.0     0.777637     0.094099     0.907194    Uiso  ? Al
   Al4        1.0     0.887559     0.206587     0.659010    Uiso  ? Al
   Al5        1.0     0.444588     0.099660     0.407331    Uiso  ? Al
   Al6        1.0     0.555643     0.205687     0.156965    Uiso  ? Al
   Al7        1.0     0.110399     0.095847     0.907469    Uiso  ? Al
   Al8        1.0     0.221274     0.206023     0.656661    Uiso  ? Al
   Al9        1.0     0.779286     0.094205     0.406199    Uiso  ? Al
   Al10       1.0     0.889117     0.204252     0.157349    Uiso  ? Al
   Al11       1.0     0.443293     0.096539     0.907009    Uiso  ? Al
   Al12       1.0     0.556225     0.205257     0.656933    Uiso  ? Al
   Al13       1.0     0.109622     0.429303     0.406479    Uiso  ? Al
   Al14       1.0     0.222046     0.537932     0.157685    Uiso  ? Al
   Al15       1.0     0.779702     0.426834     0.906280    Uiso  ? Al
   Al16       1.0     0.888395     0.538213     0.658902    Uiso  ? Al
   Al17       1.0     0.443367     0.423741     0.407360    Uiso  ? Al
   Al18       1.0     0.557159     0.533379     0.151144    Uiso  ? Al
   Al19       1.0     0.111376     0.427669     0.907387    Uiso  ? Al
   Al20       1.0     0.221658     0.538349     0.656945    Uiso  ? Al
   Al21       1.0     0.889984     0.539656     0.157440    Uiso  ? Al
   Al22       1.0     0.442844     0.426718     0.907299    Uiso  ? Al
   Al23       1.0     0.558244     0.534139     0.665001    Uiso  ? Al
   Al24       1.0     0.106361     0.760295     0.406876    Uiso  ? Al
   Al25       1.0     0.216684     0.874977     0.152157    Uiso  ? Al
   Al26       1.0     0.779885     0.760624     0.907184    Uiso  ? Al
   Al27       1.0     0.888317     0.873056     0.657011    Uiso  ? Al
   Al28       1.0     0.559204     0.875504     0.151201    Uiso  ? Al
   Al29       1.0     0.110097     0.760072     0.907293    Uiso  ? Al
   Al30       1.0     0.217929     0.874121     0.662482    Uiso  ? Al
   Al31       1.0     0.785256     0.760763     0.406825    Uiso  ? Al
   Al32       1.0     0.888468     0.872810     0.157486    Uiso  ? Al
   Al33       1.0     0.444035     0.761647     0.909693    Uiso  ? Al
   Al34       1.0     0.557712     0.873861     0.662558    Uiso  ? Al
   Mg1        1.0     0.783627     0.422682     0.407375    Uiso  ? Mg
   Hf1        1.0     0.446176     0.760554     0.402364    Uiso  ? Hf
   N1         1.0     0.222534     0.204157     0.348680    Uiso  ? N
   N2         1.0     0.111436     0.095583     0.096409    Uiso  ? N
   N3         1.0     0.889529     0.203500     0.849659    Uiso  ? N
   N4         1.0     0.777665     0.094492     0.597972    Uiso  ? N
   N5         1.0     0.555917     0.205276     0.347814    Uiso  ? N
   N6         1.0     0.443263     0.096790     0.096775    Uiso  ? N
   N7         1.0     0.221953     0.205584     0.847086    Uiso  ? N
   N8         1.0     0.111217     0.093517     0.598534    Uiso  ? N
   N9         1.0     0.894590     0.191467     0.343036    Uiso  ? N
   N10        1.0     0.776805     0.094067     0.096910    Uiso  ? N
   N11        1.0     0.555459     0.205272     0.847000    Uiso  ? N
   N12        1.0     0.444564     0.093701     0.598169    Uiso  ? N
   N13        1.0     0.222554     0.538216     0.348753    Uiso  ? N
   N14        1.0     0.112358     0.426860     0.097375    Uiso  ? N
   N15        1.0     0.890004     0.539636     0.849650    Uiso  ? N
   N16        1.0     0.776696     0.428460     0.612354    Uiso  ? N
   N17        1.0     0.549502     0.528300     0.338117    Uiso  ? N
   N18        1.0     0.442665     0.426140     0.096019    Uiso  ? N
   N19        1.0     0.221632     0.538848     0.847210    Uiso  ? N
   N20        1.0     0.110824     0.427711     0.597852    Uiso  ? N
   N21        1.0     0.895066     0.547116     0.344142    Uiso  ? N
   N22        1.0     0.779751     0.427028     0.097291    Uiso  ? N
   N23        1.0     0.553716     0.539138     0.854593    Uiso  ? N
   N24        1.0     0.444387     0.428090     0.598876    Uiso  ? N
   N25        1.0     0.206770     0.878561     0.342941    Uiso  ? N
   N26        1.0     0.110395     0.759930     0.097288    Uiso  ? N
   N27        1.0     0.888995     0.872350     0.847058    Uiso  ? N
   N28        1.0     0.777137     0.761663     0.598637    Uiso  ? N
   N29        1.0     0.565846     0.881920     0.341724    Uiso  ? N
   N30        1.0     0.444351     0.762655     0.103539    Uiso  ? N
   N31        1.0     0.221380     0.872204     0.851741    Uiso  ? N
   N32        1.0     0.111362     0.761189     0.598053    Uiso  ? N
   N33        1.0     0.888864     0.873484     0.347727    Uiso  ? N
   N34        1.0     0.779515     0.761522     0.095766    Uiso  ? N
   N35        1.0     0.555645     0.872705     0.851656    Uiso  ? N
   N36        1.0     0.444278     0.760743     0.610247    Uiso  ? N
