
#======================================================================
# CRYSTAL DATA
#----------------------------------------------------------------------
data_VESTA_phase_1

_chemical_name_common                  'Al   Mg   Hf   N                      '
_cell_length_a                         9.568432
_cell_length_b                         9.567789
_cell_length_c                         9.766444
_cell_angle_alpha                      89.976753
_cell_angle_beta                       89.989342
_cell_angle_gamma                      59.876041
_cell_volume                           773.349130
_space_group_name_H-M_alt              'P 1'
_space_group_IT_number                 1

loop_
_space_group_symop_operation_xyz
   'x, y, z'

loop_
   _atom_site_label
   _atom_site_occupancy
   _atom_site_fract_x
   _atom_site_fract_y
   _atom_site_fract_z
   _atom_site_adp_type
   _atom_site_U_iso_or_equiv
   _atom_site_type_symbol
   Al1        1.0     0.105068     0.097795     0.326408    Uiso  ? Al
   Al2        1.0     0.221556     0.205874     0.077721    Uiso  ? Al
   Al3        1.0     0.777785     0.094304     0.826990    Uiso  ? Al
   Al4        1.0     0.889017     0.204457     0.576130    Uiso  ? Al
   Al5        1.0     0.444909     0.099298     0.326482    Uiso  ? Al
   Al6        1.0     0.556469     0.204958     0.077060    Uiso  ? Al
   Al7        1.0     0.109969     0.096459     0.827799    Uiso  ? Al
   Al8        1.0     0.221595     0.205844     0.577029    Uiso  ? Al
   Al9        1.0     0.778956     0.093932     0.327728    Uiso  ? Al
   Al10       1.0     0.887342     0.206489     0.076641    Uiso  ? Al
   Al11       1.0     0.442948     0.096995     0.827743    Uiso  ? Al
   Al12       1.0     0.555405     0.205844     0.577119    Uiso  ? Al
   Al13       1.0     0.110154     0.429021     0.327691    Uiso  ? Al
   Al14       1.0     0.221550     0.538307     0.077401    Uiso  ? Al
   Al15       1.0     0.780277     0.426743     0.830606    Uiso  ? Al
   Al16       1.0     0.890030     0.539800     0.576331    Uiso  ? Al
   Al17       1.0     0.443043     0.423529     0.325867    Uiso  ? Al
   Al18       1.0     0.557597     0.535695     0.071002    Uiso  ? Al
   Al19       1.0     0.111250     0.427649     0.826860    Uiso  ? Al
   Al20       1.0     0.222147     0.537650     0.576471    Uiso  ? Al
   Al21       1.0     0.888731     0.538084     0.076869    Uiso  ? Al
   Al22       1.0     0.442523     0.426706     0.828137    Uiso  ? Al
   Al23       1.0     0.558388     0.530572     0.584258    Uiso  ? Al
   Al24       1.0     0.106188     0.760423     0.326949    Uiso  ? Al
   Al25       1.0     0.219552     0.873216     0.072307    Uiso  ? Al
   Al26       1.0     0.780622     0.760062     0.828347    Uiso  ? Al
   Al27       1.0     0.888449     0.872681     0.576774    Uiso  ? Al
   Al28       1.0     0.557049     0.873440     0.072444    Uiso  ? Al
   Al29       1.0     0.110140     0.759567     0.827435    Uiso  ? Al
   Al30       1.0     0.213771     0.876458     0.583468    Uiso  ? Al
   Al31       1.0     0.785023     0.761611     0.326168    Uiso  ? Al
   Al32       1.0     0.888471     0.873450     0.076803    Uiso  ? Al
   Al33       1.0     0.444231     0.761691     0.822190    Uiso  ? Al
   Al34       1.0     0.560889     0.876894     0.584027    Uiso  ? Al
   Mg1        1.0     0.782939     0.423512     0.328896    Uiso  ? Mg
   Hf1        1.0     0.445428     0.761208     0.341361    Uiso  ? Hf
   N1         1.0     0.222686     0.203575     0.380533    Uiso  ? N
   N2         1.0     0.111706     0.093144     0.130128    Uiso  ? N
   N3         1.0     0.889499     0.203132     0.880856    Uiso  ? N
   N4         1.0     0.776730     0.094253     0.632206    Uiso  ? N
   N5         1.0     0.555536     0.205410     0.381327    Uiso  ? N
   N6         1.0     0.444734     0.093750     0.130720    Uiso  ? N
   N7         1.0     0.221871     0.205816     0.882544    Uiso  ? N
   N8         1.0     0.110786     0.096429     0.633745    Uiso  ? N
   N9         1.0     0.894525     0.191481     0.384845    Uiso  ? N
   N10        1.0     0.777388     0.094356     0.131386    Uiso  ? N
   N11        1.0     0.555751     0.204987     0.882402    Uiso  ? N
   N12        1.0     0.442951     0.097472     0.633114    Uiso  ? N
   N13        1.0     0.222573     0.538210     0.380488    Uiso  ? N
   N14        1.0     0.111461     0.427273     0.131798    Uiso  ? N
   N15        1.0     0.890730     0.539426     0.880967    Uiso  ? N
   N16        1.0     0.780388     0.426800     0.633058    Uiso  ? N
   N17        1.0     0.549974     0.526024     0.391349    Uiso  ? N
   N18        1.0     0.444429     0.427921     0.129616    Uiso  ? N
   N19        1.0     0.221322     0.538654     0.882453    Uiso  ? N
   N20        1.0     0.112363     0.426729     0.631765    Uiso  ? N
   N21        1.0     0.895127     0.547719     0.384045    Uiso  ? N
   N22        1.0     0.776597     0.428628     0.117141    Uiso  ? N
   N23        1.0     0.552938     0.540434     0.874821    Uiso  ? N
   N24        1.0     0.442336     0.425724     0.634430    Uiso  ? N
   N25        1.0     0.203927     0.879669     0.387227    Uiso  ? N
   N26        1.0     0.111489     0.761280     0.130830    Uiso  ? N
   N27        1.0     0.889185     0.872645     0.882194    Uiso  ? N
   N28        1.0     0.780302     0.761190     0.634709    Uiso  ? N
   N29        1.0     0.567567     0.882889     0.387987    Uiso  ? N
   N30        1.0     0.444332     0.761286     0.125517    Uiso  ? N
   N31        1.0     0.222541     0.871513     0.876909    Uiso  ? N
   N32        1.0     0.110113     0.759479     0.632661    Uiso  ? N
   N33        1.0     0.888955     0.873331     0.381557    Uiso  ? N
   N34        1.0     0.777186     0.762281     0.129683    Uiso  ? N
   N35        1.0     0.555151     0.872275     0.877260    Uiso  ? N
   N36        1.0     0.444421     0.763078     0.621155    Uiso  ? N
