
#======================================================================
# CRYSTAL DATA
#----------------------------------------------------------------------
data_VESTA_phase_1

_chemical_name_common                  'Al   Mg   Hf   N                      '
_cell_length_a                         9.453067
_cell_length_b                         9.454579
_cell_length_c                         10.072022
_cell_angle_alpha                      90.029129
_cell_angle_beta                       90.027756
_cell_angle_gamma                      59.902241
_cell_volume                           778.813593
_space_group_name_H-M_alt              'P 1'
_space_group_IT_number                 1

loop_
_space_group_symop_operation_xyz
   'x, y, z'

loop_
   _atom_site_label
   _atom_site_occupancy
   _atom_site_fract_x
   _atom_site_fract_y
   _atom_site_fract_z
   _atom_site_adp_type
   _atom_site_U_iso_or_equiv
   _atom_site_type_symbol
   Al1        1.0     0.104794     0.098417     0.393125    Uiso  ? Al
   Al2        1.0     0.221687     0.205950     0.143257    Uiso  ? Al
   Al3        1.0     0.777644     0.094110     0.893410    Uiso  ? Al
   Al4        1.0     0.887566     0.206597     0.645225    Uiso  ? Al
   Al5        1.0     0.444594     0.099669     0.393547    Uiso  ? Al
   Al6        1.0     0.555648     0.205697     0.143181    Uiso  ? Al
   Al7        1.0     0.110405     0.095857     0.893684    Uiso  ? Al
   Al8        1.0     0.221280     0.206033     0.642877    Uiso  ? Al
   Al9        1.0     0.779291     0.094215     0.392415    Uiso  ? Al
   Al10       1.0     0.889123     0.204262     0.143567    Uiso  ? Al
   Al11       1.0     0.443299     0.096550     0.893225    Uiso  ? Al
   Al12       1.0     0.556231     0.205266     0.643149    Uiso  ? Al
   Al13       1.0     0.109628     0.429312     0.392695    Uiso  ? Al
   Al14       1.0     0.222052     0.537942     0.143899    Uiso  ? Al
   Al15       1.0     0.779708     0.426845     0.892495    Uiso  ? Al
   Al16       1.0     0.888402     0.538223     0.645116    Uiso  ? Al
   Al17       1.0     0.443373     0.423751     0.393575    Uiso  ? Al
   Al18       1.0     0.557166     0.533386     0.137358    Uiso  ? Al
   Al19       1.0     0.111382     0.427679     0.893602    Uiso  ? Al
   Al20       1.0     0.221665     0.538358     0.643161    Uiso  ? Al
   Al21       1.0     0.889990     0.539666     0.143657    Uiso  ? Al
   Al22       1.0     0.442850     0.426728     0.893513    Uiso  ? Al
   Al23       1.0     0.558250     0.534150     0.651215    Uiso  ? Al
   Al24       1.0     0.106367     0.760304     0.393093    Uiso  ? Al
   Al25       1.0     0.216687     0.874988     0.138374    Uiso  ? Al
   Al26       1.0     0.779892     0.760634     0.893400    Uiso  ? Al
   Al27       1.0     0.888323     0.873066     0.643228    Uiso  ? Al
   Al28       1.0     0.559212     0.875516     0.137416    Uiso  ? Al
   Al29       1.0     0.110103     0.760081     0.893508    Uiso  ? Al
   Al30       1.0     0.217937     0.874130     0.648699    Uiso  ? Al
   Al31       1.0     0.785262     0.760774     0.393042    Uiso  ? Al
   Al32       1.0     0.888474     0.872819     0.143701    Uiso  ? Al
   Al33       1.0     0.444041     0.761657     0.895914    Uiso  ? Al
   Al34       1.0     0.557718     0.873870     0.648776    Uiso  ? Al
   Mg1        1.0     0.783632     0.422693     0.393591    Uiso  ? Mg
   Hf1        1.0     0.446183     0.760563     0.388572    Uiso  ? Hf
   N1         1.0     0.222539     0.204165     0.334898    Uiso  ? N
   N2         1.0     0.111441     0.095594     0.082626    Uiso  ? N
   N3         1.0     0.889535     0.203509     0.835876    Uiso  ? N
   N4         1.0     0.777672     0.094503     0.584191    Uiso  ? N
   N5         1.0     0.555922     0.205285     0.334032    Uiso  ? N
   N6         1.0     0.443269     0.096801     0.082992    Uiso  ? N
   N7         1.0     0.221959     0.205593     0.833304    Uiso  ? N
   N8         1.0     0.111225     0.093527     0.584753    Uiso  ? N
   N9         1.0     0.894596     0.191477     0.329256    Uiso  ? N
   N10        1.0     0.776811     0.094078     0.083128    Uiso  ? N
   N11        1.0     0.555465     0.205281     0.833218    Uiso  ? N
   N12        1.0     0.444571     0.093711     0.584388    Uiso  ? N
   N13        1.0     0.222559     0.538225     0.334971    Uiso  ? N
   N14        1.0     0.112364     0.426870     0.083593    Uiso  ? N
   N15        1.0     0.890010     0.539646     0.835867    Uiso  ? N
   N16        1.0     0.776703     0.428471     0.598572    Uiso  ? N
   N17        1.0     0.549508     0.528307     0.324334    Uiso  ? N
   N18        1.0     0.442671     0.426150     0.082235    Uiso  ? N
   N19        1.0     0.221638     0.538857     0.833427    Uiso  ? N
   N20        1.0     0.110832     0.427720     0.584070    Uiso  ? N
   N21        1.0     0.895071     0.547126     0.330361    Uiso  ? N
   N22        1.0     0.779758     0.427038     0.083509    Uiso  ? N
   N23        1.0     0.553722     0.539149     0.840810    Uiso  ? N
   N24        1.0     0.444394     0.428100     0.585094    Uiso  ? N
   N25        1.0     0.206773     0.878571     0.329160    Uiso  ? N
   N26        1.0     0.110401     0.759940     0.083505    Uiso  ? N
   N27        1.0     0.889001     0.872360     0.833276    Uiso  ? N
   N28        1.0     0.777144     0.761674     0.584856    Uiso  ? N
   N29        1.0     0.565853     0.881930     0.327941    Uiso  ? N
   N30        1.0     0.444358     0.762666     0.089763    Uiso  ? N
   N31        1.0     0.221389     0.872212     0.837961    Uiso  ? N
   N32        1.0     0.111370     0.761199     0.584272    Uiso  ? N
   N33        1.0     0.888870     0.873494     0.333945    Uiso  ? N
   N34        1.0     0.779523     0.761532     0.081983    Uiso  ? N
   N35        1.0     0.555651     0.872714     0.837876    Uiso  ? N
   N36        1.0     0.444285     0.760754     0.596459    Uiso  ? N
