
#======================================================================
# CRYSTAL DATA
#----------------------------------------------------------------------
data_VESTA_phase_1

_chemical_name_common                  'Al   Mg   Hf   N                      '
_cell_length_a                         9.453072
_cell_length_b                         9.454580
_cell_length_c                         10.072026
_cell_angle_alpha                      89.970795
_cell_angle_beta                       89.972214
_cell_angle_gamma                      59.902233
_cell_volume                           778.814299
_space_group_name_H-M_alt              'P 1'
_space_group_IT_number                 1

loop_
_space_group_symop_operation_xyz
   'x, y, z'

loop_
   _atom_site_label
   _atom_site_occupancy
   _atom_site_fract_x
   _atom_site_fract_y
   _atom_site_fract_z
   _atom_site_adp_type
   _atom_site_U_iso_or_equiv
   _atom_site_type_symbol
   Al1        1.0     0.104802     0.098431     0.315837    Uiso  ? Al
   Al2        1.0     0.221289     0.206046     0.066087    Uiso  ? Al
   Al3        1.0     0.777652     0.094123     0.815553    Uiso  ? Al
   Al4        1.0     0.889131     0.204276     0.565398    Uiso  ? Al
   Al5        1.0     0.444602     0.099683     0.315415    Uiso  ? Al
   Al6        1.0     0.556240     0.205280     0.065815    Uiso  ? Al
   Al7        1.0     0.110414     0.095870     0.815278    Uiso  ? Al
   Al8        1.0     0.221695     0.205964     0.565706    Uiso  ? Al
   Al9        1.0     0.779300     0.094229     0.316549    Uiso  ? Al
   Al10       1.0     0.887575     0.206610     0.063735    Uiso  ? Al
   Al11       1.0     0.443308     0.096563     0.815738    Uiso  ? Al
   Al12       1.0     0.555657     0.205710     0.565783    Uiso  ? Al
   Al13       1.0     0.109636     0.429326     0.316270    Uiso  ? Al
   Al14       1.0     0.221673     0.538372     0.065803    Uiso  ? Al
   Al15       1.0     0.779716     0.426859     0.816468    Uiso  ? Al
   Al16       1.0     0.889998     0.539680     0.565308    Uiso  ? Al
   Al17       1.0     0.443381     0.423764     0.315387    Uiso  ? Al
   Al18       1.0     0.558258     0.534164     0.057747    Uiso  ? Al
   Al19       1.0     0.111392     0.427692     0.815362    Uiso  ? Al
   Al20       1.0     0.222060     0.537955     0.565064    Uiso  ? Al
   Al21       1.0     0.888411     0.538236     0.063844    Uiso  ? Al
   Al22       1.0     0.442859     0.426742     0.815451    Uiso  ? Al
   Al23       1.0     0.557175     0.533399     0.571601    Uiso  ? Al
   Al24       1.0     0.106375     0.760318     0.315870    Uiso  ? Al
   Al25       1.0     0.217946     0.874143     0.060261    Uiso  ? Al
   Al26       1.0     0.779900     0.760648     0.815563    Uiso  ? Al
   Al27       1.0     0.888482     0.872833     0.565263    Uiso  ? Al
   Al28       1.0     0.557726     0.873883     0.060185    Uiso  ? Al
   Al29       1.0     0.110112     0.760095     0.815455    Uiso  ? Al
   Al30       1.0     0.216695     0.875002     0.570584    Uiso  ? Al
   Al31       1.0     0.785271     0.760786     0.315921    Uiso  ? Al
   Al32       1.0     0.888332     0.873080     0.065737    Uiso  ? Al
   Al33       1.0     0.444050     0.761670     0.813044    Uiso  ? Al
   Al34       1.0     0.559221     0.875529     0.571543    Uiso  ? Al
   Mg1        1.0     0.783642     0.422706     0.315369    Uiso  ? Mg
   Hf1        1.0     0.446191     0.760577     0.320387    Uiso  ? Hf
   N1         1.0     0.222548     0.204179     0.374065    Uiso  ? N
   N2         1.0     0.111233     0.093540     0.124209    Uiso  ? N
   N3         1.0     0.889544     0.203522     0.873085    Uiso  ? N
   N4         1.0     0.776820     0.094091     0.625835    Uiso  ? N
   N5         1.0     0.555930     0.205298     0.374932    Uiso  ? N
   N6         1.0     0.444579     0.093724     0.124574    Uiso  ? N
   N7         1.0     0.221967     0.205607     0.875659    Uiso  ? N
   N8         1.0     0.111451     0.095607     0.626336    Uiso  ? N
   N9         1.0     0.894604     0.191491     0.379708    Uiso  ? N
   N10        1.0     0.777681     0.094517     0.124773    Uiso  ? N
   N11        1.0     0.555474     0.205295     0.875746    Uiso  ? N
   N12        1.0     0.443278     0.096814     0.625970    Uiso  ? N
   N13        1.0     0.222568     0.538238     0.373992    Uiso  ? N
   N14        1.0     0.110840     0.427734     0.124893    Uiso  ? N
   N15        1.0     0.890019     0.539659     0.873094    Uiso  ? N
   N16        1.0     0.779765     0.427052     0.625454    Uiso  ? N
   N17        1.0     0.549518     0.528320     0.384625    Uiso  ? N
   N18        1.0     0.444403     0.428113     0.123869    Uiso  ? N
   N19        1.0     0.221647     0.538870     0.875536    Uiso  ? N
   N20        1.0     0.112373     0.426884     0.625371    Uiso  ? N
   N21        1.0     0.895079     0.547139     0.378602    Uiso  ? N
   N22        1.0     0.776712     0.428484     0.110388    Uiso  ? N
   N23        1.0     0.553730     0.539163     0.868152    Uiso  ? N
   N24        1.0     0.442680     0.426165     0.626728    Uiso  ? N
   N25        1.0     0.206782     0.878585     0.379800    Uiso  ? N
   N26        1.0     0.111378     0.761213     0.124691    Uiso  ? N
   N27        1.0     0.889010     0.872373     0.875687    Uiso  ? N
   N28        1.0     0.779531     0.761547     0.626980    Uiso  ? N
   N29        1.0     0.565862     0.881943     0.381019    Uiso  ? N
   N30        1.0     0.444293     0.760768     0.112501    Uiso  ? N
   N31        1.0     0.221398     0.872225     0.871000    Uiso  ? N
   N32        1.0     0.110410     0.759954     0.625457    Uiso  ? N
   N33        1.0     0.888879     0.873507     0.375018    Uiso  ? N
   N34        1.0     0.777153     0.761687     0.124106    Uiso  ? N
   N35        1.0     0.555659     0.872727     0.871085    Uiso  ? N
   N36        1.0     0.444366     0.762680     0.619195    Uiso  ? N
