
#======================================================================
# CRYSTAL DATA
#----------------------------------------------------------------------
data_VESTA_phase_1

_chemical_name_common                  'Al   Mg   Hf   N                      '
_cell_length_a                         9.902612
_cell_length_b                         9.900186
_cell_length_c                         8.753415
_cell_angle_alpha                      89.989296
_cell_angle_beta                       89.998657
_cell_angle_gamma                      59.871136
_cell_volume                           742.225425
_space_group_name_H-M_alt              'P 1'
_space_group_IT_number                 1

loop_
_space_group_symop_operation_xyz
   'x, y, z'

loop_
   _atom_site_label
   _atom_site_occupancy
   _atom_site_fract_x
   _atom_site_fract_y
   _atom_site_fract_z
   _atom_site_adp_type
   _atom_site_U_iso_or_equiv
   _atom_site_type_symbol
   Al1        1.0     0.107592     0.095990     0.340935    Uiso  ? Al
   Al2        1.0     0.222112     0.205513     0.092334    Uiso  ? Al
   Al3        1.0     0.778332     0.095016     0.842407    Uiso  ? Al
   Al4        1.0     0.888471     0.205302     0.588447    Uiso  ? Al
   Al5        1.0     0.445080     0.098236     0.342131    Uiso  ? Al
   Al6        1.0     0.556496     0.204503     0.090709    Uiso  ? Al
   Al7        1.0     0.107997     0.098561     0.843423    Uiso  ? Al
   Al8        1.0     0.221454     0.205749     0.592166    Uiso  ? Al
   Al9        1.0     0.778170     0.093005     0.341583    Uiso  ? Al
   Al10       1.0     0.887494     0.205568     0.096886    Uiso  ? Al
   Al11       1.0     0.442112     0.098429     0.842195    Uiso  ? Al
   Al12       1.0     0.555661     0.205709     0.592904    Uiso  ? Al
   Al13       1.0     0.111775     0.428305     0.342162    Uiso  ? Al
   Al14       1.0     0.221473     0.538203     0.091972    Uiso  ? Al
   Al15       1.0     0.781908     0.425916     0.850471    Uiso  ? Al
   Al16       1.0     0.889434     0.539447     0.589050    Uiso  ? Al
   Al17       1.0     0.442335     0.423823     0.340294    Uiso  ? Al
   Al18       1.0     0.557965     0.533897     0.086660    Uiso  ? Al
   Al19       1.0     0.110291     0.427925     0.842130    Uiso  ? Al
   Al20       1.0     0.222228     0.537503     0.591928    Uiso  ? Al
   Al21       1.0     0.889417     0.538347     0.096912    Uiso  ? Al
   Al22       1.0     0.442178     0.426459     0.843743    Uiso  ? Al
   Al23       1.0     0.558982     0.530821     0.603578    Uiso  ? Al
   Al24       1.0     0.107049     0.760619     0.342561    Uiso  ? Al
   Al25       1.0     0.217571     0.874128     0.083398    Uiso  ? Al
   Al26       1.0     0.782710     0.758317     0.844397    Uiso  ? Al
   Al27       1.0     0.888274     0.872802     0.592908    Uiso  ? Al
   Al28       1.0     0.557946     0.875177     0.083732    Uiso  ? Al
   Al29       1.0     0.109511     0.758640     0.841843    Uiso  ? Al
   Al30       1.0     0.214617     0.876049     0.605177    Uiso  ? Al
   Al31       1.0     0.783450     0.763056     0.339707    Uiso  ? Al
   Al32       1.0     0.888565     0.873876     0.090280    Uiso  ? Al
   Al33       1.0     0.444754     0.760879     0.844395    Uiso  ? Al
   Al34       1.0     0.560607     0.876037     0.605130    Uiso  ? Al
   Mg1        1.0     0.781352     0.425124     0.347626    Uiso  ? Mg
   Hf1        1.0     0.444029     0.762578     0.354881    Uiso  ? Hf
   N1         1.0     0.222819     0.203498     0.365371    Uiso  ? N
   N2         1.0     0.112770     0.092807     0.113776    Uiso  ? N
   N3         1.0     0.889397     0.202915     0.868455    Uiso  ? N
   N4         1.0     0.776968     0.094645     0.617171    Uiso  ? N
   N5         1.0     0.555412     0.205442     0.366208    Uiso  ? N
   N6         1.0     0.444676     0.094240     0.114924    Uiso  ? N
   N7         1.0     0.221678     0.206076     0.867230    Uiso  ? N
   N8         1.0     0.110100     0.096805     0.618768    Uiso  ? N
   N9         1.0     0.894172     0.192436     0.363804    Uiso  ? N
   N10        1.0     0.776477     0.093921     0.115596    Uiso  ? N
   N11        1.0     0.555925     0.204746     0.866808    Uiso  ? N
   N12        1.0     0.442932     0.097356     0.617854    Uiso  ? N
   N13        1.0     0.222455     0.538477     0.365392    Uiso  ? N
   N14        1.0     0.112901     0.426260     0.116784    Uiso  ? N
   N15        1.0     0.891454     0.539092     0.868423    Uiso  ? N
   N16        1.0     0.780579     0.426740     0.620184    Uiso  ? N
   N17        1.0     0.549201     0.528750     0.370757    Uiso  ? N
   N18        1.0     0.444142     0.427034     0.112888    Uiso  ? N
   N19        1.0     0.220903     0.538432     0.867316    Uiso  ? N
   N20        1.0     0.111920     0.426800     0.615891    Uiso  ? N
   N21        1.0     0.894808     0.547299     0.363602    Uiso  ? N
   N22        1.0     0.776840     0.428530     0.100804    Uiso  ? N
   N23        1.0     0.553271     0.539064     0.859477    Uiso  ? N
   N24        1.0     0.442590     0.425798     0.619856    Uiso  ? N
   N25        1.0     0.205764     0.878853     0.371576    Uiso  ? N
   N26        1.0     0.111377     0.761272     0.115084    Uiso  ? N
   N27        1.0     0.889422     0.872972     0.866531    Uiso  ? N
   N28        1.0     0.780561     0.760636     0.620618    Uiso  ? N
   N29        1.0     0.566538     0.881200     0.371274    Uiso  ? N
   N30        1.0     0.444007     0.762653     0.104832    Uiso  ? N
   N31        1.0     0.220854     0.872123     0.859393    Uiso  ? N
   N32        1.0     0.110163     0.759269     0.617509    Uiso  ? N
   N33        1.0     0.889151     0.873013     0.366639    Uiso  ? N
   N34        1.0     0.777040     0.763494     0.112348    Uiso  ? N
   N35        1.0     0.555843     0.873323     0.860071    Uiso  ? N
   N36        1.0     0.444532     0.763004     0.614415    Uiso  ? N
