
#======================================================================
# CRYSTAL DATA
#----------------------------------------------------------------------
data_VESTA_phase_1

_chemical_name_common                  'Al   Mg   Hf   N                      '
_cell_length_a                         9.568659
_cell_length_b                         9.568010
_cell_length_c                         9.765841
_cell_angle_alpha                      90.023247
_cell_angle_beta                       90.010612
_cell_angle_gamma                      59.875813
_cell_volume                           773.335838
_space_group_name_H-M_alt              'P 1'
_space_group_IT_number                 1

loop_
_space_group_symop_operation_xyz
   'x, y, z'

loop_
   _atom_site_label
   _atom_site_occupancy
   _atom_site_fract_x
   _atom_site_fract_y
   _atom_site_fract_z
   _atom_site_adp_type
   _atom_site_U_iso_or_equiv
   _atom_site_type_symbol
   Al1        1.0     0.105070     0.097793     0.382530    Uiso  ? Al
   Al2        1.0     0.221595     0.205844     0.131908    Uiso  ? Al
   Al3        1.0     0.777785     0.094305     0.881945    Uiso  ? Al
   Al4        1.0     0.887342     0.206488     0.632292    Uiso  ? Al
   Al5        1.0     0.444910     0.099295     0.382454    Uiso  ? Al
   Al6        1.0     0.555405     0.205844     0.131818    Uiso  ? Al
   Al7        1.0     0.109967     0.096462     0.881136    Uiso  ? Al
   Al8        1.0     0.221557     0.205873     0.631214    Uiso  ? Al
   Al9        1.0     0.778956     0.093931     0.381209    Uiso  ? Al
   Al10       1.0     0.889017     0.204458     0.132809    Uiso  ? Al
   Al11       1.0     0.442947     0.096997     0.881193    Uiso  ? Al
   Al12       1.0     0.556470     0.204957     0.631876    Uiso  ? Al
   Al13       1.0     0.110155     0.429020     0.381246    Uiso  ? Al
   Al14       1.0     0.222146     0.537649     0.132465    Uiso  ? Al
   Al15       1.0     0.780279     0.426742     0.878327    Uiso  ? Al
   Al16       1.0     0.888731     0.538084     0.632065    Uiso  ? Al
   Al17       1.0     0.443043     0.423529     0.383072    Uiso  ? Al
   Al18       1.0     0.558389     0.530569     0.124675    Uiso  ? Al
   Al19       1.0     0.111250     0.427649     0.882076    Uiso  ? Al
   Al20       1.0     0.221549     0.538307     0.631534    Uiso  ? Al
   Al21       1.0     0.890030     0.539800     0.132609    Uiso  ? Al
   Al22       1.0     0.442521     0.426705     0.880798    Uiso  ? Al
   Al23       1.0     0.557595     0.535698     0.637937    Uiso  ? Al
   Al24       1.0     0.106188     0.760424     0.381987    Uiso  ? Al
   Al25       1.0     0.213767     0.876460     0.125465    Uiso  ? Al
   Al26       1.0     0.780625     0.760060     0.880589    Uiso  ? Al
   Al27       1.0     0.888472     0.873450     0.632134    Uiso  ? Al
   Al28       1.0     0.560892     0.876895     0.124907    Uiso  ? Al
   Al29       1.0     0.110139     0.759565     0.881502    Uiso  ? Al
   Al30       1.0     0.219554     0.873214     0.636633    Uiso  ? Al
   Al31       1.0     0.785022     0.761613     0.382771    Uiso  ? Al
   Al32       1.0     0.888448     0.872680     0.132162    Uiso  ? Al
   Al33       1.0     0.444231     0.761691     0.886751    Uiso  ? Al
   Al34       1.0     0.557048     0.873440     0.636496    Uiso  ? Al
   Mg1        1.0     0.782935     0.423514     0.380038    Uiso  ? Mg
   Hf1        1.0     0.445427     0.761211     0.367564    Uiso  ? Hf
   N1         1.0     0.222686     0.203574     0.328414    Uiso  ? N
   N2         1.0     0.110784     0.096431     0.075200    Uiso  ? N
   N3         1.0     0.889499     0.203131     0.828088    Uiso  ? N
   N4         1.0     0.777388     0.094355     0.577560    Uiso  ? N
   N5         1.0     0.555536     0.205411     0.327619    Uiso  ? N
   N6         1.0     0.442950     0.097474     0.075832    Uiso  ? N
   N7         1.0     0.221871     0.205816     0.826401    Uiso  ? N
   N8         1.0     0.111707     0.093142     0.578820    Uiso  ? N
   N9         1.0     0.894524     0.191482     0.324105    Uiso  ? N
   N10        1.0     0.776730     0.094253     0.076739    Uiso  ? N
   N11        1.0     0.555751     0.204986     0.826543    Uiso  ? N
   N12        1.0     0.444735     0.093749     0.578227    Uiso  ? N
   N13        1.0     0.222573     0.538210     0.328458    Uiso  ? N
   N14        1.0     0.112362     0.426729     0.077181    Uiso  ? N
   N15        1.0     0.890731     0.539425     0.827977    Uiso  ? N
   N16        1.0     0.776596     0.428629     0.591808    Uiso  ? N
   N17        1.0     0.549973     0.526022     0.317596    Uiso  ? N
   N18        1.0     0.442335     0.425723     0.074515    Uiso  ? N
   N19        1.0     0.221321     0.538654     0.826491    Uiso  ? N
   N20        1.0     0.111462     0.427272     0.577147    Uiso  ? N
   N21        1.0     0.895127     0.547719     0.324906    Uiso  ? N
   N22        1.0     0.780390     0.426800     0.075888    Uiso  ? N
   N23        1.0     0.552937     0.540435     0.834129    Uiso  ? N
   N24        1.0     0.444429     0.427921     0.579332    Uiso  ? N
   N25        1.0     0.203923     0.879670     0.321717    Uiso  ? N
   N26        1.0     0.110113     0.759477     0.076285    Uiso  ? N
   N27        1.0     0.889186     0.872645     0.826752    Uiso  ? N
   N28        1.0     0.777185     0.762283     0.579267    Uiso  ? N
   N29        1.0     0.567569     0.882889     0.320958    Uiso  ? N
   N30        1.0     0.444420     0.763080     0.087797    Uiso  ? N
   N31        1.0     0.222542     0.871512     0.832042    Uiso  ? N
   N32        1.0     0.111490     0.761281     0.578117    Uiso  ? N
   N33        1.0     0.888955     0.873330     0.327389    Uiso  ? N
   N34        1.0     0.780305     0.761189     0.074236    Uiso  ? N
   N35        1.0     0.555150     0.872274     0.831691    Uiso  ? N
   N36        1.0     0.444331     0.761287     0.583425    Uiso  ? N
