
#======================================================================
# CRYSTAL DATA
#----------------------------------------------------------------------
data_VESTA_phase_1

_chemical_name_common                  'Al   Mg   Hf   N                      '
_cell_length_a                         9.512733
_cell_length_b                         9.512835
_cell_length_c                         9.918573
_cell_angle_alpha                      89.973999
_cell_angle_beta                       89.984695
_cell_angle_gamma                      59.881794
_cell_volume                           776.383852
_space_group_name_H-M_alt              'P 1'
_space_group_IT_number                 1

loop_
_space_group_symop_operation_xyz
   'x, y, z'

loop_
   _atom_site_label
   _atom_site_occupancy
   _atom_site_fract_x
   _atom_site_fract_y
   _atom_site_fract_z
   _atom_site_adp_type
   _atom_site_U_iso_or_equiv
   _atom_site_type_symbol
   Al1        1.0     0.104773     0.098185     0.325610    Uiso  ? Al
   Al2        1.0     0.221415     0.205960     0.076468    Uiso  ? Al
   Al3        1.0     0.777711     0.094215     0.825801    Uiso  ? Al
   Al4        1.0     0.889049     0.204379     0.575405    Uiso  ? Al
   Al5        1.0     0.444745     0.099551     0.325424    Uiso  ? Al
   Al6        1.0     0.556391     0.205100     0.075968    Uiso  ? Al
   Al7        1.0     0.110248     0.096081     0.826249    Uiso  ? Al
   Al8        1.0     0.221645     0.205847     0.575959    Uiso  ? Al
   Al9        1.0     0.779091     0.094119     0.326724    Uiso  ? Al
   Al10       1.0     0.887409     0.206599     0.074729    Uiso  ? Al
   Al11       1.0     0.443153     0.096701     0.826432    Uiso  ? Al
   Al12       1.0     0.555470     0.205802     0.576014    Uiso  ? Al
   Al13       1.0     0.109874     0.429142     0.326576    Uiso  ? Al
   Al14       1.0     0.221599     0.538302     0.076151    Uiso  ? Al
   Al15       1.0     0.779928     0.426867     0.828163    Uiso  ? Al
   Al16       1.0     0.890011     0.539778     0.575485    Uiso  ? Al
   Al17       1.0     0.443154     0.423557     0.325098    Uiso  ? Al
   Al18       1.0     0.557875     0.535149     0.069355    Uiso  ? Al
   Al19       1.0     0.111344     0.427638     0.825671    Uiso  ? Al
   Al20       1.0     0.222104     0.537784     0.575364    Uiso  ? Al
   Al21       1.0     0.888598     0.538115     0.074925    Uiso  ? Al
   Al22       1.0     0.442711     0.426775     0.826516    Uiso  ? Al
   Al23       1.0     0.557899     0.531634     0.582418    Uiso  ? Al
   Al24       1.0     0.106185     0.760321     0.325880    Uiso  ? Al
   Al25       1.0     0.219025     0.873529     0.071221    Uiso  ? Al
   Al26       1.0     0.780214     0.760379     0.826663    Uiso  ? Al
   Al27       1.0     0.888476     0.872741     0.575578    Uiso  ? Al
   Al28       1.0     0.557313     0.873525     0.071264    Uiso  ? Al
   Al29       1.0     0.110201     0.759831     0.826138    Uiso  ? Al
   Al30       1.0     0.214824     0.875915     0.581451    Uiso  ? Al
   Al31       1.0     0.785253     0.761216     0.325525    Uiso  ? Al
   Al32       1.0     0.888417     0.873304     0.075797    Uiso  ? Al
   Al33       1.0     0.444161     0.761700     0.821734    Uiso  ? Al
   Al34       1.0     0.560269     0.876419     0.582200    Uiso  ? Al
   Mg1        1.0     0.783330     0.423124     0.326763    Uiso  ? Mg
   Hf1        1.0     0.445770     0.760926     0.336583    Uiso  ? Hf
   N1         1.0     0.222613     0.203770     0.382008    Uiso  ? N
   N2         1.0     0.111432     0.093378     0.131841    Uiso  ? N
   N3         1.0     0.889493     0.203328     0.881667    Uiso  ? N
   N4         1.0     0.776741     0.094181     0.633685    Uiso  ? N
   N5         1.0     0.555666     0.205358     0.382828    Uiso  ? N
   N6         1.0     0.444653     0.093788     0.132301    Uiso  ? N
   N7         1.0     0.221920     0.205702     0.883825    Uiso  ? N
   N8         1.0     0.111080     0.096031     0.634856    Uiso  ? N
   N9         1.0     0.894513     0.191504     0.387059    Uiso  ? N
   N10        1.0     0.777543     0.094457     0.132799    Uiso  ? N
   N11        1.0     0.555645     0.205107     0.883772    Uiso  ? N
   N12        1.0     0.443104     0.097174     0.634343    Uiso  ? N
   N13        1.0     0.222551     0.538191     0.381953    Uiso  ? N
   N14        1.0     0.111165     0.427480     0.133081    Uiso  ? N
   N15        1.0     0.890411     0.539507     0.881752    Uiso  ? N
   N16        1.0     0.780070     0.426944     0.634047    Uiso  ? N
   N17        1.0     0.549920     0.526621     0.392741    Uiso  ? N
   N18        1.0     0.444401     0.427990     0.131402    Uiso  ? N
   N19        1.0     0.221470     0.538725     0.883710    Uiso  ? N
   N20        1.0     0.112391     0.426769     0.633269    Uiso  ? N
   N21        1.0     0.895100     0.547508     0.386117    Uiso  ? N
   N22        1.0     0.776711     0.428553     0.118627    Uiso  ? N
   N23        1.0     0.553223     0.540050     0.876417    Uiso  ? N
   N24        1.0     0.442486     0.425925     0.635413    Uiso  ? N
   N25        1.0     0.204807     0.879317     0.388211    Uiso  ? N
   N26        1.0     0.111437     0.761206     0.132411    Uiso  ? N
   N27        1.0     0.889111     0.872534     0.883636    Uiso  ? N
   N28        1.0     0.779950     0.761400     0.635663    Uiso  ? N
   N29        1.0     0.567027     0.882658     0.389192    Uiso  ? N
   N30        1.0     0.444359     0.761031     0.124935    Uiso  ? N
   N31        1.0     0.222252     0.871715     0.878863    Uiso  ? N
   N32        1.0     0.110244     0.759702     0.633868    Uiso  ? N
   N33        1.0     0.888924     0.873423     0.382980    Uiso  ? N
   N34        1.0     0.777283     0.761963     0.131562    Uiso  ? N
   N35        1.0     0.555304     0.872360     0.879086    Uiso  ? N
   N36        1.0     0.444394     0.762925     0.624121    Uiso  ? N
