
#======================================================================
# CRYSTAL DATA
#----------------------------------------------------------------------
data_VESTA_phase_1

_chemical_name_common                  'Al   Mg   Hf   N                      '
_cell_length_a                         9.860929
_cell_length_b                         9.858594
_cell_length_c                         8.885296
_cell_angle_alpha                      89.987549
_cell_angle_beta                       89.998146
_cell_angle_gamma                      59.870975
_cell_volume                           747.083654
_space_group_name_H-M_alt              'P 1'
_space_group_IT_number                 1

loop_
_space_group_symop_operation_xyz
   'x, y, z'

loop_
   _atom_site_label
   _atom_site_occupancy
   _atom_site_fract_x
   _atom_site_fract_y
   _atom_site_fract_z
   _atom_site_adp_type
   _atom_site_U_iso_or_equiv
   _atom_site_type_symbol
   Al1        1.0     0.107462     0.095939     0.337655    Uiso  ? Al
   Al2        1.0     0.222106     0.205550     0.089465    Uiso  ? Al
   Al3        1.0     0.778294     0.094949     0.839243    Uiso  ? Al
   Al4        1.0     0.888633     0.205160     0.585388    Uiso  ? Al
   Al5        1.0     0.445189     0.098177     0.338899    Uiso  ? Al
   Al6        1.0     0.556563     0.204453     0.087934    Uiso  ? Al
   Al7        1.0     0.108075     0.098581     0.840427    Uiso  ? Al
   Al8        1.0     0.221430     0.205777     0.588890    Uiso  ? Al
   Al9        1.0     0.778223     0.093024     0.338633    Uiso  ? Al
   Al10       1.0     0.887454     0.205562     0.093443    Uiso  ? Al
   Al11       1.0     0.442073     0.098504     0.839210    Uiso  ? Al
   Al12       1.0     0.555539     0.205811     0.589536    Uiso  ? Al
   Al13       1.0     0.111682     0.428351     0.339176    Uiso  ? Al
   Al14       1.0     0.221414     0.538260     0.089136    Uiso  ? Al
   Al15       1.0     0.781958     0.425896     0.848123    Uiso  ? Al
   Al16       1.0     0.889535     0.539577     0.585990    Uiso  ? Al
   Al17       1.0     0.442471     0.423820     0.336966    Uiso  ? Al
   Al18       1.0     0.557656     0.534537     0.083197    Uiso  ? Al
   Al19       1.0     0.110384     0.427916     0.838908    Uiso  ? Al
   Al20       1.0     0.222276     0.537449     0.588567    Uiso  ? Al
   Al21       1.0     0.889427     0.538296     0.093513    Uiso  ? Al
   Al22       1.0     0.442055     0.426368     0.840812    Uiso  ? Al
   Al23       1.0     0.558986     0.530469     0.600600    Uiso  ? Al
   Al24       1.0     0.106969     0.760717     0.339390    Uiso  ? Al
   Al25       1.0     0.218113     0.873826     0.080681    Uiso  ? Al
   Al26       1.0     0.782720     0.758362     0.841517    Uiso  ? Al
   Al27       1.0     0.888285     0.872687     0.589563    Uiso  ? Al
   Al28       1.0     0.557602     0.874892     0.081040    Uiso  ? Al
   Al29       1.0     0.109487     0.758581     0.838837    Uiso  ? Al
   Al30       1.0     0.214188     0.876291     0.601984    Uiso  ? Al
   Al31       1.0     0.783452     0.763116     0.336470    Uiso  ? Al
   Al32       1.0     0.888581     0.873913     0.087457    Uiso  ? Al
   Al33       1.0     0.444686     0.761025     0.840120    Uiso  ? Al
   Al34       1.0     0.560883     0.876277     0.601890    Uiso  ? Al
   Mg1        1.0     0.781311     0.425082     0.344875    Uiso  ? Mg
   Hf1        1.0     0.444128     0.762446     0.354230    Uiso  ? Hf
   N1         1.0     0.222829     0.203423     0.368264    Uiso  ? N
   N2         1.0     0.112873     0.092551     0.116813    Uiso  ? N
   N3         1.0     0.889449     0.202748     0.871564    Uiso  ? N
   N4         1.0     0.776953     0.094645     0.620084    Uiso  ? N
   N5         1.0     0.555360     0.205494     0.369136    Uiso  ? N
   N6         1.0     0.444802     0.093979     0.118031    Uiso  ? N
   N7         1.0     0.221681     0.206129     0.870458    Uiso  ? N
   N8         1.0     0.109966     0.097132     0.621948    Uiso  ? N
   N9         1.0     0.894298     0.192204     0.367179    Uiso  ? N
   N10        1.0     0.776523     0.093888     0.118804    Uiso  ? N
   N11        1.0     0.555974     0.204700     0.870007    Uiso  ? N
   N12        1.0     0.442759     0.097679     0.620943    Uiso  ? N
   N13        1.0     0.222531     0.538431     0.368261    Uiso  ? N
   N14        1.0     0.112861     0.426305     0.119935    Uiso  ? N
   N15        1.0     0.891572     0.539118     0.871561    Uiso  ? N
   N16        1.0     0.780909     0.426583     0.622512    Uiso  ? N
   N17        1.0     0.549181     0.528242     0.375450    Uiso  ? N
   N18        1.0     0.444283     0.427225     0.115941    Uiso  ? N
   N19        1.0     0.220873     0.538449     0.870541    Uiso  ? N
   N20        1.0     0.111932     0.426811     0.618923    Uiso  ? N
   N21        1.0     0.894856     0.547516     0.366925    Uiso  ? N
   N22        1.0     0.776560     0.428663     0.103107    Uiso  ? N
   N23        1.0     0.553118     0.539343     0.861622    Uiso  ? N
   N24        1.0     0.442373     0.425627     0.623067    Uiso  ? N
   N25        1.0     0.205226     0.879103     0.375481    Uiso  ? N
   N26        1.0     0.111470     0.761412     0.118186    Uiso  ? N
   N27        1.0     0.889419     0.872997     0.869652    Uiso  ? N
   N28        1.0     0.780867     0.760461     0.623764    Uiso  ? N
   N29        1.0     0.566899     0.881502     0.375260    Uiso  ? N
   N30        1.0     0.444016     0.762513     0.108782    Uiso  ? N
   N31        1.0     0.221117     0.871994     0.861723    Uiso  ? N
   N32        1.0     0.110040     0.759084     0.620553    Uiso  ? N
   N33        1.0     0.889117     0.873002     0.369617    Uiso  ? N
   N34        1.0     0.776815     0.763593     0.115415    Uiso  ? N
   N35        1.0     0.555695     0.873203     0.862481    Uiso  ? N
   N36        1.0     0.444540     0.763097     0.614889    Uiso  ? N
