
#======================================================================
# CRYSTAL DATA
#----------------------------------------------------------------------
data_VESTA_phase_1

_chemical_name_common                  'Al   Mg   Hf   N                      '
_cell_length_a                         9.453443
_cell_length_b                         9.454947
_cell_length_c                         10.071111
_cell_angle_alpha                      90.029251
_cell_angle_beta                       90.027565
_cell_angle_gamma                      59.902031
_cell_volume                           778.802719
_space_group_name_H-M_alt              'P 1'
_space_group_IT_number                 1

loop_
_space_group_symop_operation_xyz
   'x, y, z'

loop_
   _atom_site_label
   _atom_site_occupancy
   _atom_site_fract_x
   _atom_site_fract_y
   _atom_site_fract_z
   _atom_site_adp_type
   _atom_site_U_iso_or_equiv
   _atom_site_type_symbol
   Al1        1.0     0.104789     0.098421     0.389309    Uiso  ? Al
   Al2        1.0     0.221688     0.205950     0.139436    Uiso  ? Al
   Al3        1.0     0.777645     0.094113     0.889592    Uiso  ? Al
   Al4        1.0     0.887566     0.206600     0.641405    Uiso  ? Al
   Al5        1.0     0.444595     0.099674     0.389731    Uiso  ? Al
   Al6        1.0     0.555646     0.205702     0.139360    Uiso  ? Al
   Al7        1.0     0.110408     0.095858     0.889856    Uiso  ? Al
   Al8        1.0     0.221283     0.206035     0.639055    Uiso  ? Al
   Al9        1.0     0.779290     0.094220     0.388593    Uiso  ? Al
   Al10       1.0     0.889122     0.204268     0.139744    Uiso  ? Al
   Al11       1.0     0.443301     0.096551     0.889398    Uiso  ? Al
   Al12       1.0     0.556236     0.205267     0.639330    Uiso  ? Al
   Al13       1.0     0.109629     0.429313     0.388871    Uiso  ? Al
   Al14       1.0     0.222053     0.537943     0.140080    Uiso  ? Al
   Al15       1.0     0.779709     0.426851     0.888662    Uiso  ? Al
   Al16       1.0     0.888408     0.538224     0.641295    Uiso  ? Al
   Al17       1.0     0.443371     0.423750     0.389762    Uiso  ? Al
   Al18       1.0     0.557174     0.533372     0.133539    Uiso  ? Al
   Al19       1.0     0.111386     0.427679     0.889783    Uiso  ? Al
   Al20       1.0     0.221666     0.538359     0.639340    Uiso  ? Al
   Al21       1.0     0.889990     0.539671     0.139832    Uiso  ? Al
   Al22       1.0     0.442852     0.426733     0.889683    Uiso  ? Al
   Al23       1.0     0.558248     0.534164     0.647377    Uiso  ? Al
   Al24       1.0     0.106365     0.760305     0.389277    Uiso  ? Al
   Al25       1.0     0.216668     0.875000     0.134556    Uiso  ? Al
   Al26       1.0     0.779894     0.760637     0.889570    Uiso  ? Al
   Al27       1.0     0.888327     0.873072     0.639409    Uiso  ? Al
   Al28       1.0     0.559224     0.875529     0.133600    Uiso  ? Al
   Al29       1.0     0.110108     0.760082     0.889682    Uiso  ? Al
   Al30       1.0     0.217952     0.874125     0.644865    Uiso  ? Al
   Al31       1.0     0.785267     0.760779     0.389228    Uiso  ? Al
   Al32       1.0     0.888475     0.872822     0.139881    Uiso  ? Al
   Al33       1.0     0.444045     0.761661     0.892114    Uiso  ? Al
   Al34       1.0     0.557717     0.873867     0.644940    Uiso  ? Al
   Mg1        1.0     0.783633     0.422699     0.389767    Uiso  ? Mg
   Hf1        1.0     0.446180     0.760570     0.384694    Uiso  ? Hf
   N1         1.0     0.222541     0.204162     0.331092    Uiso  ? N
   N2         1.0     0.111440     0.095598     0.078815    Uiso  ? N
   N3         1.0     0.889536     0.203511     0.832069    Uiso  ? N
   N4         1.0     0.777674     0.094506     0.580383    Uiso  ? N
   N5         1.0     0.555919     0.205289     0.330226    Uiso  ? N
   N6         1.0     0.443269     0.096806     0.079181    Uiso  ? N
   N7         1.0     0.221960     0.205596     0.829496    Uiso  ? N
   N8         1.0     0.111226     0.093529     0.580950    Uiso  ? N
   N9         1.0     0.894594     0.191483     0.325450    Uiso  ? N
   N10        1.0     0.776811     0.094082     0.079325    Uiso  ? N
   N11        1.0     0.555469     0.205282     0.829411    Uiso  ? N
   N12        1.0     0.444573     0.093715     0.580585    Uiso  ? N
   N13        1.0     0.222560     0.538226     0.331166    Uiso  ? N
   N14        1.0     0.112367     0.426871     0.079789    Uiso  ? N
   N15        1.0     0.890017     0.539647     0.832059    Uiso  ? N
   N16        1.0     0.776708     0.428474     0.594767    Uiso  ? N
   N17        1.0     0.549517     0.528288     0.320530    Uiso  ? N
   N18        1.0     0.442671     0.426153     0.078422    Uiso  ? N
   N19        1.0     0.221639     0.538857     0.829620    Uiso  ? N
   N20        1.0     0.110836     0.427720     0.580261    Uiso  ? N
   N21        1.0     0.895071     0.547133     0.326555    Uiso  ? N
   N22        1.0     0.779759     0.427043     0.079695    Uiso  ? N
   N23        1.0     0.553717     0.539164     0.836997    Uiso  ? N
   N24        1.0     0.444396     0.428101     0.581293    Uiso  ? N
   N25        1.0     0.206752     0.878582     0.325353    Uiso  ? N
   N26        1.0     0.110402     0.759942     0.079695    Uiso  ? N
   N27        1.0     0.889005     0.872365     0.829470    Uiso  ? N
   N28        1.0     0.777152     0.761677     0.581055    Uiso  ? N
   N29        1.0     0.565868     0.881942     0.324137    Uiso  ? N
   N30        1.0     0.444359     0.762672     0.085992    Uiso  ? N
   N31        1.0     0.221403     0.872208     0.834150    Uiso  ? N
   N32        1.0     0.111373     0.761200     0.580469    Uiso  ? N
   N33        1.0     0.888872     0.873496     0.330139    Uiso  ? N
   N34        1.0     0.779526     0.761537     0.078170    Uiso  ? N
   N35        1.0     0.555649     0.872710     0.834063    Uiso  ? N
   N36        1.0     0.444289     0.760758     0.592601    Uiso  ? N
