
#======================================================================
# CRYSTAL DATA
#----------------------------------------------------------------------
data_VESTA_phase_1

_chemical_name_common                  'Al   Mg   Hf   N                      '
_cell_length_a                         9.460686
_cell_length_b                         9.461969
_cell_length_c                         10.053279
_cell_angle_alpha                      89.971245
_cell_angle_beta                       89.975296
_cell_angle_gamma                      59.896683
_cell_volume                           778.555130
_space_group_name_H-M_alt              'P 1'
_space_group_IT_number                 1

loop_
_space_group_symop_operation_xyz
   'x, y, z'

loop_
   _atom_site_label
   _atom_site_occupancy
   _atom_site_fract_x
   _atom_site_fract_y
   _atom_site_fract_z
   _atom_site_adp_type
   _atom_site_U_iso_or_equiv
   _atom_site_type_symbol
   Al1        1.0     0.104760     0.098411     0.323615    Uiso  ? Al
   Al2        1.0     0.221300     0.206031     0.073949    Uiso  ? Al
   Al3        1.0     0.777656     0.094132     0.823389    Uiso  ? Al
   Al4        1.0     0.889109     0.204294     0.573230    Uiso  ? Al
   Al5        1.0     0.444610     0.099676     0.323217    Uiso  ? Al
   Al6        1.0     0.556264     0.205250     0.073642    Uiso  ? Al
   Al7        1.0     0.110402     0.095873     0.823239    Uiso  ? Al
   Al8        1.0     0.221684     0.205931     0.573561    Uiso  ? Al
   Al9        1.0     0.779261     0.094223     0.324393    Uiso  ? Al
   Al10       1.0     0.887545     0.206611     0.071666    Uiso  ? Al
   Al11       1.0     0.443293     0.096559     0.823663    Uiso  ? Al
   Al12       1.0     0.555615     0.205725     0.573631    Uiso  ? Al
   Al13       1.0     0.109655     0.429290     0.324132    Uiso  ? Al
   Al14       1.0     0.221660     0.538349     0.073658    Uiso  ? Al
   Al15       1.0     0.779725     0.426870     0.824509    Uiso  ? Al
   Al16       1.0     0.889991     0.539697     0.573166    Uiso  ? Al
   Al17       1.0     0.443337     0.423719     0.323153    Uiso  ? Al
   Al18       1.0     0.558201     0.534315     0.065833    Uiso  ? Al
   Al19       1.0     0.111388     0.427673     0.823211    Uiso  ? Al
   Al20       1.0     0.222061     0.537928     0.572925    Uiso  ? Al
   Al21       1.0     0.888442     0.538211     0.071792    Uiso  ? Al
   Al22       1.0     0.442844     0.426752     0.823426    Uiso  ? Al
   Al23       1.0     0.557274     0.533131     0.579508    Uiso  ? Al
   Al24       1.0     0.106332     0.760301     0.323670    Uiso  ? Al
   Al25       1.0     0.218122     0.874038     0.068261    Uiso  ? Al
   Al26       1.0     0.779929     0.760617     0.823540    Uiso  ? Al
   Al27       1.0     0.888481     0.872817     0.573119    Uiso  ? Al
   Al28       1.0     0.557667     0.873812     0.068201    Uiso  ? Al
   Al29       1.0     0.110137     0.760058     0.823379    Uiso  ? Al
   Al30       1.0     0.216402     0.875134     0.578486    Uiso  ? Al
   Al31       1.0     0.785286     0.760839     0.323675    Uiso  ? Al
   Al32       1.0     0.888345     0.873113     0.073552    Uiso  ? Al
   Al33       1.0     0.444067     0.761672     0.820635    Uiso  ? Al
   Al34       1.0     0.559377     0.875665     0.579419    Uiso  ? Al
   Mg1        1.0     0.783608     0.422758     0.323358    Uiso  ? Mg
   Hf1        1.0     0.446131     0.760622     0.329134    Uiso  ? Hf
   N1         1.0     0.222548     0.204101     0.381652    Uiso  ? N
   N2         1.0     0.111249     0.093524     0.131753    Uiso  ? N
   N3         1.0     0.889529     0.203493     0.880746    Uiso  ? N
   N4         1.0     0.776800     0.094104     0.633400    Uiso  ? N
   N5         1.0     0.555878     0.205301     0.382512    Uiso  ? N
   N6         1.0     0.444587     0.093739     0.132125    Uiso  ? N
   N7         1.0     0.221959     0.205609     0.883276    Uiso  ? N
   N8         1.0     0.111396     0.095654     0.634013    Uiso  ? N
   N9         1.0     0.894573     0.191499     0.387236    Uiso  ? N
   N10        1.0     0.777665     0.094512     0.132372    Uiso  ? N
   N11        1.0     0.555499     0.205260     0.883340    Uiso  ? N
   N12        1.0     0.443253     0.096858     0.633628    Uiso  ? N
   N13        1.0     0.222556     0.538218     0.381582    Uiso  ? N
   N14        1.0     0.110883     0.427693     0.132516    Uiso  ? N
   N15        1.0     0.890072     0.539630     0.880769    Uiso  ? N
   N16        1.0     0.779794     0.427045     0.633139    Uiso  ? N
   N17        1.0     0.549591     0.528015     0.392241    Uiso  ? N
   N18        1.0     0.444400     0.428089     0.131397    Uiso  ? N
   N19        1.0     0.221620     0.538838     0.883152    Uiso  ? N
   N20        1.0     0.112377     0.426859     0.632948    Uiso  ? N
   N21        1.0     0.895072     0.547193     0.386152    Uiso  ? N
   N22        1.0     0.776727     0.428489     0.118026    Uiso  ? N
   N23        1.0     0.553646     0.539309     0.875823    Uiso  ? N
   N24        1.0     0.442651     0.426133     0.634429    Uiso  ? N
   N25        1.0     0.206447     0.878696     0.387443    Uiso  ? N
   N26        1.0     0.111387     0.761198     0.132240    Uiso  ? N
   N27        1.0     0.889023     0.872394     0.883271    Uiso  ? N
   N28        1.0     0.779585     0.761535     0.634678    Uiso  ? N
   N29        1.0     0.566052     0.882066     0.388633    Uiso  ? N
   N30        1.0     0.444313     0.760796     0.120836    Uiso  ? N
   N31        1.0     0.221550     0.872129     0.878617    Uiso  ? N
   N32        1.0     0.110387     0.759919     0.633120    Uiso  ? N
   N33        1.0     0.888882     0.873495     0.382605    Uiso  ? N
   N34        1.0     0.777196     0.761713     0.131627    Uiso  ? N
   N35        1.0     0.555599     0.872651     0.878720    Uiso  ? N
   N36        1.0     0.444368     0.762715     0.626310    Uiso  ? N
