
#======================================================================
# CRYSTAL DATA
#----------------------------------------------------------------------
data_VESTA_phase_1

_chemical_name_common                  'Al   Mg   Hf   N                      '
_cell_length_a                         9.453003
_cell_length_b                         9.454506
_cell_length_c                         10.072151
_cell_angle_alpha                      90.029358
_cell_angle_beta                       90.028015
_cell_angle_gamma                      59.902695
_cell_volume                           778.815809
_space_group_name_H-M_alt              'P 1'
_space_group_IT_number                 1

loop_
_space_group_symop_operation_xyz
   'x, y, z'

loop_
   _atom_site_label
   _atom_site_occupancy
   _atom_site_fract_x
   _atom_site_fract_y
   _atom_site_fract_z
   _atom_site_adp_type
   _atom_site_U_iso_or_equiv
   _atom_site_type_symbol
   Al1        1.0     0.104791     0.098412     0.400307    Uiso  ? Al
   Al2        1.0     0.221684     0.205946     0.150440    Uiso  ? Al
   Al3        1.0     0.777640     0.094105     0.900593    Uiso  ? Al
   Al4        1.0     0.887562     0.206592     0.652408    Uiso  ? Al
   Al5        1.0     0.444591     0.099665     0.400730    Uiso  ? Al
   Al6        1.0     0.555646     0.205692     0.150364    Uiso  ? Al
   Al7        1.0     0.110401     0.095852     0.900868    Uiso  ? Al
   Al8        1.0     0.221277     0.206028     0.650060    Uiso  ? Al
   Al9        1.0     0.779288     0.094210     0.399598    Uiso  ? Al
   Al10       1.0     0.889120     0.204257     0.150749    Uiso  ? Al
   Al11       1.0     0.443296     0.096545     0.900409    Uiso  ? Al
   Al12       1.0     0.556228     0.205262     0.650332    Uiso  ? Al
   Al13       1.0     0.109625     0.429308     0.399878    Uiso  ? Al
   Al14       1.0     0.222049     0.537937     0.151083    Uiso  ? Al
   Al15       1.0     0.779705     0.426839     0.899680    Uiso  ? Al
   Al16       1.0     0.888398     0.538217     0.652299    Uiso  ? Al
   Al17       1.0     0.443370     0.423747     0.400758    Uiso  ? Al
   Al18       1.0     0.557162     0.533384     0.144541    Uiso  ? Al
   Al19       1.0     0.111379     0.427674     0.900785    Uiso  ? Al
   Al20       1.0     0.221662     0.538354     0.650344    Uiso  ? Al
   Al21       1.0     0.889987     0.539660     0.150840    Uiso  ? Al
   Al22       1.0     0.442847     0.426722     0.900698    Uiso  ? Al
   Al23       1.0     0.558248     0.534143     0.658400    Uiso  ? Al
   Al24       1.0     0.106364     0.760299     0.400275    Uiso  ? Al
   Al25       1.0     0.216687     0.874982     0.145555    Uiso  ? Al
   Al26       1.0     0.779888     0.760629     0.900584    Uiso  ? Al
   Al27       1.0     0.888320     0.873060     0.650410    Uiso  ? Al
   Al28       1.0     0.559207     0.875509     0.144598    Uiso  ? Al
   Al29       1.0     0.110099     0.760076     0.900692    Uiso  ? Al
   Al30       1.0     0.217932     0.874126     0.655882    Uiso  ? Al
   Al31       1.0     0.785259     0.760768     0.400224    Uiso  ? Al
   Al32       1.0     0.888471     0.872814     0.150884    Uiso  ? Al
   Al33       1.0     0.444038     0.761652     0.903092    Uiso  ? Al
   Al34       1.0     0.557715     0.873865     0.655959    Uiso  ? Al
   Mg1        1.0     0.783628     0.422688     0.400773    Uiso  ? Mg
   Hf1        1.0     0.446180     0.760554     0.395763    Uiso  ? Hf
   N1         1.0     0.222537     0.204161     0.342079    Uiso  ? N
   N2         1.0     0.111439     0.095588     0.089808    Uiso  ? N
   N3         1.0     0.889532     0.203504     0.843056    Uiso  ? N
   N4         1.0     0.777668     0.094497     0.591371    Uiso  ? N
   N5         1.0     0.555920     0.205279     0.341213    Uiso  ? N
   N6         1.0     0.443266     0.096795     0.090174    Uiso  ? N
   N7         1.0     0.221956     0.205588     0.840485    Uiso  ? N
   N8         1.0     0.111221     0.093522     0.591933    Uiso  ? N
   N9         1.0     0.894594     0.191471     0.336436    Uiso  ? N
   N10        1.0     0.776808     0.094072     0.090309    Uiso  ? N
   N11        1.0     0.555462     0.205276     0.840398    Uiso  ? N
   N12        1.0     0.444567     0.093705     0.591568    Uiso  ? N
   N13        1.0     0.222557     0.538220     0.342152    Uiso  ? N
   N14        1.0     0.112361     0.426865     0.090773    Uiso  ? N
   N15        1.0     0.890006     0.539641     0.843047    Uiso  ? N
   N16        1.0     0.776699     0.428465     0.605752    Uiso  ? N
   N17        1.0     0.549504     0.528308     0.331515    Uiso  ? N
   N18        1.0     0.442668     0.426145     0.089417    Uiso  ? N
   N19        1.0     0.221635     0.538852     0.840608    Uiso  ? N
   N20        1.0     0.110828     0.427715     0.591251    Uiso  ? N
   N21        1.0     0.895069     0.547121     0.337542    Uiso  ? N
   N22        1.0     0.779754     0.427033     0.090690    Uiso  ? N
   N23        1.0     0.553720     0.539142     0.847992    Uiso  ? N
   N24        1.0     0.444391     0.428094     0.592274    Uiso  ? N
   N25        1.0     0.206773     0.878566     0.336339    Uiso  ? N
   N26        1.0     0.110398     0.759935     0.090686    Uiso  ? N
   N27        1.0     0.888998     0.872354     0.840457    Uiso  ? N
   N28        1.0     0.777140     0.761668     0.592035    Uiso  ? N
   N29        1.0     0.565849     0.881925     0.335121    Uiso  ? N
   N30        1.0     0.444354     0.762660     0.096937    Uiso  ? N
   N31        1.0     0.221383     0.872208     0.845141    Uiso  ? N
   N32        1.0     0.111365     0.761194     0.591452    Uiso  ? N
   N33        1.0     0.888867     0.873489     0.341125    Uiso  ? N
   N34        1.0     0.779518     0.761527     0.089165    Uiso  ? N
   N35        1.0     0.555648     0.872710     0.845056    Uiso  ? N
   N36        1.0     0.444281     0.760749     0.603647    Uiso  ? N
