
#======================================================================
# CRYSTAL DATA
#----------------------------------------------------------------------
data_VESTA_phase_1

_chemical_name_common                  'Al   Mg   Hf   N                      '
_cell_length_a                         9.979451
_cell_length_b                         9.976871
_cell_length_c                         8.516293
_cell_angle_alpha                      89.993828
_cell_angle_beta                       89.999710
_cell_angle_gamma                      59.871876
_cell_volume                           733.364773
_space_group_name_H-M_alt              'P 1'
_space_group_IT_number                 1

loop_
_space_group_symop_operation_xyz
   'x, y, z'

loop_
   _atom_site_label
   _atom_site_occupancy
   _atom_site_fract_x
   _atom_site_fract_y
   _atom_site_fract_z
   _atom_site_adp_type
   _atom_site_U_iso_or_equiv
   _atom_site_type_symbol
   Al1        1.0     0.107452     0.096439     0.349341    Uiso  ? Al
   Al2        1.0     0.222012     0.205447     0.099459    Uiso  ? Al
   Al3        1.0     0.778309     0.095028     0.850042    Uiso  ? Al
   Al4        1.0     0.888033     0.205606     0.596584    Uiso  ? Al
   Al5        1.0     0.444758     0.098551     0.349949    Uiso  ? Al
   Al6        1.0     0.556259     0.204804     0.097967    Uiso  ? Al
   Al7        1.0     0.108210     0.098083     0.850407    Uiso  ? Al
   Al8        1.0     0.221579     0.205712     0.600304    Uiso  ? Al
   Al9        1.0     0.778225     0.093115     0.349261    Uiso  ? Al
   Al10       1.0     0.887668     0.205661     0.103852    Uiso  ? Al
   Al11       1.0     0.442361     0.097972     0.849698    Uiso  ? Al
   Al12       1.0     0.555996     0.205353     0.601191    Uiso  ? Al
   Al13       1.0     0.111709     0.428358     0.349665    Uiso  ? Al
   Al14       1.0     0.221735     0.538021     0.099075    Uiso  ? Al
   Al15       1.0     0.781447     0.426162     0.853691    Uiso  ? Al
   Al16       1.0     0.889312     0.539020     0.596992    Uiso  ? Al
   Al17       1.0     0.442107     0.423855     0.349073    Uiso  ? Al
   Al18       1.0     0.558669     0.532449     0.094496    Uiso  ? Al
   Al19       1.0     0.110268     0.427872     0.850067    Uiso  ? Al
   Al20       1.0     0.222013     0.537666     0.600357    Uiso  ? Al
   Al21       1.0     0.889275     0.538566     0.103792    Uiso  ? Al
   Al22       1.0     0.442516     0.426735     0.850585    Uiso  ? Al
   Al23       1.0     0.559085     0.531337     0.608761    Uiso  ? Al
   Al24       1.0     0.107106     0.760331     0.350094    Uiso  ? Al
   Al25       1.0     0.216448     0.874819     0.090580    Uiso  ? Al
   Al26       1.0     0.782301     0.758564     0.850798    Uiso  ? Al
   Al27       1.0     0.888287     0.873181     0.601087    Uiso  ? Al
   Al28       1.0     0.558830     0.875610     0.090792    Uiso  ? Al
   Al29       1.0     0.109699     0.758942     0.849477    Uiso  ? Al
   Al30       1.0     0.215280     0.875614     0.610737    Uiso  ? Al
   Al31       1.0     0.783728     0.762583     0.348513    Uiso  ? Al
   Al32       1.0     0.888474     0.873636     0.097709    Uiso  ? Al
   Al33       1.0     0.444823     0.760678     0.851495    Uiso  ? Al
   Al34       1.0     0.559999     0.875789     0.610787    Uiso  ? Al
   Mg1        1.0     0.781746     0.424985     0.352414    Uiso  ? Mg
   Hf1        1.0     0.443937     0.762698     0.355050    Uiso  ? Hf
   N1         1.0     0.222777     0.203733     0.358420    Uiso  ? N
   N2         1.0     0.112117     0.093797     0.106722    Uiso  ? N
   N3         1.0     0.889385     0.203222     0.859940    Uiso  ? N
   N4         1.0     0.776871     0.094506     0.610039    Uiso  ? N
   N5         1.0     0.555568     0.205282     0.358890    Uiso  ? N
   N6         1.0     0.444256     0.095035     0.107401    Uiso  ? N
   N7         1.0     0.221701     0.205860     0.859197    Uiso  ? N
   N8         1.0     0.110750     0.095704     0.610872    Uiso  ? N
   N9         1.0     0.893917     0.192837     0.357322    Uiso  ? N
   N10        1.0     0.776547     0.094147     0.107744    Uiso  ? N
   N11        1.0     0.555727     0.204953     0.858991    Uiso  ? N
   N12        1.0     0.443468     0.096421     0.610336    Uiso  ? N
   N13        1.0     0.222249     0.538574     0.358471    Uiso  ? N
   N14        1.0     0.112694     0.426338     0.108879    Uiso  ? N
   N15        1.0     0.891097     0.539201     0.859913    Uiso  ? N
   N16        1.0     0.779450     0.427272     0.615834    Uiso  ? N
   N17        1.0     0.549408     0.529540     0.359997    Uiso  ? N
   N18        1.0     0.443753     0.426613     0.105906    Uiso  ? N
   N19        1.0     0.221081     0.538416     0.859215    Uiso  ? N
   N20        1.0     0.112104     0.426665     0.608713    Uiso  ? N
   N21        1.0     0.894813     0.546781     0.357222    Uiso  ? N
   N22        1.0     0.777795     0.428057     0.096832    Uiso  ? N
   N23        1.0     0.553399     0.538683     0.855887    Uiso  ? N
   N24        1.0     0.443164     0.426198     0.611664    Uiso  ? N
   N25        1.0     0.206727     0.878389     0.361414    Uiso  ? N
   N26        1.0     0.111082     0.760782     0.107564    Uiso  ? N
   N27        1.0     0.889410     0.872814     0.858977    Uiso  ? N
   N28        1.0     0.779539     0.761419     0.612451    Uiso  ? N
   N29        1.0     0.565771     0.880725     0.361122    Uiso  ? N
   N30        1.0     0.444081     0.762870     0.098456    Uiso  ? N
   N31        1.0     0.220480     0.872349     0.855672    Uiso  ? N
   N32        1.0     0.110495     0.759873     0.610152    Uiso  ? N
   N33        1.0     0.889224     0.873086     0.359100    Uiso  ? N
   N34        1.0     0.777884     0.762842     0.105496    Uiso  ? N
   N35        1.0     0.556153     0.873412     0.856017    Uiso  ? N
   N36        1.0     0.444433     0.762847     0.613412    Uiso  ? N
