
#======================================================================
# CRYSTAL DATA
#----------------------------------------------------------------------
data_VESTA_phase_1

_chemical_name_common                  'Al   Mg   Hf   N                      '
_cell_length_a                         9.674041
_cell_length_b                         9.672515
_cell_length_c                         9.461946
_cell_angle_alpha                      89.980942
_cell_angle_beta                       89.994217
_cell_angle_gamma                      59.871948
_cell_volume                           765.766889
_space_group_name_H-M_alt              'P 1'
_space_group_IT_number                 1

loop_
_space_group_symop_operation_xyz
   'x, y, z'

loop_
   _atom_site_label
   _atom_site_occupancy
   _atom_site_fract_x
   _atom_site_fract_y
   _atom_site_fract_z
   _atom_site_adp_type
   _atom_site_U_iso_or_equiv
   _atom_site_type_symbol
   Al1        1.0     0.105964     0.096913     0.328924    Uiso  ? Al
   Al2        1.0     0.221818     0.205722     0.080841    Uiso  ? Al
   Al3        1.0     0.777966     0.094512     0.830061    Uiso  ? Al
   Al4        1.0     0.888953     0.204662     0.578072    Uiso  ? Al
   Al5        1.0     0.445166     0.098727     0.329509    Uiso  ? Al
   Al6        1.0     0.556563     0.204702     0.079886    Uiso  ? Al
   Al7        1.0     0.109256     0.097368     0.831245    Uiso  ? Al
   Al8        1.0     0.221496     0.205865     0.579857    Uiso  ? Al
   Al9        1.0     0.778696     0.093533     0.330397    Uiso  ? Al
   Al10       1.0     0.887340     0.206104     0.081302    Uiso  ? Al
   Al11       1.0     0.442519     0.097700     0.830736    Uiso  ? Al
   Al12       1.0     0.555364     0.205892     0.580094    Uiso  ? Al
   Al13       1.0     0.110747     0.428784     0.330570    Uiso  ? Al
   Al14       1.0     0.221465     0.538337     0.080537    Uiso  ? Al
   Al15       1.0     0.781064     0.426378     0.836246    Uiso  ? Al
   Al16       1.0     0.889951     0.539780     0.578455    Uiso  ? Al
   Al17       1.0     0.442892     0.423643     0.328320    Uiso  ? Al
   Al18       1.0     0.557254     0.536016     0.074052    Uiso  ? Al
   Al19       1.0     0.110983     0.427735     0.829855    Uiso  ? Al
   Al20       1.0     0.222226     0.537469     0.579360    Uiso  ? Al
   Al21       1.0     0.889020     0.538133     0.081518    Uiso  ? Al
   Al22       1.0     0.442173     0.426493     0.831677    Uiso  ? Al
   Al23       1.0     0.558907     0.529678     0.588946    Uiso  ? Al
   Al24       1.0     0.106417     0.760654     0.330008    Uiso  ? Al
   Al25       1.0     0.219716     0.873055     0.074263    Uiso  ? Al
   Al26       1.0     0.781537     0.759369     0.832072    Uiso  ? Al
   Al27       1.0     0.888379     0.872601     0.579928    Uiso  ? Al
   Al28       1.0     0.556871     0.873686     0.074542    Uiso  ? Al
   Al29       1.0     0.109874     0.759061     0.830392    Uiso  ? Al
   Al30       1.0     0.213029     0.876870     0.588786    Uiso  ? Al
   Al31       1.0     0.784360     0.762345     0.328349    Uiso  ? Al
   Al32       1.0     0.888544     0.873683     0.079485    Uiso  ? Al
   Al33       1.0     0.444369     0.761566     0.825591    Uiso  ? Al
   Al34       1.0     0.561405     0.877126     0.588996    Uiso  ? Al
   Mg1        1.0     0.782132     0.424231     0.333672    Uiso  ? Mg
   Hf1        1.0     0.444863     0.761688     0.347860    Uiso  ? Hf
   N1         1.0     0.222787     0.203389     0.377194    Uiso  ? N
   N2         1.0     0.112289     0.092674     0.126413    Uiso  ? N
   N3         1.0     0.889544     0.202767     0.878885    Uiso  ? N
   N4         1.0     0.776780     0.094409     0.628922    Uiso  ? N
   N5         1.0     0.555388     0.205492     0.377989    Uiso  ? N
   N6         1.0     0.444874     0.093647     0.127289    Uiso  ? N
   N7         1.0     0.221775     0.206016     0.879523    Uiso  ? N
   N8         1.0     0.110299     0.097062     0.630878    Uiso  ? N
   N9         1.0     0.894549     0.191546     0.379735    Uiso  ? N
   N10        1.0     0.777053     0.094133     0.128129    Uiso  ? N
   N11        1.0     0.555901     0.204810     0.879235    Uiso  ? N
   N12        1.0     0.442708     0.097884     0.630039    Uiso  ? N
   N13        1.0     0.222617     0.538280     0.377157    Uiso  ? N
   N14        1.0     0.112044     0.426878     0.128793    Uiso  ? N
   N15        1.0     0.891264     0.539320     0.878991    Uiso  ? N
   N16        1.0     0.780913     0.426561     0.630492    Uiso  ? N
   N17        1.0     0.549688     0.526219     0.387881    Uiso  ? N
   N18        1.0     0.444483     0.427771     0.125757    Uiso  ? N
   N19        1.0     0.221076     0.538558     0.879494    Uiso  ? N
   N20        1.0     0.112227     0.426732     0.628308    Uiso  ? N
   N21        1.0     0.895096     0.547889     0.379171    Uiso  ? N
   N22        1.0     0.776365     0.428748     0.113137    Uiso  ? N
   N23        1.0     0.552707     0.540470     0.870848    Uiso  ? N
   N24        1.0     0.442144     0.425470     0.631772    Uiso  ? N
   N25        1.0     0.203624     0.879797     0.384858    Uiso  ? N
   N26        1.0     0.111566     0.761448     0.127410    Uiso  ? N
   N27        1.0     0.889301     0.872824     0.878907    Uiso  ? N
   N28        1.0     0.780841     0.760751     0.632165    Uiso  ? N
   N29        1.0     0.567802     0.882700     0.385209    Uiso  ? N
   N30        1.0     0.444214     0.761758     0.122773    Uiso  ? N
   N31        1.0     0.222378     0.871492     0.872225    Uiso  ? N
   N32        1.0     0.109945     0.759120     0.629604    Uiso  ? N
   N33        1.0     0.889006     0.873162     0.378368    Uiso  ? N
   N34        1.0     0.776871     0.762933     0.125612    Uiso  ? N
   N35        1.0     0.555162     0.872456     0.872817    Uiso  ? N
   N36        1.0     0.444472     0.763235     0.617687    Uiso  ? N
