
#======================================================================
# CRYSTAL DATA
#----------------------------------------------------------------------
data_VESTA_phase_1

_chemical_name_common                  'Al   Mg   Hf   N                      '
_cell_length_a                         9.453003
_cell_length_b                         9.454503
_cell_length_c                         10.072150
_cell_angle_alpha                      89.970596
_cell_angle_beta                       89.971870
_cell_angle_gamma                      59.902817
_cell_volume                           778.816461
_space_group_name_H-M_alt              'P 1'
_space_group_IT_number                 1

loop_
_space_group_symop_operation_xyz
   'x, y, z'

loop_
   _atom_site_label
   _atom_site_occupancy
   _atom_site_fract_x
   _atom_site_fract_y
   _atom_site_fract_z
   _atom_site_adp_type
   _atom_site_U_iso_or_equiv
   _atom_site_type_symbol
   Al1        1.0     0.104808     0.098439     0.305324    Uiso  ? Al
   Al2        1.0     0.221293     0.206054     0.055573    Uiso  ? Al
   Al3        1.0     0.777657     0.094130     0.805039    Uiso  ? Al
   Al4        1.0     0.889137     0.204283     0.554885    Uiso  ? Al
   Al5        1.0     0.444607     0.099691     0.304901    Uiso  ? Al
   Al6        1.0     0.556245     0.205287     0.055300    Uiso  ? Al
   Al7        1.0     0.110419     0.095877     0.804763    Uiso  ? Al
   Al8        1.0     0.221701     0.205971     0.555191    Uiso  ? Al
   Al9        1.0     0.779306     0.094237     0.306035    Uiso  ? Al
   Al10       1.0     0.887579     0.206617     0.053220    Uiso  ? Al
   Al11       1.0     0.443313     0.096570     0.805224    Uiso  ? Al
   Al12       1.0     0.555663     0.205718     0.555268    Uiso  ? Al
   Al13       1.0     0.109641     0.429334     0.305755    Uiso  ? Al
   Al14       1.0     0.221678     0.538380     0.055288    Uiso  ? Al
   Al15       1.0     0.779721     0.426866     0.805953    Uiso  ? Al
   Al16       1.0     0.890004     0.539687     0.554794    Uiso  ? Al
   Al17       1.0     0.443387     0.423772     0.304872    Uiso  ? Al
   Al18       1.0     0.558264     0.534170     0.047231    Uiso  ? Al
   Al19       1.0     0.111396     0.427700     0.804846    Uiso  ? Al
   Al20       1.0     0.222066     0.537963     0.554547    Uiso  ? Al
   Al21       1.0     0.888415     0.538244     0.053329    Uiso  ? Al
   Al22       1.0     0.442863     0.426749     0.804935    Uiso  ? Al
   Al23       1.0     0.557180     0.533409     0.561087    Uiso  ? Al
   Al24       1.0     0.106380     0.760326     0.305356    Uiso  ? Al
   Al25       1.0     0.217948     0.874152     0.049750    Uiso  ? Al
   Al26       1.0     0.779904     0.760656     0.805048    Uiso  ? Al
   Al27       1.0     0.888488     0.872840     0.554747    Uiso  ? Al
   Al28       1.0     0.557731     0.873892     0.049674    Uiso  ? Al
   Al29       1.0     0.110116     0.760103     0.804940    Uiso  ? Al
   Al30       1.0     0.216703     0.875008     0.560072    Uiso  ? Al
   Al31       1.0     0.785276     0.760793     0.305407    Uiso  ? Al
   Al32       1.0     0.888336     0.873087     0.055222    Uiso  ? Al
   Al33       1.0     0.444054     0.761678     0.802536    Uiso  ? Al
   Al34       1.0     0.559224     0.875536     0.561029    Uiso  ? Al
   Mg1        1.0     0.783647     0.422713     0.304856    Uiso  ? Mg
   Hf1        1.0     0.446196     0.760586     0.309867    Uiso  ? Hf
   N1         1.0     0.222554     0.204188     0.363552    Uiso  ? N
   N2         1.0     0.111236     0.093548     0.113698    Uiso  ? N
   N3         1.0     0.889549     0.203530     0.862572    Uiso  ? N
   N4         1.0     0.776825     0.094098     0.615322    Uiso  ? N
   N5         1.0     0.555936     0.205307     0.364418    Uiso  ? N
   N6         1.0     0.444583     0.093732     0.114062    Uiso  ? N
   N7         1.0     0.221972     0.205615     0.865146    Uiso  ? N
   N8         1.0     0.111456     0.095614     0.615823    Uiso  ? N
   N9         1.0     0.894610     0.191499     0.369197    Uiso  ? N
   N10        1.0     0.777685     0.094524     0.114260    Uiso  ? N
   N11        1.0     0.555479     0.205303     0.865233    Uiso  ? N
   N12        1.0     0.443283     0.096821     0.615457    Uiso  ? N
   N13        1.0     0.222574     0.538247     0.363478    Uiso  ? N
   N14        1.0     0.110843     0.427742     0.114380    Uiso  ? N
   N15        1.0     0.890023     0.539667     0.862581    Uiso  ? N
   N16        1.0     0.779770     0.427059     0.614941    Uiso  ? N
   N17        1.0     0.549523     0.528330     0.374113    Uiso  ? N
   N18        1.0     0.444407     0.428121     0.113355    Uiso  ? N
   N19        1.0     0.221652     0.538879     0.865022    Uiso  ? N
   N20        1.0     0.112378     0.426891     0.614857    Uiso  ? N
   N21        1.0     0.895086     0.547147     0.368090    Uiso  ? N
   N22        1.0     0.776716     0.428491     0.099876    Uiso  ? N
   N23        1.0     0.553736     0.539170     0.857639    Uiso  ? N
   N24        1.0     0.442685     0.426172     0.616213    Uiso  ? N
   N25        1.0     0.206790     0.878592     0.369289    Uiso  ? N
   N26        1.0     0.111382     0.761220     0.114179    Uiso  ? N
   N27        1.0     0.889015     0.872380     0.865174    Uiso  ? N
   N28        1.0     0.779534     0.761554     0.616466    Uiso  ? N
   N29        1.0     0.565866     0.881950     0.370506    Uiso  ? N
   N30        1.0     0.444297     0.760774     0.101984    Uiso  ? N
   N31        1.0     0.221401     0.872234     0.860490    Uiso  ? N
   N32        1.0     0.110415     0.759961     0.614944    Uiso  ? N
   N33        1.0     0.888884     0.873515     0.364505    Uiso  ? N
   N34        1.0     0.777157     0.761693     0.113595    Uiso  ? N
   N35        1.0     0.555665     0.872735     0.860575    Uiso  ? N
   N36        1.0     0.444371     0.762686     0.608690    Uiso  ? N
