
#======================================================================
# CRYSTAL DATA
#----------------------------------------------------------------------
data_VESTA_phase_1

_chemical_name_common                  'Al   Mg   Hf   N                      '
_cell_length_a                         9.979426
_cell_length_b                         9.976850
_cell_length_c                         8.516354
_cell_angle_alpha                      90.006195
_cell_angle_beta                       90.000290
_cell_angle_gamma                      59.871853
_cell_volume                           733.366494
_space_group_name_H-M_alt              'P 1'
_space_group_IT_number                 1

loop_
_space_group_symop_operation_xyz
   'x, y, z'

loop_
   _atom_site_label
   _atom_site_occupancy
   _atom_site_fract_x
   _atom_site_fract_y
   _atom_site_fract_z
   _atom_site_adp_type
   _atom_site_U_iso_or_equiv
   _atom_site_type_symbol
   Al1        1.0     0.107453     0.096439     0.359609    Uiso  ? Al
   Al2        1.0     0.221579     0.205712     0.108646    Uiso  ? Al
   Al3        1.0     0.778310     0.095029     0.858906    Uiso  ? Al
   Al4        1.0     0.887668     0.205661     0.605082    Uiso  ? Al
   Al5        1.0     0.444758     0.098552     0.359002    Uiso  ? Al
   Al6        1.0     0.555996     0.205354     0.107754    Uiso  ? Al
   Al7        1.0     0.108209     0.098083     0.858540    Uiso  ? Al
   Al8        1.0     0.222012     0.205447     0.609494    Uiso  ? Al
   Al9        1.0     0.778223     0.093114     0.359689    Uiso  ? Al
   Al10       1.0     0.888033     0.205605     0.112361    Uiso  ? Al
   Al11       1.0     0.442361     0.097970     0.859254    Uiso  ? Al
   Al12       1.0     0.556259     0.204803     0.610989    Uiso  ? Al
   Al13       1.0     0.111711     0.428358     0.359286    Uiso  ? Al
   Al14       1.0     0.222013     0.537666     0.108593    Uiso  ? Al
   Al15       1.0     0.781446     0.426162     0.855243    Uiso  ? Al
   Al16       1.0     0.889276     0.538566     0.605142    Uiso  ? Al
   Al17       1.0     0.442106     0.423854     0.359879    Uiso  ? Al
   Al18       1.0     0.559085     0.531337     0.100184    Uiso  ? Al
   Al19       1.0     0.110266     0.427872     0.858883    Uiso  ? Al
   Al20       1.0     0.221734     0.538021     0.609880    Uiso  ? Al
   Al21       1.0     0.889311     0.539020     0.111954    Uiso  ? Al
   Al22       1.0     0.442517     0.426736     0.858360    Uiso  ? Al
   Al23       1.0     0.558669     0.532448     0.614436    Uiso  ? Al
   Al24       1.0     0.107105     0.760331     0.358857    Uiso  ? Al
   Al25       1.0     0.215280     0.875615     0.098211    Uiso  ? Al
   Al26       1.0     0.782301     0.758562     0.858144    Uiso  ? Al
   Al27       1.0     0.888475     0.873636     0.611245    Uiso  ? Al
   Al28       1.0     0.560000     0.875788     0.098160    Uiso  ? Al
   Al29       1.0     0.109700     0.758942     0.859476    Uiso  ? Al
   Al30       1.0     0.216448     0.874818     0.618366    Uiso  ? Al
   Al31       1.0     0.783728     0.762585     0.360435    Uiso  ? Al
   Al32       1.0     0.888287     0.873181     0.107859    Uiso  ? Al
   Al33       1.0     0.444824     0.760676     0.857445    Uiso  ? Al
   Al34       1.0     0.558829     0.875610     0.618151    Uiso  ? Al
   Mg1        1.0     0.781746     0.424984     0.356524    Uiso  ? Mg
   Hf1        1.0     0.443936     0.762700     0.353892    Uiso  ? Hf
   N1         1.0     0.222778     0.203733     0.350521    Uiso  ? N
   N2         1.0     0.110749     0.095705     0.098070    Uiso  ? N
   N3         1.0     0.889385     0.203223     0.848999    Uiso  ? N
   N4         1.0     0.776547     0.094147     0.601198    Uiso  ? N
   N5         1.0     0.555568     0.205282     0.350051    Uiso  ? N
   N6         1.0     0.443468     0.096421     0.098605    Uiso  ? N
   N7         1.0     0.221700     0.205860     0.849746    Uiso  ? N
   N8         1.0     0.112118     0.093797     0.602219    Uiso  ? N
   N9         1.0     0.893917     0.192836     0.351622    Uiso  ? N
   N10        1.0     0.776871     0.094507     0.098902    Uiso  ? N
   N11        1.0     0.555727     0.204952     0.849952    Uiso  ? N
   N12        1.0     0.444255     0.095035     0.601542    Uiso  ? N
   N13        1.0     0.222249     0.538574     0.350471    Uiso  ? N
   N14        1.0     0.112103     0.426665     0.100229    Uiso  ? N
   N15        1.0     0.891097     0.539200     0.849025    Uiso  ? N
   N16        1.0     0.777796     0.428056     0.612104    Uiso  ? N
   N17        1.0     0.549406     0.529540     0.348950    Uiso  ? N
   N18        1.0     0.443165     0.426199     0.097276    Uiso  ? N
   N19        1.0     0.221081     0.538416     0.849727    Uiso  ? N
   N20        1.0     0.112695     0.426338     0.600062    Uiso  ? N
   N21        1.0     0.894814     0.546782     0.351722    Uiso  ? N
   N22        1.0     0.779450     0.427272     0.093108    Uiso  ? N
   N23        1.0     0.553400     0.538683     0.853050    Uiso  ? N
   N24        1.0     0.443753     0.426611     0.603037    Uiso  ? N
   N25        1.0     0.206726     0.878389     0.347526    Uiso  ? N
   N26        1.0     0.110495     0.759873     0.098789    Uiso  ? N
   N27        1.0     0.889410     0.872814     0.849966    Uiso  ? N
   N28        1.0     0.777884     0.762842     0.603445    Uiso  ? N
   N29        1.0     0.565771     0.880726     0.347819    Uiso  ? N
   N30        1.0     0.444434     0.762845     0.095531    Uiso  ? N
   N31        1.0     0.220481     0.872349     0.853271    Uiso  ? N
   N32        1.0     0.111082     0.760781     0.601378    Uiso  ? N
   N33        1.0     0.889224     0.873086     0.349840    Uiso  ? N
   N34        1.0     0.779540     0.761419     0.096490    Uiso  ? N
   N35        1.0     0.556153     0.873411     0.852924    Uiso  ? N
   N36        1.0     0.444080     0.762871     0.610484    Uiso  ? N
