
#======================================================================
# CRYSTAL DATA
#----------------------------------------------------------------------
data_VESTA_phase_1

_chemical_name_common                  'Al   Mg   Hf   N '
_cell_length_a                         9.452993
_cell_length_b                         9.454514
_cell_length_c                         10.072244
_cell_angle_alpha                      90.028572
_cell_angle_beta                       90.027008
_cell_angle_gamma                      59.902843
_cell_volume                           778.823985
_space_group_name_H-M_alt              'P 1'
_space_group_IT_number                 1

loop_
_space_group_symop_operation_xyz
   'x, y, z'

loop_
   _atom_site_label
   _atom_site_occupancy
   _atom_site_fract_x
   _atom_site_fract_y
   _atom_site_fract_z
   _atom_site_adp_type
   _atom_site_U_iso_or_equiv
   _atom_site_type_symbol
   Al1        1.0     0.104775     0.098413     0.413143    Uiso  ? Al
   Al2        1.0     0.221652     0.205932     0.163273    Uiso  ? Al
   Al3        1.0     0.777633     0.094090     0.913426    Uiso  ? Al
   Al4        1.0     0.887581     0.206588     0.665242    Uiso  ? Al
   Al5        1.0     0.444582     0.099658     0.413567    Uiso  ? Al
   Al6        1.0     0.555616     0.205676     0.163195    Uiso  ? Al
   Al7        1.0     0.110395     0.095834     0.913696    Uiso  ? Al
   Al8        1.0     0.221301     0.206021     0.662890    Uiso  ? Al
   Al9        1.0     0.779275     0.094207     0.412431    Uiso  ? Al
   Al10       1.0     0.889088     0.204245     0.163586    Uiso  ? Al
   Al11       1.0     0.443294     0.096524     0.913242    Uiso  ? Al
   Al12       1.0     0.556248     0.205256     0.663158    Uiso  ? Al
   Al13       1.0     0.109624     0.429301     0.412709    Uiso  ? Al
   Al14       1.0     0.222019     0.537921     0.163919    Uiso  ? Al
   Al15       1.0     0.779703     0.426827     0.912527    Uiso  ? Al
   Al16       1.0     0.888428     0.538213     0.665135    Uiso  ? Al
   Al17       1.0     0.443362     0.423739     0.413591    Uiso  ? Al
   Al18       1.0     0.557130     0.533367     0.157385    Uiso  ? Al
   Al19       1.0     0.111380     0.427658     0.913619    Uiso  ? Al
   Al20       1.0     0.221686     0.538350     0.663169    Uiso  ? Al
   Al21       1.0     0.889962     0.539649     0.163680    Uiso  ? Al
   Al22       1.0     0.442847     0.426707     0.913523    Uiso  ? Al
   Al23       1.0     0.558273     0.534141     0.671241    Uiso  ? Al
   Al24       1.0     0.106350     0.760296     0.413113    Uiso  ? Al
   Al25       1.0     0.216648     0.874972     0.158403    Uiso  ? Al
   Al26       1.0     0.779881     0.760618     0.913413    Uiso  ? Al
   Al27       1.0     0.888345     0.873056     0.663240    Uiso  ? Al
   Al28       1.0     0.559177     0.875492     0.157445    Uiso  ? Al
   Al29       1.0     0.110096     0.760059     0.913529    Uiso  ? Al
   Al30       1.0     0.217950     0.874120     0.668720    Uiso  ? Al
   Al31       1.0     0.785251     0.760763     0.413063    Uiso  ? Al
   Al32       1.0     0.888437     0.872802     0.163718    Uiso  ? Al
   Al33       1.0     0.444032     0.761637     0.915935    Uiso  ? Al
   Al34       1.0     0.557737     0.873860     0.668790    Uiso  ? Al
   Mg1        1.0     0.783617     0.422688     0.413605    Uiso  ? Mg
   Hf1        1.0     0.446158     0.760548     0.408607    Uiso  ? Hf
   N1         1.0     0.222521     0.204162     0.354908    Uiso  ? N
   N2         1.0     0.111406     0.095572     0.102638    Uiso  ? N
   N3         1.0     0.889526     0.203494     0.855890    Uiso  ? N
   N4         1.0     0.777688     0.094495     0.604195    Uiso  ? N
   N5         1.0     0.555915     0.205267     0.354038    Uiso  ? N
   N6         1.0     0.443238     0.096777     0.103008    Uiso  ? N
   N7         1.0     0.221958     0.205569     0.853319    Uiso  ? N
   N8         1.0     0.111238     0.093519     0.604767    Uiso  ? N
   N9         1.0     0.894575     0.191475     0.349268    Uiso  ? N
   N10        1.0     0.776779     0.094056     0.103142    Uiso  ? N
   N11        1.0     0.555459     0.205259     0.853228    Uiso  ? N
   N12        1.0     0.444587     0.093701     0.604398    Uiso  ? N
   N13        1.0     0.222544     0.538217     0.354981    Uiso  ? N
   N14        1.0     0.112336     0.426850     0.103609    Uiso  ? N
   N15        1.0     0.890009     0.539628     0.855884    Uiso  ? N
   N16        1.0     0.776726     0.428463     0.618588    Uiso  ? N
   N17        1.0     0.549487     0.528302     0.344352    Uiso  ? N
   N18        1.0     0.442638     0.426129     0.102243    Uiso  ? N
   N19        1.0     0.221637     0.538841     0.853440    Uiso  ? N
   N20        1.0     0.110853     0.427708     0.604081    Uiso  ? N
   N21        1.0     0.895061     0.547116     0.350376    Uiso  ? N
   N22        1.0     0.779725     0.427021     0.103533    Uiso  ? N
   N23        1.0     0.553724     0.539130     0.860829    Uiso  ? N
   N24        1.0     0.444418     0.428090     0.605106    Uiso  ? N
   N25        1.0     0.206747     0.878569     0.349176    Uiso  ? N
   N26        1.0     0.110365     0.759921     0.103522    Uiso  ? N
   N27        1.0     0.889000     0.872341     0.853291    Uiso  ? N
   N28        1.0     0.777165     0.761664     0.604869    Uiso  ? N
   N29        1.0     0.565835     0.881915     0.347962    Uiso  ? N
   N30        1.0     0.444316     0.762650     0.109787    Uiso  ? N
   N31        1.0     0.221383     0.872190     0.857980    Uiso  ? N
   N32        1.0     0.111386     0.761191     0.604281    Uiso  ? N
   N33        1.0     0.888848     0.873493     0.353953    Uiso  ? N
   N34        1.0     0.779486     0.761517     0.101997    Uiso  ? N
   N35        1.0     0.555644     0.872694     0.857889    Uiso  ? N
   N36        1.0     0.444303     0.760743     0.616482    Uiso  ? N
