
#======================================================================
# CRYSTAL DATA
#----------------------------------------------------------------------
data_VESTA_phase_1

_chemical_name_common                  'Al   Mg   Hf   N                      '
_cell_length_a                         9.771416
_cell_length_b                         9.769445
_cell_length_c                         9.166017
_cell_angle_alpha                      89.984344
_cell_angle_beta                       89.996735
_cell_angle_gamma                      59.871265
_cell_volume                           756.787268
_space_group_name_H-M_alt              'P 1'
_space_group_IT_number                 1

loop_
_space_group_symop_operation_xyz
   'x, y, z'

loop_
   _atom_site_label
   _atom_site_occupancy
   _atom_site_fract_x
   _atom_site_fract_y
   _atom_site_fract_z
   _atom_site_adp_type
   _atom_site_U_iso_or_equiv
   _atom_site_type_symbol
   Al1        1.0     0.106858     0.096217     0.332564    Uiso  ? Al
   Al2        1.0     0.222012     0.205621     0.084691    Uiso  ? Al
   Al3        1.0     0.778153     0.094744     0.834052    Uiso  ? Al
   Al4        1.0     0.888843     0.204902     0.580946    Uiso  ? Al
   Al5        1.0     0.445271     0.098305     0.333588    Uiso  ? Al
   Al6        1.0     0.556604     0.204509     0.083436    Uiso  ? Al
   Al7        1.0     0.108544     0.098179     0.835353    Uiso  ? Al
   Al8        1.0     0.221433     0.205839     0.583691    Uiso  ? Al
   Al9        1.0     0.778431     0.093205     0.333940    Uiso  ? Al
   Al10       1.0     0.887396     0.205729     0.086955    Uiso  ? Al
   Al11       1.0     0.442190     0.098286     0.834419    Uiso  ? Al
   Al12       1.0     0.555399     0.205899     0.584127    Uiso  ? Al
   Al13       1.0     0.111296     0.428539     0.334319    Uiso  ? Al
   Al14       1.0     0.221401     0.538328     0.084393    Uiso  ? Al
   Al15       1.0     0.781696     0.426048     0.842415    Uiso  ? Al
   Al16       1.0     0.889760     0.539719     0.581466    Uiso  ? Al
   Al17       1.0     0.442715     0.423770     0.331893    Uiso  ? Al
   Al18       1.0     0.557258     0.535561     0.077802    Uiso  ? Al
   Al19       1.0     0.110664     0.427842     0.833744    Uiso  ? Al
   Al20       1.0     0.222285     0.537405     0.583261    Uiso  ? Al
   Al21       1.0     0.889293     0.538220     0.087110    Uiso  ? Al
   Al22       1.0     0.441990     0.426343     0.835807    Uiso  ? Al
   Al23       1.0     0.559025     0.529825     0.594545    Uiso  ? Al
   Al24       1.0     0.106722     0.760775     0.334110    Uiso  ? Al
   Al25       1.0     0.219115     0.873313     0.076767    Uiso  ? Al
   Al26       1.0     0.782328     0.758740     0.836408    Uiso  ? Al
   Al27       1.0     0.888322     0.872586     0.584100    Uiso  ? Al
   Al28       1.0     0.557085     0.874247     0.077122    Uiso  ? Al
   Al29       1.0     0.109605     0.758693     0.834047    Uiso  ? Al
   Al30       1.0     0.213372     0.876718     0.595223    Uiso  ? Al
   Al31       1.0     0.783756     0.762900     0.331645    Uiso  ? Al
   Al32       1.0     0.888582     0.873856     0.082951    Uiso  ? Al
   Al33       1.0     0.444528     0.761324     0.831826    Uiso  ? Al
   Al34       1.0     0.561313     0.876803     0.595183    Uiso  ? Al
   Mg1        1.0     0.781539     0.424782     0.339121    Uiso  ? Mg
   Hf1        1.0     0.444429     0.762104     0.351853    Uiso  ? Hf
   N1         1.0     0.222829     0.203351     0.373169    Uiso  ? N
   N2         1.0     0.112739     0.092417     0.122052    Uiso  ? N
   N3         1.0     0.889537     0.202602     0.876017    Uiso  ? N
   N4         1.0     0.776872     0.094557     0.624964    Uiso  ? N
   N5         1.0     0.555329     0.205530     0.374012    Uiso  ? N
   N6         1.0     0.444916     0.093686     0.123177    Uiso  ? N
   N7         1.0     0.221710     0.206134     0.875624    Uiso  ? N
   N8         1.0     0.109989     0.097346     0.627047    Uiso  ? N
   N9         1.0     0.894480     0.191799     0.373760    Uiso  ? N
   N10        1.0     0.776739     0.093953     0.124048    Uiso  ? N
   N11        1.0     0.555984     0.204705     0.875219    Uiso  ? N
   N12        1.0     0.442618     0.097985     0.626051    Uiso  ? N
   N13        1.0     0.222614     0.538353     0.373138    Uiso  ? N
   N14        1.0     0.112552     0.426532     0.124968    Uiso  ? N
   N15        1.0     0.891575     0.539220     0.876077    Uiso  ? N
   N16        1.0     0.781139     0.426466     0.626929    Uiso  ? N
   N17        1.0     0.549341     0.527150     0.382839    Uiso  ? N
   N18        1.0     0.444452     0.427545     0.121265    Uiso  ? N
   N19        1.0     0.220917     0.538493     0.875661    Uiso  ? N
   N20        1.0     0.112056     0.426779     0.624086    Uiso  ? N
   N21        1.0     0.894985     0.547810     0.373374    Uiso  ? N
   N22        1.0     0.776307     0.428778     0.108164    Uiso  ? N
   N23        1.0     0.552812     0.539987     0.866265    Uiso  ? N
   N24        1.0     0.442137     0.425435     0.628099    Uiso  ? N
   N25        1.0     0.204237     0.879541     0.381234    Uiso  ? N
   N26        1.0     0.111569     0.761520     0.123316    Uiso  ? N
   N27        1.0     0.889380     0.872954     0.874826    Uiso  ? N
   N28        1.0     0.781077     0.760449     0.628644    Uiso  ? N
   N29        1.0     0.567489     0.882146     0.381253    Uiso  ? N
   N30        1.0     0.444092     0.762172     0.116681    Uiso  ? N
   N31        1.0     0.221773     0.871712     0.866940    Uiso  ? N
   N32        1.0     0.109914     0.758959     0.625625    Uiso  ? N
   N33        1.0     0.889057     0.873044     0.374490    Uiso  ? N
   N34        1.0     0.776684     0.763432     0.120898    Uiso  ? N
   N35        1.0     0.555394     0.872839     0.867698    Uiso  ? N
   N36        1.0     0.444518     0.763228     0.615952    Uiso  ? N
