
#======================================================================
# CRYSTAL DATA
#----------------------------------------------------------------------
data_VESTA_phase_1

_chemical_name_common                  'Al   Mg   Hf   N                      '
_cell_length_a                         9.817231
_cell_length_b                         9.815012
_cell_length_c                         9.023132
_cell_angle_alpha                      90.014099
_cell_angle_beta                       90.002480
_cell_angle_gamma                      59.870747
_cell_volume                           751.970280
_space_group_name_H-M_alt              'P 1'
_space_group_IT_number                 1

loop_
_space_group_symop_operation_xyz
   'x, y, z'

loop_
   _atom_site_label
   _atom_site_occupancy
   _atom_site_fract_x
   _atom_site_fract_y
   _atom_site_fract_z
   _atom_site_adp_type
   _atom_site_U_iso_or_equiv
   _atom_site_type_symbol
   Al1        1.0     0.107209     0.096017     0.374048    Uiso  ? Al
   Al2        1.0     0.221424     0.205810     0.122852    Uiso  ? Al
   Al3        1.0     0.778233     0.094854     0.872465    Uiso  ? Al
   Al4        1.0     0.887425     0.205613     0.618834    Uiso  ? Al
   Al5        1.0     0.445254     0.098200     0.372873    Uiso  ? Al
   Al6        1.0     0.555454     0.205870     0.122310    Uiso  ? Al
   Al7        1.0     0.108265     0.098447     0.871198    Uiso  ? Al
   Al8        1.0     0.222073     0.205583     0.622000    Uiso  ? Al
   Al9        1.0     0.778315     0.093092     0.372827    Uiso  ? Al
   Al10       1.0     0.888753     0.205029     0.126024    Uiso  ? Al
   Al11       1.0     0.442100     0.098454     0.872298    Uiso  ? Al
   Al12       1.0     0.556597     0.204459     0.623399    Uiso  ? Al
   Al13       1.0     0.111518     0.428432     0.372357    Uiso  ? Al
   Al14       1.0     0.222292     0.537415     0.123236    Uiso  ? Al
   Al15       1.0     0.781884     0.425943     0.863544    Uiso  ? Al
   Al16       1.0     0.889383     0.538259     0.618721    Uiso  ? Al
   Al17       1.0     0.442600     0.423805     0.374741    Uiso  ? Al
   Al18       1.0     0.559011     0.530117     0.111391    Uiso  ? Al
   Al19       1.0     0.110513     0.427887     0.872804    Uiso  ? Al
   Al20       1.0     0.221394     0.538301     0.622308    Uiso  ? Al
   Al21       1.0     0.889648     0.539662     0.125453    Uiso  ? Al
   Al22       1.0     0.441989     0.426329     0.870767    Uiso  ? Al
   Al23       1.0     0.557411     0.535103     0.628699    Uiso  ? Al
   Al24       1.0     0.106858     0.760770     0.372355    Uiso  ? Al
   Al25       1.0     0.213753     0.876522     0.110323    Uiso  ? Al
   Al26       1.0     0.782589     0.758509     0.870093    Uiso  ? Al
   Al27       1.0     0.888586     0.873903     0.623895    Uiso  ? Al
   Al28       1.0     0.561126     0.876546     0.110418    Uiso  ? Al
   Al29       1.0     0.109520     0.758600     0.872674    Uiso  ? Al
   Al30       1.0     0.218640     0.873549     0.630445    Uiso  ? Al
   Al31       1.0     0.783557     0.763059     0.375122    Uiso  ? Al
   Al32       1.0     0.888301     0.872618     0.122296    Uiso  ? Al
   Al33       1.0     0.444609     0.761178     0.873129    Uiso  ? Al
   Al34       1.0     0.557313     0.874573     0.630082    Uiso  ? Al
   Mg1        1.0     0.781374     0.424967     0.366944    Uiso  ? Mg
   Hf1        1.0     0.444262     0.762285     0.355725    Uiso  ? Hf
   N1         1.0     0.222833     0.203373     0.338097    Uiso  ? N
   N2         1.0     0.109934     0.097310     0.084262    Uiso  ? N
   N3         1.0     0.889502     0.202635     0.834902    Uiso  ? N
   N4         1.0     0.776613     0.093902     0.587344    Uiso  ? N
   N5         1.0     0.555333     0.205522     0.337232    Uiso  ? N
   N6         1.0     0.442656     0.097889     0.085285    Uiso  ? N
   N7         1.0     0.221691     0.206147     0.835712    Uiso  ? N
   N8         1.0     0.112856     0.092427     0.589383    Uiso  ? N
   N9         1.0     0.894402     0.191987     0.338424    Uiso  ? N
   N10        1.0     0.776918     0.094613     0.086281    Uiso  ? N
   N11        1.0     0.555992     0.204688     0.836151    Uiso  ? N
   N12        1.0     0.444881     0.093796     0.588182    Uiso  ? N
   N13        1.0     0.222583     0.538389     0.338118    Uiso  ? N
   N14        1.0     0.111982     0.426801     0.087302    Uiso  ? N
   N15        1.0     0.891615     0.539166     0.834873    Uiso  ? N
   N16        1.0     0.776387     0.428743     0.603359    Uiso  ? N
   N17        1.0     0.549229     0.527698     0.329467    Uiso  ? N
   N18        1.0     0.442222     0.425503     0.083160    Uiso  ? N
   N19        1.0     0.220880     0.538468     0.835647    Uiso  ? N
   N20        1.0     0.112739     0.426399     0.586309    Uiso  ? N
   N21        1.0     0.894920     0.547687     0.338739    Uiso  ? N
   N22        1.0     0.781091     0.426495     0.084148    Uiso  ? N
   N23        1.0     0.552953     0.539662     0.845034    Uiso  ? N
   N24        1.0     0.444387     0.427397     0.590220    Uiso  ? N
   N25        1.0     0.204706     0.879336     0.330269    Uiso  ? N
   N26        1.0     0.109956     0.758982     0.085699    Uiso  ? N
   N27        1.0     0.889404     0.872988     0.836543    Uiso  ? N
   N28        1.0     0.776700     0.763566     0.590683    Uiso  ? N
   N29        1.0     0.567220     0.881823     0.330381    Uiso  ? N
   N30        1.0     0.444533     0.763176     0.093561    Uiso  ? N
   N31        1.0     0.221431     0.871854     0.844671    Uiso  ? N
   N32        1.0     0.111534     0.761492     0.588034    Uiso  ? N
   N33        1.0     0.889086     0.873012     0.336738    Uiso  ? N
   N34        1.0     0.781036     0.760405     0.082540    Uiso  ? N
   N35        1.0     0.555544     0.873035     0.843889    Uiso  ? N
   N36        1.0     0.444046     0.762353     0.596107    Uiso  ? N
