
#======================================================================
# CRYSTAL DATA
#----------------------------------------------------------------------
data_VESTA_phase_1

_chemical_name_common                  'Al   Mg   Hf   N                      '
_cell_length_a                         9.453014
_cell_length_b                         9.454533
_cell_length_c                         10.072126
_cell_angle_alpha                      90.029297
_cell_angle_beta                       90.027908
_cell_angle_gamma                      59.902546
_cell_volume                           778.815863
_space_group_name_H-M_alt              'P 1'
_space_group_IT_number                 1

loop_
_space_group_symop_operation_xyz
   'x, y, z'

loop_
   _atom_site_label
   _atom_site_occupancy
   _atom_site_fract_x
   _atom_site_fract_y
   _atom_site_fract_z
   _atom_site_adp_type
   _atom_site_U_iso_or_equiv
   _atom_site_type_symbol
   Al1        1.0     0.104791     0.098416     0.396786    Uiso  ? Al
   Al2        1.0     0.221686     0.205948     0.146918    Uiso  ? Al
   Al3        1.0     0.777642     0.094106     0.897071    Uiso  ? Al
   Al4        1.0     0.887564     0.206593     0.648890    Uiso  ? Al
   Al5        1.0     0.444592     0.099667     0.397209    Uiso  ? Al
   Al6        1.0     0.555647     0.205694     0.146841    Uiso  ? Al
   Al7        1.0     0.110404     0.095853     0.897346    Uiso  ? Al
   Al8        1.0     0.221278     0.206031     0.646536    Uiso  ? Al
   Al9        1.0     0.779290     0.094213     0.396074    Uiso  ? Al
   Al10       1.0     0.889121     0.204260     0.147225    Uiso  ? Al
   Al11       1.0     0.443298     0.096547     0.896885    Uiso  ? Al
   Al12       1.0     0.556230     0.205264     0.646809    Uiso  ? Al
   Al13       1.0     0.109626     0.429311     0.396354    Uiso  ? Al
   Al14       1.0     0.222051     0.537939     0.147562    Uiso  ? Al
   Al15       1.0     0.779705     0.426842     0.896156    Uiso  ? Al
   Al16       1.0     0.888401     0.538220     0.648781    Uiso  ? Al
   Al17       1.0     0.443372     0.423748     0.397237    Uiso  ? Al
   Al18       1.0     0.557164     0.533385     0.141024    Uiso  ? Al
   Al19       1.0     0.111381     0.427676     0.897263    Uiso  ? Al
   Al20       1.0     0.221663     0.538356     0.646821    Uiso  ? Al
   Al21       1.0     0.889988     0.539663     0.147315    Uiso  ? Al
   Al22       1.0     0.442848     0.426725     0.897174    Uiso  ? Al
   Al23       1.0     0.558248     0.534147     0.654878    Uiso  ? Al
   Al24       1.0     0.106365     0.760302     0.396754    Uiso  ? Al
   Al25       1.0     0.216687     0.874985     0.142040    Uiso  ? Al
   Al26       1.0     0.779889     0.760632     0.897061    Uiso  ? Al
   Al27       1.0     0.888321     0.873063     0.646887    Uiso  ? Al
   Al28       1.0     0.559209     0.875512     0.141082    Uiso  ? Al
   Al29       1.0     0.110102     0.760079     0.897170    Uiso  ? Al
   Al30       1.0     0.217934     0.874128     0.652361    Uiso  ? Al
   Al31       1.0     0.785261     0.760770     0.396703    Uiso  ? Al
   Al32       1.0     0.888472     0.872817     0.147362    Uiso  ? Al
   Al33       1.0     0.444039     0.761654     0.899577    Uiso  ? Al
   Al34       1.0     0.557716     0.873867     0.652437    Uiso  ? Al
   Mg1        1.0     0.783632     0.422689     0.397255    Uiso  ? Mg
   Hf1        1.0     0.446181     0.760561     0.392241    Uiso  ? Hf
   N1         1.0     0.222538     0.204164     0.338558    Uiso  ? N
   N2         1.0     0.111441     0.095590     0.086287    Uiso  ? N
   N3         1.0     0.889534     0.203506     0.839539    Uiso  ? N
   N4         1.0     0.777670     0.094500     0.587850    Uiso  ? N
   N5         1.0     0.555920     0.205283     0.337692    Uiso  ? N
   N6         1.0     0.443268     0.096797     0.086653    Uiso  ? N
   N7         1.0     0.221957     0.205591     0.836963    Uiso  ? N
   N8         1.0     0.111222     0.093524     0.588413    Uiso  ? N
   N9         1.0     0.894594     0.191475     0.332913    Uiso  ? N
   N10        1.0     0.776810     0.094074     0.086787    Uiso  ? N
   N11        1.0     0.555463     0.205279     0.836877    Uiso  ? N
   N12        1.0     0.444569     0.093708     0.588048    Uiso  ? N
   N13        1.0     0.222558     0.538223     0.338632    Uiso  ? N
   N14        1.0     0.112363     0.426867     0.087253    Uiso  ? N
   N15        1.0     0.890008     0.539643     0.839530    Uiso  ? N
   N16        1.0     0.776702     0.428467     0.602235    Uiso  ? N
   N17        1.0     0.549507     0.528306     0.327998    Uiso  ? N
   N18        1.0     0.442670     0.426148     0.085896    Uiso  ? N
   N19        1.0     0.221636     0.538855     0.837087    Uiso  ? N
   N20        1.0     0.110829     0.427718     0.587730    Uiso  ? N
   N21        1.0     0.895069     0.547123     0.334019    Uiso  ? N
   N22        1.0     0.779755     0.427036     0.087169    Uiso  ? N
   N23        1.0     0.553720     0.539147     0.844471    Uiso  ? N
   N24        1.0     0.444392     0.428097     0.588755    Uiso  ? N
   N25        1.0     0.206774     0.878569     0.332823    Uiso  ? N
   N26        1.0     0.110400     0.759938     0.087166    Uiso  ? N
   N27        1.0     0.889000     0.872357     0.836935    Uiso  ? N
   N28        1.0     0.777142     0.761670     0.588516    Uiso  ? N
   N29        1.0     0.565851     0.881927     0.331605    Uiso  ? N
   N30        1.0     0.444356     0.762663     0.093424    Uiso  ? N
   N31        1.0     0.221386     0.872210     0.841621    Uiso  ? N
   N32        1.0     0.111367     0.761196     0.587931    Uiso  ? N
   N33        1.0     0.888869     0.873491     0.337605    Uiso  ? N
   N34        1.0     0.779520     0.761530     0.085643    Uiso  ? N
   N35        1.0     0.555649     0.872711     0.841536    Uiso  ? N
   N36        1.0     0.444283     0.760751     0.600125    Uiso  ? N
