
#======================================================================
# CRYSTAL DATA
#----------------------------------------------------------------------
data_VESTA_phase_1

_chemical_name_common                  'Al   Mg   Hf   N                      '
_cell_length_a                         9.622416
_cell_length_b                         9.621275
_cell_length_c                         9.613163
_cell_angle_alpha                      90.020988
_cell_angle_beta                       90.007751
_cell_angle_gamma                      59.873196
_cell_volume                           769.763544
_space_group_name_H-M_alt              'P 1'
_space_group_IT_number                 1

loop_
_space_group_symop_operation_xyz
   'x, y, z'

loop_
   _atom_site_label
   _atom_site_occupancy
   _atom_site_fract_x
   _atom_site_fract_y
   _atom_site_fract_z
   _atom_site_adp_type
   _atom_site_U_iso_or_equiv
   _atom_site_type_symbol
   Al1        1.0     0.105494     0.097349     0.381407    Uiso  ? Al
   Al2        1.0     0.221543     0.205858     0.130606    Uiso  ? Al
   Al3        1.0     0.777872     0.094403     0.880515    Uiso  ? Al
   Al4        1.0     0.887327     0.206312     0.630091    Uiso  ? Al
   Al5        1.0     0.445054     0.099006     0.381072    Uiso  ? Al
   Al6        1.0     0.555374     0.205871     0.130452    Uiso  ? Al
   Al7        1.0     0.109627     0.096907     0.879480    Uiso  ? Al
   Al8        1.0     0.221694     0.205791     0.629743    Uiso  ? Al
   Al9        1.0     0.778827     0.093729     0.379977    Uiso  ? Al
   Al10       1.0     0.888988     0.204552     0.131926    Uiso  ? Al
   Al11       1.0     0.442729     0.097345     0.879764    Uiso  ? Al
   Al12       1.0     0.556523     0.204824     0.630552    Uiso  ? Al
   Al13       1.0     0.110450     0.428905     0.379908    Uiso  ? Al
   Al14       1.0     0.222187     0.537544     0.131132    Uiso  ? Al
   Al15       1.0     0.780674     0.426567     0.875620    Uiso  ? Al
   Al16       1.0     0.888870     0.538097     0.629862    Uiso  ? Al
   Al17       1.0     0.442964     0.423574     0.381978    Uiso  ? Al
   Al18       1.0     0.558712     0.529956     0.122470    Uiso  ? Al
   Al19       1.0     0.111127     0.427685     0.880675    Uiso  ? Al
   Al20       1.0     0.221506     0.538324     0.630057    Uiso  ? Al
   Al21       1.0     0.890009     0.539796     0.131628    Uiso  ? Al
   Al22       1.0     0.442334     0.426601     0.879087    Uiso  ? Al
   Al23       1.0     0.557388     0.535967     0.636432    Uiso  ? Al
   Al24       1.0     0.106281     0.760545     0.380589    Uiso  ? Al
   Al25       1.0     0.213218     0.876756     0.122986    Uiso  ? Al
   Al26       1.0     0.781078     0.759717     0.878793    Uiso  ? Al
   Al27       1.0     0.888513     0.873573     0.630888    Uiso  ? Al
   Al28       1.0     0.561244     0.877105     0.122609    Uiso  ? Al
   Al29       1.0     0.110018     0.759304     0.880090    Uiso  ? Al
   Al30       1.0     0.219755     0.873071     0.635666    Uiso  ? Al
   Al31       1.0     0.784703     0.761992     0.381812    Uiso  ? Al
   Al32       1.0     0.888414     0.872635     0.130704    Uiso  ? Al
   Al33       1.0     0.444297     0.761646     0.885425    Uiso  ? Al
   Al34       1.0     0.556906     0.873509     0.635452    Uiso  ? Al
   Mg1        1.0     0.782522     0.423887     0.377740    Uiso  ? Mg
   Hf1        1.0     0.445127     0.761461     0.363921    Uiso  ? Hf
   N1         1.0     0.222744     0.203458     0.330007    Uiso  ? N
   N2         1.0     0.110524     0.096781     0.076525    Uiso  ? N
   N3         1.0     0.889522     0.202936     0.828996    Uiso  ? N
   N4         1.0     0.777222     0.094243     0.579104    Uiso  ? N
   N5         1.0     0.555449     0.205456     0.329220    Uiso  ? N
   N6         1.0     0.442815     0.097712     0.077264    Uiso  ? N
   N7         1.0     0.221821     0.205923     0.827822    Uiso  ? N
   N8         1.0     0.112003     0.092894     0.580612    Uiso  ? N
   N9         1.0     0.894544     0.191491     0.326545    Uiso  ? N
   N10        1.0     0.776746     0.094330     0.078311    Uiso  ? N
   N11        1.0     0.555834     0.204889     0.828039    Uiso  ? N
   N12        1.0     0.444812     0.093690     0.579878    Uiso  ? N
   N13        1.0     0.222598     0.538243     0.330047    Uiso  ? N
   N14        1.0     0.112304     0.426721     0.078823    Uiso  ? N
   N15        1.0     0.891017     0.539368     0.828882    Uiso  ? N
   N16        1.0     0.776469     0.428696     0.593649    Uiso  ? N
   N17        1.0     0.549864     0.525969     0.319185    Uiso  ? N
   N18        1.0     0.442220     0.425570     0.075729    Uiso  ? N
   N19        1.0     0.221189     0.538601     0.827882    Uiso  ? N
   N20        1.0     0.111756     0.427072     0.578566    Uiso  ? N
   N21        1.0     0.895124     0.547839     0.327220    Uiso  ? N
   N22        1.0     0.780678     0.426667     0.077060    Uiso  ? N
   N23        1.0     0.552774     0.540543     0.836010    Uiso  ? N
   N24        1.0     0.444462     0.427853     0.581195    Uiso  ? N
   N25        1.0     0.203606     0.879802     0.322800    Uiso  ? N
   N26        1.0     0.110013     0.759280     0.077705    Uiso  ? N
   N27        1.0     0.889248     0.872739     0.828313    Uiso  ? N
   N28        1.0     0.777028     0.762615     0.581233    Uiso  ? N
   N29        1.0     0.567784     0.882866     0.322253    Uiso  ? N
   N30        1.0     0.444447     0.763179     0.089836    Uiso  ? N
   N31        1.0     0.222546     0.871457     0.834276    Uiso  ? N
   N32        1.0     0.111535     0.761370     0.579763    Uiso  ? N
   N33        1.0     0.888981     0.873242     0.328913    Uiso  ? N
   N34        1.0     0.780603     0.760964     0.075401    Uiso  ? N
   N35        1.0     0.555117     0.872324     0.833801    Uiso  ? N
   N36        1.0     0.444277     0.761529     0.584283    Uiso  ? N
