
#======================================================================
# CRYSTAL DATA
#----------------------------------------------------------------------
data_VESTA_phase_1

_chemical_name_common                  'Al   Mg   Hf   N                      '
_cell_length_a                         9.452995
_cell_length_b                         9.454523
_cell_length_c                         10.072166
_cell_angle_alpha                      89.970779
_cell_angle_beta                       89.971947
_cell_angle_gamma                      59.902798
_cell_volume                           778.818587
_space_group_name_H-M_alt              'P 1'
_space_group_IT_number                 1

loop_
_space_group_symop_operation_xyz
   'x, y, z'

loop_
   _atom_site_label
   _atom_site_occupancy
   _atom_site_fract_x
   _atom_site_fract_y
   _atom_site_fract_z
   _atom_site_adp_type
   _atom_site_U_iso_or_equiv
   _atom_site_type_symbol
   Al1        1.0     0.104811     0.098443     0.298913    Uiso  ? Al
   Al2        1.0     0.221295     0.206059     0.049163    Uiso  ? Al
   Al3        1.0     0.777659     0.094135     0.798629    Uiso  ? Al
   Al4        1.0     0.889141     0.204288     0.548474    Uiso  ? Al
   Al5        1.0     0.444611     0.099695     0.298491    Uiso  ? Al
   Al6        1.0     0.556247     0.205292     0.048890    Uiso  ? Al
   Al7        1.0     0.110422     0.095882     0.798352    Uiso  ? Al
   Al8        1.0     0.221704     0.205976     0.548781    Uiso  ? Al
   Al9        1.0     0.779309     0.094241     0.299625    Uiso  ? Al
   Al10       1.0     0.887582     0.206622     0.046809    Uiso  ? Al
   Al11       1.0     0.443315     0.096576     0.798813    Uiso  ? Al
   Al12       1.0     0.555666     0.205722     0.548858    Uiso  ? Al
   Al13       1.0     0.109644     0.429339     0.299345    Uiso  ? Al
   Al14       1.0     0.221680     0.538385     0.048878    Uiso  ? Al
   Al15       1.0     0.779723     0.426871     0.799542    Uiso  ? Al
   Al16       1.0     0.890007     0.539692     0.548384    Uiso  ? Al
   Al17       1.0     0.443390     0.423776     0.298462    Uiso  ? Al
   Al18       1.0     0.558266     0.534175     0.040820    Uiso  ? Al
   Al19       1.0     0.111398     0.427704     0.798436    Uiso  ? Al
   Al20       1.0     0.222069     0.537968     0.548138    Uiso  ? Al
   Al21       1.0     0.888417     0.538249     0.046918    Uiso  ? Al
   Al22       1.0     0.442866     0.426754     0.798525    Uiso  ? Al
   Al23       1.0     0.557183     0.533414     0.554675    Uiso  ? Al
   Al24       1.0     0.106385     0.760330     0.298945    Uiso  ? Al
   Al25       1.0     0.217951     0.874157     0.043337    Uiso  ? Al
   Al26       1.0     0.779906     0.760661     0.798638    Uiso  ? Al
   Al27       1.0     0.888491     0.872845     0.548337    Uiso  ? Al
   Al28       1.0     0.557734     0.873896     0.043260    Uiso  ? Al
   Al29       1.0     0.110119     0.760107     0.798529    Uiso  ? Al
   Al30       1.0     0.216707     0.875013     0.553659    Uiso  ? Al
   Al31       1.0     0.785280     0.760798     0.298997    Uiso  ? Al
   Al32       1.0     0.888339     0.873091     0.048812    Uiso  ? Al
   Al33       1.0     0.444057     0.761683     0.796122    Uiso  ? Al
   Al34       1.0     0.559228     0.875541     0.554618    Uiso  ? Al
   Mg1        1.0     0.783651     0.422716     0.298444    Uiso  ? Mg
   Hf1        1.0     0.446201     0.760588     0.303454    Uiso  ? Hf
   N1         1.0     0.222557     0.204192     0.357142    Uiso  ? N
   N2         1.0     0.111239     0.093552     0.107287    Uiso  ? N
   N3         1.0     0.889551     0.203535     0.856161    Uiso  ? N
   N4         1.0     0.776828     0.094102     0.608913    Uiso  ? N
   N5         1.0     0.555940     0.205311     0.358008    Uiso  ? N
   N6         1.0     0.444586     0.093736     0.107652    Uiso  ? N
   N7         1.0     0.221974     0.205620     0.858736    Uiso  ? N
   N8         1.0     0.111460     0.095617     0.609412    Uiso  ? N
   N9         1.0     0.894614     0.191503     0.362787    Uiso  ? N
   N10        1.0     0.777687     0.094528     0.107850    Uiso  ? N
   N11        1.0     0.555481     0.205308     0.858823    Uiso  ? N
   N12        1.0     0.443286     0.096826     0.609047    Uiso  ? N
   N13        1.0     0.222577     0.538251     0.357068    Uiso  ? N
   N14        1.0     0.110845     0.427747     0.107970    Uiso  ? N
   N15        1.0     0.890025     0.539672     0.856170    Uiso  ? N
   N16        1.0     0.779773     0.427064     0.608531    Uiso  ? N
   N17        1.0     0.549526     0.528335     0.367702    Uiso  ? N
   N18        1.0     0.444409     0.428125     0.106946    Uiso  ? N
   N19        1.0     0.221654     0.538884     0.858613    Uiso  ? N
   N20        1.0     0.112381     0.426896     0.608447    Uiso  ? N
   N21        1.0     0.895088     0.547152     0.361681    Uiso  ? N
   N22        1.0     0.776718     0.428495     0.093465    Uiso  ? N
   N23        1.0     0.553738     0.539175     0.851228    Uiso  ? N
   N24        1.0     0.442688     0.426177     0.609803    Uiso  ? N
   N25        1.0     0.206795     0.878596     0.362876    Uiso  ? N
   N26        1.0     0.111385     0.761225     0.107768    Uiso  ? N
   N27        1.0     0.889017     0.872385     0.858764    Uiso  ? N
   N28        1.0     0.779538     0.761559     0.610056    Uiso  ? N
   N29        1.0     0.565869     0.881955     0.364095    Uiso  ? N
   N30        1.0     0.444300     0.760779     0.095572    Uiso  ? N
   N31        1.0     0.221403     0.872239     0.854077    Uiso  ? N
   N32        1.0     0.110419     0.759966     0.608533    Uiso  ? N
   N33        1.0     0.888888     0.873519     0.358095    Uiso  ? N
   N34        1.0     0.777159     0.761698     0.107184    Uiso  ? N
   N35        1.0     0.555666     0.872741     0.854163    Uiso  ? N
   N36        1.0     0.444375     0.762691     0.602277    Uiso  ? N
