
#======================================================================
# CRYSTAL DATA
#----------------------------------------------------------------------
data_VESTA_phase_1

_chemical_name_common                  'Al   Mg   Hf   N                      '
_cell_length_a                         9.817142
_cell_length_b                         9.814959
_cell_length_c                         9.023314
_cell_angle_alpha                      89.985939
_cell_angle_beta                       89.997536
_cell_angle_gamma                      59.871029
_cell_volume                           751.976573
_space_group_name_H-M_alt              'P 1'
_space_group_IT_number                 1

loop_
_space_group_symop_operation_xyz
   'x, y, z'

loop_
   _atom_site_label
   _atom_site_occupancy
   _atom_site_fract_x
   _atom_site_fract_y
   _atom_site_fract_z
   _atom_site_adp_type
   _atom_site_U_iso_or_equiv
   _atom_site_type_symbol
   Al1        1.0     0.107210     0.096017     0.334893    Uiso  ? Al
   Al2        1.0     0.222073     0.205584     0.086940    Uiso  ? Al
   Al3        1.0     0.778233     0.094855     0.836474    Uiso  ? Al
   Al4        1.0     0.888754     0.205028     0.582921    Uiso  ? Al
   Al5        1.0     0.445254     0.098200     0.336067    Uiso  ? Al
   Al6        1.0     0.556598     0.204458     0.085538    Uiso  ? Al
   Al7        1.0     0.108265     0.098448     0.837748    Uiso  ? Al
   Al8        1.0     0.221424     0.205809     0.586088    Uiso  ? Al
   Al9        1.0     0.778314     0.093092     0.336113    Uiso  ? Al
   Al10       1.0     0.887424     0.205614     0.090114    Uiso  ? Al
   Al11       1.0     0.442099     0.098453     0.836642    Uiso  ? Al
   Al12       1.0     0.555453     0.205871     0.586631    Uiso  ? Al
   Al13       1.0     0.111518     0.428432     0.336585    Uiso  ? Al
   Al14       1.0     0.221393     0.538301     0.086632    Uiso  ? Al
   Al15       1.0     0.781884     0.425943     0.845397    Uiso  ? Al
   Al16       1.0     0.889647     0.539663     0.583492    Uiso  ? Al
   Al17       1.0     0.442600     0.423804     0.334201    Uiso  ? Al
   Al18       1.0     0.557412     0.535104     0.080250    Uiso  ? Al
   Al19       1.0     0.110513     0.427887     0.836134    Uiso  ? Al
   Al20       1.0     0.222293     0.537415     0.585704    Uiso  ? Al
   Al21       1.0     0.889384     0.538258     0.090228    Uiso  ? Al
   Al22       1.0     0.441990     0.426330     0.838180    Uiso  ? Al
   Al23       1.0     0.559010     0.530116     0.597551    Uiso  ? Al
   Al24       1.0     0.106858     0.760770     0.336585    Uiso  ? Al
   Al25       1.0     0.218642     0.873548     0.078498    Uiso  ? Al
   Al26       1.0     0.782589     0.758508     0.838858    Uiso  ? Al
   Al27       1.0     0.888301     0.872618     0.586645    Uiso  ? Al
   Al28       1.0     0.557311     0.874573     0.078863    Uiso  ? Al
   Al29       1.0     0.109520     0.758600     0.836265    Uiso  ? Al
   Al30       1.0     0.213753     0.876523     0.598623    Uiso  ? Al
   Al31       1.0     0.783557     0.763060     0.333822    Uiso  ? Al
   Al32       1.0     0.888586     0.873904     0.085044    Uiso  ? Al
   Al33       1.0     0.444610     0.761176     0.835814    Uiso  ? Al
   Al34       1.0     0.561127     0.876546     0.598529    Uiso  ? Al
   Mg1        1.0     0.781374     0.424967     0.342005    Uiso  ? Mg
   Hf1        1.0     0.444262     0.762285     0.353222    Uiso  ? Hf
   N1         1.0     0.222833     0.203373     0.370846    Uiso  ? N
   N2         1.0     0.112857     0.092427     0.119560    Uiso  ? N
   N3         1.0     0.889501     0.202637     0.874044    Uiso  ? N
   N4         1.0     0.776918     0.094612     0.622662    Uiso  ? N
   N5         1.0     0.555333     0.205522     0.371713    Uiso  ? N
   N6         1.0     0.444881     0.093796     0.120762    Uiso  ? N
   N7         1.0     0.221691     0.206148     0.873232    Uiso  ? N
   N8         1.0     0.109934     0.097310     0.624685    Uiso  ? N
   N9         1.0     0.894403     0.191986     0.370521    Uiso  ? N
   N10        1.0     0.776613     0.093902     0.121600    Uiso  ? N
   N11        1.0     0.555993     0.204688     0.872791    Uiso  ? N
   N12        1.0     0.442656     0.097888     0.623658    Uiso  ? N
   N13        1.0     0.222583     0.538390     0.370825    Uiso  ? N
   N14        1.0     0.112740     0.426399     0.122636    Uiso  ? N
   N15        1.0     0.891615     0.539165     0.874074    Uiso  ? N
   N16        1.0     0.781091     0.426494     0.624795    Uiso  ? N
   N17        1.0     0.549229     0.527698     0.379477    Uiso  ? N
   N18        1.0     0.444387     0.427396     0.118722    Uiso  ? N
   N19        1.0     0.220878     0.538469     0.873296    Uiso  ? N
   N20        1.0     0.111983     0.426801     0.621639    Uiso  ? N
   N21        1.0     0.894919     0.547688     0.370206    Uiso  ? N
   N22        1.0     0.776388     0.428742     0.105590    Uiso  ? N
   N23        1.0     0.552954     0.539663     0.863913    Uiso  ? N
   N24        1.0     0.442222     0.425503     0.625787    Uiso  ? N
   N25        1.0     0.204705     0.879338     0.378675    Uiso  ? N
   N26        1.0     0.111534     0.761492     0.120909    Uiso  ? N
   N27        1.0     0.889404     0.872989     0.872399    Uiso  ? N
   N28        1.0     0.781036     0.760404     0.626410    Uiso  ? N
   N29        1.0     0.567221     0.881824     0.378562    Uiso  ? N
   N30        1.0     0.444046     0.762353     0.112841    Uiso  ? N
   N31        1.0     0.221432     0.871854     0.864273    Uiso  ? N
   N32        1.0     0.109956     0.758981     0.623243    Uiso  ? N
   N33        1.0     0.889086     0.873012     0.372207    Uiso  ? N
   N34        1.0     0.776701     0.763566     0.118260    Uiso  ? N
   N35        1.0     0.555543     0.873035     0.865057    Uiso  ? N
   N36        1.0     0.444533     0.763175     0.615383    Uiso  ? N
