
#======================================================================
# CRYSTAL DATA
#----------------------------------------------------------------------
data_VESTA_phase_1

_chemical_name_common                  'Al   Mg   Hf   N                      '
_cell_length_a                         9.942153
_cell_length_b                         9.939649
_cell_length_c                         8.629476
_cell_angle_alpha                      90.008720
_cell_angle_beta                       90.000854
_cell_angle_gamma                      59.871193
_cell_volume                           737.566781
_space_group_name_H-M_alt              'P 1'
_space_group_IT_number                 1

loop_
_space_group_symop_operation_xyz
   'x, y, z'

loop_
   _atom_site_label
   _atom_site_occupancy
   _atom_site_fract_x
   _atom_site_fract_y
   _atom_site_fract_z
   _atom_site_adp_type
   _atom_site_U_iso_or_equiv
   _atom_site_type_symbol
   Al1        1.0     0.107589     0.096161     0.364132    Uiso  ? Al
   Al2        1.0     0.221499     0.205730     0.112987    Uiso  ? Al
   Al3        1.0     0.778339     0.095046     0.862948    Uiso  ? Al
   Al4        1.0     0.887560     0.205611     0.608566    Uiso  ? Al
   Al5        1.0     0.444932     0.098365     0.363147    Uiso  ? Al
   Al6        1.0     0.555816     0.205559     0.112173    Uiso  ? Al
   Al7        1.0     0.108040     0.098389     0.862200    Uiso  ? Al
   Al8        1.0     0.222084     0.205472     0.613321    Uiso  ? Al
   Al9        1.0     0.778166     0.093038     0.363875    Uiso  ? Al
   Al10       1.0     0.888268     0.205454     0.116766    Uiso  ? Al
   Al11       1.0     0.442213     0.098241     0.863284    Uiso  ? Al
   Al12       1.0     0.556392     0.204617     0.614956    Uiso  ? Al
   Al13       1.0     0.111785     0.428305     0.363328    Uiso  ? Al
   Al14       1.0     0.222140     0.537576     0.113103    Uiso  ? Al
   Al15       1.0     0.781732     0.426005     0.856589    Uiso  ? Al
   Al16       1.0     0.889359     0.538431     0.608582    Uiso  ? Al
   Al17       1.0     0.442207     0.423830     0.364646    Uiso  ? Al
   Al18       1.0     0.559018     0.531120     0.102598    Uiso  ? Al
   Al19       1.0     0.110247     0.427910     0.863101    Uiso  ? Al
   Al20       1.0     0.221580     0.538126     0.613714    Uiso  ? Al
   Al21       1.0     0.889356     0.539262     0.116214    Uiso  ? Al
   Al22       1.0     0.442344     0.426589     0.861953    Uiso  ? Al
   Al23       1.0     0.558308     0.533206     0.618415    Uiso  ? Al
   Al24       1.0     0.107097     0.760485     0.362830    Uiso  ? Al
   Al25       1.0     0.214989     0.875820     0.100853    Uiso  ? Al
   Al26       1.0     0.782563     0.758384     0.861458    Uiso  ? Al
   Al27       1.0     0.888531     0.873785     0.615308    Uiso  ? Al
   Al28       1.0     0.560314     0.875863     0.100835    Uiso  ? Al
   Al29       1.0     0.109586     0.758767     0.863589    Uiso  ? Al
   Al30       1.0     0.217032     0.874450     0.622263    Uiso  ? Al
   Al31       1.0     0.783545     0.762875     0.365272    Uiso  ? Al
   Al32       1.0     0.888274     0.872966     0.112223    Uiso  ? Al
   Al33       1.0     0.444806     0.760753     0.860688    Uiso  ? Al
   Al34       1.0     0.558343     0.875412     0.621973    Uiso  ? Al
   Mg1        1.0     0.781498     0.425092     0.358778    Uiso  ? Mg
   Hf1        1.0     0.443965     0.762667     0.353784    Uiso  ? Hf
   N1         1.0     0.222804     0.203600     0.346833    Uiso  ? N
   N2         1.0     0.110353     0.096331     0.093855    Uiso  ? N
   N3         1.0     0.889366     0.203093     0.844331    Uiso  ? N
   N4         1.0     0.776483     0.094006     0.597015    Uiso  ? N
   N5         1.0     0.555483     0.205367     0.346109    Uiso  ? N
   N6         1.0     0.443169     0.096933     0.094600    Uiso  ? N
   N7         1.0     0.221682     0.205986     0.845451    Uiso  ? N
   N8         1.0     0.112528     0.093208     0.598520    Uiso  ? N
   N9         1.0     0.894039     0.192658     0.348453    Uiso  ? N
   N10        1.0     0.776948     0.094603     0.095089    Uiso  ? N
   N11        1.0     0.555842     0.204830     0.845793    Uiso  ? N
   N12        1.0     0.444498     0.094584     0.597553    Uiso  ? N
   N13        1.0     0.222357     0.538528     0.346786    Uiso  ? N
   N14        1.0     0.111966     0.426757     0.096439    Uiso  ? N
   N15        1.0     0.891283     0.539111     0.844376    Uiso  ? N
   N16        1.0     0.777242     0.428333     0.610219    Uiso  ? N
   N17        1.0     0.549283     0.529195     0.343421    Uiso  ? N
   N18        1.0     0.442861     0.425999     0.092870    Uiso  ? N
   N19        1.0     0.220972     0.538419     0.845387    Uiso  ? N
   N20        1.0     0.112848     0.426270     0.595827    Uiso  ? N
   N21        1.0     0.894786     0.547048     0.348607    Uiso  ? N
   N22        1.0     0.780096     0.426968     0.091011    Uiso  ? N
   N23        1.0     0.553375     0.538844     0.851387    Uiso  ? N
   N24        1.0     0.443965     0.426830     0.599392    Uiso  ? N
   N25        1.0     0.206280     0.878605     0.342020    Uiso  ? N
   N26        1.0     0.110316     0.759534     0.094874    Uiso  ? N
   N27        1.0     0.889417     0.872911     0.845948    Uiso  ? N
   N28        1.0     0.777385     0.763253     0.599884    Uiso  ? N
   N29        1.0     0.566152     0.880937     0.342358    Uiso  ? N
   N30        1.0     0.444504     0.762910     0.095010    Uiso  ? N
   N31        1.0     0.220650     0.872239     0.851581    Uiso  ? N
   N32        1.0     0.111253     0.761068     0.597389    Uiso  ? N
   N33        1.0     0.889189     0.873042     0.345767    Uiso  ? N
   N34        1.0     0.780119     0.760948     0.092064    Uiso  ? N
   N35        1.0     0.555990     0.873388     0.851038    Uiso  ? N
   N36        1.0     0.444025     0.762773     0.607615    Uiso  ? N
