
#======================================================================
# CRYSTAL DATA
#----------------------------------------------------------------------
data_VESTA_phase_1

_chemical_name_common                  'Al   Mg   Hf   N                      '
_cell_length_a                         9.723860
_cell_length_b                         9.722043
_cell_length_c                         9.312243
_cell_angle_alpha                      90.017334
_cell_angle_beta                       90.004356
_cell_angle_gamma                      59.871086
_cell_volume                           761.404588
_space_group_name_H-M_alt              'P 1'
_space_group_IT_number                 1

loop_
_space_group_symop_operation_xyz
   'x, y, z'

loop_
   _atom_site_label
   _atom_site_occupancy
   _atom_site_fract_x
   _atom_site_fract_y
   _atom_site_fract_z
   _atom_site_adp_type
   _atom_site_U_iso_or_equiv
   _atom_site_type_symbol
   Al1        1.0     0.106433     0.096523     0.378348    Uiso  ? Al
   Al2        1.0     0.221457     0.205859     0.127307    Uiso  ? Al
   Al3        1.0     0.778062     0.094628     0.877007    Uiso  ? Al
   Al4        1.0     0.887367     0.205899     0.624929    Uiso  ? Al
   Al5        1.0     0.445241     0.098484     0.377523    Uiso  ? Al
   Al6        1.0     0.555372     0.205902     0.126974    Uiso  ? Al
   Al7        1.0     0.108884     0.097808     0.875742    Uiso  ? Al
   Al8        1.0     0.221928     0.205663     0.626267    Uiso  ? Al
   Al9        1.0     0.778561     0.093354     0.376890    Uiso  ? Al
   Al10       1.0     0.888905     0.204781     0.129586    Uiso  ? Al
   Al11       1.0     0.442334     0.098027     0.876468    Uiso  ? Al
   Al12       1.0     0.556591     0.204593     0.627372    Uiso  ? Al
   Al13       1.0     0.111035     0.428658     0.376613    Uiso  ? Al
   Al14       1.0     0.222260     0.537421     0.127773    Uiso  ? Al
   Al15       1.0     0.781417     0.426198     0.869622    Uiso  ? Al
   Al16       1.0     0.889166     0.538177     0.624740    Uiso  ? Al
   Al17       1.0     0.442812     0.423714     0.378988    Uiso  ? Al
   Al18       1.0     0.559001     0.529659     0.117279    Uiso  ? Al
   Al19       1.0     0.110825     0.427789     0.877266    Uiso  ? Al
   Al20       1.0     0.221428     0.538339     0.626565    Uiso  ? Al
   Al21       1.0     0.889866     0.539754     0.129129    Uiso  ? Al
   Al22       1.0     0.442052     0.426401     0.875289    Uiso  ? Al
   Al23       1.0     0.557205     0.535874     0.633171    Uiso  ? Al
   Al24       1.0     0.106571     0.760735     0.377010    Uiso  ? Al
   Al25       1.0     0.213107     0.876844     0.117027    Uiso  ? Al
   Al26       1.0     0.781969     0.759034     0.874791    Uiso  ? Al
   Al27       1.0     0.888568     0.873779     0.627826    Uiso  ? Al
   Al28       1.0     0.561415     0.877009     0.116962    Uiso  ? Al
   Al29       1.0     0.109729     0.758851     0.876828    Uiso  ? Al
   Al30       1.0     0.219487     0.873143     0.633551    Uiso  ? Al
   Al31       1.0     0.784032     0.762655     0.379101    Uiso  ? Al
   Al32       1.0     0.888347     0.872583     0.127063    Uiso  ? Al
   Al33       1.0     0.444446     0.761458     0.880561    Uiso  ? Al
   Al34       1.0     0.556935     0.873942     0.633227    Uiso  ? Al
   Mg1        1.0     0.781794     0.424536     0.372619    Uiso  ? Mg
   Hf1        1.0     0.444629     0.761906     0.358850    Uiso  ? Hf
   N1         1.0     0.222815     0.203355     0.333670    Uiso  ? N
   N2         1.0     0.110114     0.097259     0.079852    Uiso  ? N
   N3         1.0     0.889551     0.202648     0.831348    Uiso  ? N
   N4         1.0     0.776888     0.094033     0.582739    Uiso  ? N
   N5         1.0     0.555348     0.205518     0.332855    Uiso  ? N
   N6         1.0     0.442639     0.097980     0.080779    Uiso  ? N
   N7         1.0     0.221738     0.206087     0.831243    Uiso  ? N
   N8         1.0     0.112543     0.092507     0.584621    Uiso  ? N
   N9         1.0     0.894527     0.191651     0.332109    Uiso  ? N
   N10        1.0     0.776824     0.094488     0.081906    Uiso  ? N
   N11        1.0     0.555952     0.204747     0.831594    Uiso  ? N
   N12        1.0     0.444912     0.093640     0.583608    Uiso  ? N
   N13        1.0     0.222624     0.538315     0.333707    Uiso  ? N
   N14        1.0     0.112141     0.426754     0.082644    Uiso  ? N
   N15        1.0     0.891455     0.539272     0.831262    Uiso  ? N
   N16        1.0     0.776304     0.428778     0.598232    Uiso  ? N
   N17        1.0     0.549501     0.526640     0.323340    Uiso  ? N
   N18        1.0     0.442113     0.425424     0.078871    Uiso  ? N
   N19        1.0     0.220984     0.538522     0.831237    Uiso  ? N
   N20        1.0     0.112315     0.426695     0.581945    Uiso  ? N
   N21        1.0     0.895047     0.547877     0.332577    Uiso  ? N
   N22        1.0     0.781074     0.426491     0.080110    Uiso  ? N
   N23        1.0     0.552723     0.540269     0.840352    Uiso  ? N
   N24        1.0     0.444483     0.427670     0.585347    Uiso  ? N
   N25        1.0     0.203861     0.879700     0.325689    Uiso  ? N
   N26        1.0     0.109911     0.759008     0.081210    Uiso  ? N
   N27        1.0     0.889346     0.872896     0.831965    Uiso  ? N
   N28        1.0     0.776748     0.763214     0.585607    Uiso  ? N
   N29        1.0     0.567691     0.882444     0.325516    Uiso  ? N
   N30        1.0     0.444496     0.763251     0.092263    Uiso  ? N
   N31        1.0     0.222101     0.871585     0.839329    Uiso  ? N
   N32        1.0     0.111579     0.761503     0.583478    Uiso  ? N
   N33        1.0     0.889031     0.873095     0.332417    Uiso  ? N
   N34        1.0     0.781007     0.760571     0.078406    Uiso  ? N
   N35        1.0     0.555263     0.872637     0.838640    Uiso  ? N
   N36        1.0     0.444150     0.761974     0.588902    Uiso  ? N
