
#======================================================================
# CRYSTAL DATA
#----------------------------------------------------------------------
data_VESTA_phase_1

_chemical_name_common                  'Al   Mg   Hf   N                      '
_cell_length_a                         9.460762
_cell_length_b                         9.462039
_cell_length_c                         10.053064
_cell_angle_alpha                      90.028786
_cell_angle_beta                       90.024643
_cell_angle_gamma                      59.897068
_cell_volume                           778.553555
_space_group_name_H-M_alt              'P 1'
_space_group_IT_number                 1

loop_
_space_group_symop_operation_xyz
   'x, y, z'

loop_
   _atom_site_label
   _atom_site_occupancy
   _atom_site_fract_x
   _atom_site_fract_y
   _atom_site_fract_z
   _atom_site_adp_type
   _atom_site_U_iso_or_equiv
   _atom_site_type_symbol
   Al1        1.0     0.104759     0.098409     0.385332    Uiso  ? Al
   Al2        1.0     0.221683     0.205929     0.135386    Uiso  ? Al
   Al3        1.0     0.777654     0.094129     0.885556    Uiso  ? Al
   Al4        1.0     0.887543     0.206609     0.637281    Uiso  ? Al
   Al5        1.0     0.444609     0.099674     0.385729    Uiso  ? Al
   Al6        1.0     0.555614     0.205722     0.135316    Uiso  ? Al
   Al7        1.0     0.110401     0.095871     0.885708    Uiso  ? Al
   Al8        1.0     0.221298     0.206028     0.634996    Uiso  ? Al
   Al9        1.0     0.779259     0.094221     0.384553    Uiso  ? Al
   Al10       1.0     0.889108     0.204291     0.135715    Uiso  ? Al
   Al11       1.0     0.443291     0.096557     0.885283    Uiso  ? Al
   Al12       1.0     0.556263     0.205248     0.635304    Uiso  ? Al
   Al13       1.0     0.109653     0.429288     0.384815    Uiso  ? Al
   Al14       1.0     0.222060     0.537926     0.136022    Uiso  ? Al
   Al15       1.0     0.779723     0.426868     0.884438    Uiso  ? Al
   Al16       1.0     0.888440     0.538208     0.637156    Uiso  ? Al
   Al17       1.0     0.443336     0.423717     0.385794    Uiso  ? Al
   Al18       1.0     0.557273     0.533129     0.129440    Uiso  ? Al
   Al19       1.0     0.111387     0.427671     0.885735    Uiso  ? Al
   Al20       1.0     0.221658     0.538347     0.635288    Uiso  ? Al
   Al21       1.0     0.889990     0.539694     0.135781    Uiso  ? Al
   Al22       1.0     0.442842     0.426749     0.885521    Uiso  ? Al
   Al23       1.0     0.558200     0.534311     0.643114    Uiso  ? Al
   Al24       1.0     0.106331     0.760299     0.385276    Uiso  ? Al
   Al25       1.0     0.216402     0.875132     0.130462    Uiso  ? Al
   Al26       1.0     0.779928     0.760615     0.885407    Uiso  ? Al
   Al27       1.0     0.888343     0.873110     0.635394    Uiso  ? Al
   Al28       1.0     0.559375     0.875662     0.129528    Uiso  ? Al
   Al29       1.0     0.110135     0.760056     0.885568    Uiso  ? Al
   Al30       1.0     0.218118     0.874037     0.640687    Uiso  ? Al
   Al31       1.0     0.785285     0.760836     0.385271    Uiso  ? Al
   Al32       1.0     0.888479     0.872814     0.135828    Uiso  ? Al
   Al33       1.0     0.444065     0.761670     0.888311    Uiso  ? Al
   Al34       1.0     0.557666     0.873810     0.640747    Uiso  ? Al
   Mg1        1.0     0.783606     0.422755     0.385588    Uiso  ? Mg
   Hf1        1.0     0.446129     0.760620     0.379815    Uiso  ? Hf
   N1         1.0     0.222547     0.204099     0.327297    Uiso  ? N
   N2         1.0     0.111395     0.095651     0.074937    Uiso  ? N
   N3         1.0     0.889529     0.203491     0.828204    Uiso  ? N
   N4         1.0     0.777664     0.094510     0.576577    Uiso  ? N
   N5         1.0     0.555877     0.205299     0.326437    Uiso  ? N
   N6         1.0     0.443251     0.096855     0.075322    Uiso  ? N
   N7         1.0     0.221958     0.205607     0.825673    Uiso  ? N
   N8         1.0     0.111247     0.093522     0.577196    Uiso  ? N
   N9         1.0     0.894572     0.191496     0.321713    Uiso  ? N
   N10        1.0     0.776799     0.094101     0.075549    Uiso  ? N
   N11        1.0     0.555497     0.205258     0.825609    Uiso  ? N
   N12        1.0     0.444585     0.093736     0.576823    Uiso  ? N
   N13        1.0     0.222555     0.538216     0.327367    Uiso  ? N
   N14        1.0     0.112375     0.426856     0.076001    Uiso  ? N
   N15        1.0     0.890071     0.539627     0.828181    Uiso  ? N
   N16        1.0     0.776725     0.428486     0.590924    Uiso  ? N
   N17        1.0     0.549590     0.528015     0.316710    Uiso  ? N
   N18        1.0     0.442649     0.426130     0.074522    Uiso  ? N
   N19        1.0     0.221619     0.538836     0.825797    Uiso  ? N
   N20        1.0     0.110881     0.427691     0.576433    Uiso  ? N
   N21        1.0     0.895071     0.547190     0.322798    Uiso  ? N
   N22        1.0     0.779792     0.427042     0.075811    Uiso  ? N
   N23        1.0     0.553645     0.539306     0.833127    Uiso  ? N
   N24        1.0     0.444398     0.428086     0.577552    Uiso  ? N
   N25        1.0     0.206446     0.878694     0.321507    Uiso  ? N
   N26        1.0     0.110385     0.759916     0.075830    Uiso  ? N
   N27        1.0     0.889022     0.872391     0.825678    Uiso  ? N
   N28        1.0     0.777193     0.761710     0.577322    Uiso  ? N
   N29        1.0     0.566050     0.882063     0.320317    Uiso  ? N
   N30        1.0     0.444366     0.762712     0.082639    Uiso  ? N
   N31        1.0     0.221547     0.872128     0.830333    Uiso  ? N
   N32        1.0     0.111385     0.761196     0.576708    Uiso  ? N
   N33        1.0     0.888881     0.873492     0.326344    Uiso  ? N
   N34        1.0     0.779582     0.761532     0.074272    Uiso  ? N
   N35        1.0     0.555598     0.872649     0.830230    Uiso  ? N
   N36        1.0     0.444310     0.760793     0.588117    Uiso  ? N
