
#======================================================================
# CRYSTAL DATA
#----------------------------------------------------------------------
data_VESTA_phase_1

_chemical_name_common                  'Al   Mg   Hf   N                      '
_cell_length_a                         10.015734
_cell_length_b                         10.013304
_cell_length_c                         8.419338
_cell_angle_alpha                      90.000000
_cell_angle_beta                       89.999992
_cell_angle_gamma                      59.873718
_cell_volume                           730.322536
_space_group_name_H-M_alt              'P 1'
_space_group_IT_number                 1

loop_
_space_group_symop_operation_xyz
   'x, y, z'

loop_
   _atom_site_label
   _atom_site_occupancy
   _atom_site_fract_x
   _atom_site_fract_y
   _atom_site_fract_z
   _atom_site_adp_type
   _atom_site_U_iso_or_equiv
   _atom_site_type_symbol
   Al1        1.0     0.107250     0.096727     0.354476    Uiso  ? Al
   Al2        1.0     0.221795     0.205592     0.103970    Uiso  ? Al
   Al3        1.0     0.778240     0.094949     0.854475    Uiso  ? Al
   Al4        1.0     0.887817     0.205672     0.601457    Uiso  ? Al
   Al5        1.0     0.444601     0.098732     0.354473    Uiso  ? Al
   Al6        1.0     0.556151     0.205066     0.102893    Uiso  ? Al
   Al7        1.0     0.108455     0.097758     0.854473    Uiso  ? Al
   Al8        1.0     0.221796     0.205592     0.604977    Uiso  ? Al
   Al9        1.0     0.778352     0.093182     0.354476    Uiso  ? Al
   Al10       1.0     0.887817     0.205672     0.107498    Uiso  ? Al
   Al11       1.0     0.442494     0.097755     0.854473    Uiso  ? Al
   Al12       1.0     0.556151     0.205066     0.606058    Uiso  ? Al
   Al13       1.0     0.111578     0.428477     0.354474    Uiso  ? Al
   Al14       1.0     0.221890     0.537830     0.103704    Uiso  ? Al
   Al15       1.0     0.781189     0.426307     0.854472    Uiso  ? Al
   Al16       1.0     0.889271     0.538758     0.601580    Uiso  ? Al
   Al17       1.0     0.442069     0.423897     0.354476    Uiso  ? Al
   Al18       1.0     0.559109     0.531498     0.098047    Uiso  ? Al
   Al19       1.0     0.110366     0.427834     0.854474    Uiso  ? Al
   Al20       1.0     0.221890     0.537831     0.605244    Uiso  ? Al
   Al21       1.0     0.889271     0.538759     0.107374    Uiso  ? Al
   Al22       1.0     0.442600     0.426815     0.854474    Uiso  ? Al
   Al23       1.0     0.559108     0.531500     0.610908    Uiso  ? Al
   Al24       1.0     0.107068     0.760222     0.354473    Uiso  ? Al
   Al25       1.0     0.215564     0.875379     0.095275    Uiso  ? Al
   Al26       1.0     0.782038     0.758805     0.854473    Uiso  ? Al
   Al27       1.0     0.888345     0.873442     0.606123    Uiso  ? Al
   Al28       1.0     0.559555     0.875858     0.095338    Uiso  ? Al
   Al29       1.0     0.109789     0.759088     0.854474    Uiso  ? Al
   Al30       1.0     0.215565     0.875378     0.613671    Uiso  ? Al
   Al31       1.0     0.783928     0.762268     0.354478    Uiso  ? Al
   Al32       1.0     0.888344     0.873441     0.102827    Uiso  ? Al
   Al33       1.0     0.444776     0.760701     0.854472    Uiso  ? Al
   Al34       1.0     0.559554     0.875858     0.613607    Uiso  ? Al
   Mg1        1.0     0.782049     0.424807     0.354477    Uiso  ? Mg
   Hf1        1.0     0.443943     0.762624     0.354471    Uiso  ? Hf
   N1         1.0     0.222705     0.203913     0.354470    Uiso  ? N
   N2         1.0     0.111428     0.094781     0.102692    Uiso  ? N
   N3         1.0     0.889491     0.203172     0.854467    Uiso  ? N
   N4         1.0     0.776680     0.094323     0.605718    Uiso  ? N
   N5         1.0     0.555657     0.205216     0.354470    Uiso  ? N
   N6         1.0     0.443868     0.095761     0.103172    Uiso  ? N
   N7         1.0     0.221757     0.205734     0.854470    Uiso  ? N
   N8         1.0     0.111430     0.094779     0.606247    Uiso  ? N
   N9         1.0     0.893871     0.192878     0.354472    Uiso  ? N
   N10        1.0     0.776681     0.094324     0.103221    Uiso  ? N
   N11        1.0     0.555592     0.205068     0.854470    Uiso  ? N
   N12        1.0     0.443868     0.095760     0.605768    Uiso  ? N
   N13        1.0     0.222174     0.538597     0.354470    Uiso  ? N
   N14        1.0     0.112427     0.426485     0.104336    Uiso  ? N
   N15        1.0     0.890997     0.539376     0.854467    Uiso  ? N
   N16        1.0     0.778625     0.427632     0.613902    Uiso  ? N
   N17        1.0     0.549510     0.529753     0.354468    Uiso  ? N
   N18        1.0     0.443474     0.426333     0.102057    Uiso  ? N
   N19        1.0     0.221184     0.538469     0.854470    Uiso  ? N
   N20        1.0     0.112428     0.426485     0.604604    Uiso  ? N
   N21        1.0     0.894897     0.546576     0.354472    Uiso  ? N
   N22        1.0     0.778628     0.427631     0.095042    Uiso  ? N
   N23        1.0     0.553322     0.538533     0.854472    Uiso  ? N
   N24        1.0     0.443475     0.426333     0.606882    Uiso  ? N
   N25        1.0     0.207063     0.878251     0.354468    Uiso  ? N
   N26        1.0     0.110744     0.760337     0.103305    Uiso  ? N
   N27        1.0     0.889437     0.872694     0.854470    Uiso  ? N
   N28        1.0     0.778700     0.762173     0.607410    Uiso  ? N
   N29        1.0     0.565449     0.880546     0.354469    Uiso  ? N
   N30        1.0     0.444229     0.762912     0.096137    Uiso  ? N
   N31        1.0     0.220241     0.872467     0.854471    Uiso  ? N
   N32        1.0     0.110744     0.760338     0.605635    Uiso  ? N
   N33        1.0     0.889218     0.873124     0.354469    Uiso  ? N
   N34        1.0     0.778701     0.762172     0.101528    Uiso  ? N
   N35        1.0     0.556329     0.873499     0.854470    Uiso  ? N
   N36        1.0     0.444229     0.762911     0.612805    Uiso  ? N
