
#======================================================================
# CRYSTAL DATA
#----------------------------------------------------------------------
data_VESTA_phase_1

_chemical_name_common                  'Al   Hf   Mg   N'
_cell_length_a                         9.439865
_cell_length_b                         9.454506
_cell_length_c                         10.072162
_cell_angle_alpha                      90.029259
_cell_angle_beta                       90.001251
_cell_angle_gamma                      60.040600
_cell_volume                           778.816966
_space_group_name_H-M_alt              'P 1'
_space_group_IT_number                 1

loop_
_space_group_symop_operation_xyz
   'x, y, z'

loop_
   _atom_site_label
   _atom_site_occupancy
   _atom_site_fract_x
   _atom_site_fract_y
   _atom_site_fract_z
   _atom_site_adp_type
   _atom_site_U_iso_or_equiv
   _atom_site_type_symbol
   Al1        1.0     0.116645     0.091673     0.391195    Uiso  ? Al
   Al2        1.0     0.222929     0.206259     0.146501    Uiso  ? Al
   Al3        1.0     0.775085     0.092396     0.904033    Uiso  ? Al
   Al4        1.0     0.444211     0.093383     0.396380    Uiso  ? Al
   Al5        1.0     0.553628     0.206549     0.145312    Uiso  ? Al
   Al6        1.0     0.115400     0.092063     0.901518    Uiso  ? Al
   Al7        1.0     0.228541     0.203209     0.645940    Uiso  ? Al
   Al8        1.0     0.776168     0.090551     0.390178    Uiso  ? Al
   Al9        1.0     0.889294     0.205694     0.148733    Uiso  ? Al
   Al10       1.0     0.445769     0.094159     0.898044    Uiso  ? Al
   Al11       1.0     0.111647     0.427635     0.396072    Uiso  ? Al
   Al12       1.0     0.221952     0.539058     0.146417    Uiso  ? Al
   Al13       1.0     0.775617     0.431585     0.901595    Uiso  ? Al
   Al14       1.0     0.888740     0.544261     0.646363    Uiso  ? Al
   Al15       1.0     0.443344     0.429653     0.396470    Uiso  ? Al
   Al16       1.0     0.553444     0.540522     0.146216    Uiso  ? Al
   Al17       1.0     0.112055     0.427310     0.895691    Uiso  ? Al
   Al18       1.0     0.223707     0.538938     0.645509    Uiso  ? Al
   Al19       1.0     0.774124     0.434722     0.390236    Uiso  ? Al
   Al20       1.0     0.890035     0.539846     0.146040    Uiso  ? Al
   Al21       1.0     0.444933     0.426621     0.897935    Uiso  ? Al
   Al22       1.0     0.548072     0.546031     0.645856    Uiso  ? Al
   Al23       1.0     0.111282     0.759991     0.396715    Uiso  ? Al
   Al24       1.0     0.223232     0.870181     0.146324    Uiso  ? Al
   Al25       1.0     0.777103     0.761495     0.895963    Uiso  ? Al
   Al26       1.0     0.889961     0.867121     0.646391    Uiso  ? Al
   Al27       1.0     0.444861     0.761290     0.396516    Uiso  ? Al
   Al28       1.0     0.555691     0.871749     0.146224    Uiso  ? Al
   Al29       1.0     0.111670     0.760020     0.895975    Uiso  ? Al
   Al30       1.0     0.226967     0.866668     0.645908    Uiso  ? Al
   Al31       1.0     0.777686     0.761342     0.395995    Uiso  ? Al
   Al32       1.0     0.890485     0.869574     0.146329    Uiso  ? Al
   Al33       1.0     0.445012     0.761385     0.896041    Uiso  ? Al
   Al34       1.0     0.554042     0.873505     0.645229    Uiso  ? Al
   Hf1        1.0     0.887151     0.206742     0.641401    Uiso  ? Hf
   Mg1        1.0     0.549701     0.206322     0.646410    Uiso  ? Mg
   N1         1.0     0.221892     0.207032     0.335441    Uiso  ? N
   N2         1.0     0.111947     0.093597     0.090777    Uiso  ? N
   N3         1.0     0.889051     0.205034     0.849283    Uiso  ? N
   N4         1.0     0.783826     0.077817     0.577152    Uiso  ? N
   N5         1.0     0.553578     0.206791     0.336323    Uiso  ? N
   N6         1.0     0.443799     0.093042     0.088692    Uiso  ? N
   N7         1.0     0.222111     0.204746     0.837567    Uiso  ? N
   N8         1.0     0.126557     0.085345     0.581977    Uiso  ? N
   N9         1.0     0.888977     0.207019     0.342577    Uiso  ? N
   N10        1.0     0.779613     0.092868     0.093626    Uiso  ? N
   N11        1.0     0.556632     0.205169     0.851389    Uiso  ? N
   N12        1.0     0.438738     0.086071     0.582067    Uiso  ? N
   N13        1.0     0.220970     0.539232     0.336406    Uiso  ? N
   N14        1.0     0.111376     0.427549     0.086117    Uiso  ? N
   N15        1.0     0.888765     0.538276     0.837202    Uiso  ? N
   N16        1.0     0.767482     0.447778     0.580758    Uiso  ? N
   N17        1.0     0.553814     0.541050     0.334798    Uiso  ? N
   N18        1.0     0.443325     0.429653     0.088683    Uiso  ? N
   N19        1.0     0.222505     0.538547     0.836883    Uiso  ? N
   N20        1.0     0.110794     0.426704     0.587712    Uiso  ? N
   N21        1.0     0.890065     0.540066     0.335807    Uiso  ? N
   N22        1.0     0.777684     0.428362     0.090691    Uiso  ? N
   N23        1.0     0.556192     0.538812     0.837669    Uiso  ? N
   N24        1.0     0.438263     0.442194     0.583173    Uiso  ? N
   N25        1.0     0.222933     0.870339     0.336320    Uiso  ? N
   N26        1.0     0.111696     0.760493     0.086241    Uiso  ? N
   N27        1.0     0.888941     0.872490     0.837908    Uiso  ? N
   N28        1.0     0.777412     0.761205     0.586845    Uiso  ? N
   N29        1.0     0.556523     0.870885     0.335941    Uiso  ? N
   N30        1.0     0.444333     0.761358     0.086089    Uiso  ? N
   N31        1.0     0.221966     0.872565     0.837085    Uiso  ? N
   N32        1.0     0.110774     0.760783     0.587785    Uiso  ? N
   N33        1.0     0.890663     0.868819     0.335050    Uiso  ? N
   N34        1.0     0.777870     0.760744     0.086030    Uiso  ? N
   N35        1.0     0.555663     0.872170     0.837003    Uiso  ? N
   N36        1.0     0.444464     0.762361     0.586758    Uiso  ? N
