
#======================================================================
# CRYSTAL DATA
#----------------------------------------------------------------------
data_VESTA_phase_1

_chemical_name_common                  'Al   Hf   Mg   N'
_cell_length_a                         9.439863
_cell_length_b                         9.454501
_cell_length_c                         10.072175
_cell_angle_alpha                      89.970802
_cell_angle_beta                       89.998779
_cell_angle_gamma                      60.040535
_cell_volume                           778.816940
_space_group_name_H-M_alt              'P 1'
_space_group_IT_number                 1

loop_
_space_group_symop_operation_xyz
   'x, y, z'

loop_
   _atom_site_label
   _atom_site_occupancy
   _atom_site_fract_x
   _atom_site_fract_y
   _atom_site_fract_z
   _atom_site_adp_type
   _atom_site_U_iso_or_equiv
   _atom_site_type_symbol
   Al1        1.0     0.115384     0.092104     0.296923    Uiso  ? Al
   Al2        1.0     0.222914     0.206299     0.051938    Uiso  ? Al
   Al3        1.0     0.776153     0.090592     0.808265    Uiso  ? Al
   Al4        1.0     0.445753     0.094200     0.300399    Uiso  ? Al
   Al5        1.0     0.553610     0.206590     0.053126    Uiso  ? Al
   Al6        1.0     0.116628     0.091715     0.807250    Uiso  ? Al
   Al7        1.0     0.228523     0.203250     0.552499    Uiso  ? Al
   Al8        1.0     0.775068     0.092437     0.294406    Uiso  ? Al
   Al9        1.0     0.889278     0.205736     0.049714    Uiso  ? Al
   Al10       1.0     0.444195     0.093423     0.802057    Uiso  ? Al
   Al11       1.0     0.112038     0.427351     0.302746    Uiso  ? Al
   Al12       1.0     0.221937     0.539099     0.052022    Uiso  ? Al
   Al13       1.0     0.774108     0.434762     0.808208    Uiso  ? Al
   Al14       1.0     0.888724     0.544301     0.552077    Uiso  ? Al
   Al15       1.0     0.444917     0.426662     0.300508    Uiso  ? Al
   Al16       1.0     0.553427     0.540563     0.052223    Uiso  ? Al
   Al17       1.0     0.111631     0.427676     0.802366    Uiso  ? Al
   Al18       1.0     0.223690     0.538979     0.552928    Uiso  ? Al
   Al19       1.0     0.775600     0.431627     0.296846    Uiso  ? Al
   Al20       1.0     0.890019     0.539887     0.052397    Uiso  ? Al
   Al21       1.0     0.443328     0.429694     0.801967    Uiso  ? Al
   Al22       1.0     0.548057     0.546073     0.552583    Uiso  ? Al
   Al23       1.0     0.111654     0.760062     0.302463    Uiso  ? Al
   Al24       1.0     0.223216     0.870222     0.052115    Uiso  ? Al
   Al25       1.0     0.777669     0.761384     0.802442    Uiso  ? Al
   Al26       1.0     0.889945     0.867163     0.552049    Uiso  ? Al
   Al27       1.0     0.444996     0.761426     0.302396    Uiso  ? Al
   Al28       1.0     0.555675     0.871791     0.052213    Uiso  ? Al
   Al29       1.0     0.111266     0.760032     0.801724    Uiso  ? Al
   Al30       1.0     0.226951     0.866710     0.552531    Uiso  ? Al
   Al31       1.0     0.777088     0.761536     0.302474    Uiso  ? Al
   Al32       1.0     0.890469     0.869615     0.052109    Uiso  ? Al
   Al33       1.0     0.444844     0.761331     0.801923    Uiso  ? Al
   Al34       1.0     0.554026     0.873545     0.553208    Uiso  ? Al
   Hf1        1.0     0.887136     0.206784     0.557041    Uiso  ? Hf
   Mg1        1.0     0.549686     0.206362     0.552033    Uiso  ? Mg
   N1         1.0     0.222095     0.204788     0.360874    Uiso  ? N
   N2         1.0     0.111932     0.093638     0.107665    Uiso  ? N
   N3         1.0     0.888961     0.207060     0.855870    Uiso  ? N
   N4         1.0     0.783811     0.077857     0.621292    Uiso  ? N
   N5         1.0     0.556617     0.205210     0.347055    Uiso  ? N
   N6         1.0     0.443783     0.093083     0.109750    Uiso  ? N
   N7         1.0     0.221877     0.207073     0.862999    Uiso  ? N
   N8         1.0     0.126541     0.085386     0.616467    Uiso  ? N
   N9         1.0     0.889035     0.205075     0.349158    Uiso  ? N
   N10        1.0     0.779595     0.092908     0.104815    Uiso  ? N
   N11        1.0     0.553561     0.206833     0.862116    Uiso  ? N
   N12        1.0     0.438722     0.086112     0.616371    Uiso  ? N
   N13        1.0     0.222488     0.538589     0.361555    Uiso  ? N
   N14        1.0     0.111360     0.427591     0.112322    Uiso  ? N
   N15        1.0     0.890049     0.540107     0.862633    Uiso  ? N
   N16        1.0     0.767467     0.447818     0.617685    Uiso  ? N
   N17        1.0     0.556176     0.538854     0.360771    Uiso  ? N
   N18        1.0     0.443309     0.429694     0.109759    Uiso  ? N
   N19        1.0     0.220954     0.539272     0.862034    Uiso  ? N
   N20        1.0     0.110778     0.426745     0.610728    Uiso  ? N
   N21        1.0     0.888749     0.538318     0.361238    Uiso  ? N
   N22        1.0     0.777667     0.428405     0.107750    Uiso  ? N
   N23        1.0     0.553797     0.541092     0.863642    Uiso  ? N
   N24        1.0     0.438246     0.442236     0.615265    Uiso  ? N
   N25        1.0     0.221950     0.872605     0.361355    Uiso  ? N
   N26        1.0     0.111680     0.760534     0.112198    Uiso  ? N
   N27        1.0     0.890647     0.868859     0.863389    Uiso  ? N
   N28        1.0     0.777395     0.761246     0.611594    Uiso  ? N
   N29        1.0     0.555648     0.872211     0.361435    Uiso  ? N
   N30        1.0     0.444317     0.761399     0.112350    Uiso  ? N
   N31        1.0     0.222917     0.870379     0.862120    Uiso  ? N
   N32        1.0     0.110758     0.760824     0.610655    Uiso  ? N
   N33        1.0     0.888925     0.872531     0.360532    Uiso  ? N
   N34        1.0     0.777854     0.760785     0.112408    Uiso  ? N
   N35        1.0     0.556507     0.870926     0.862498    Uiso  ? N
   N36        1.0     0.444448     0.762402     0.611681    Uiso  ? N
