
#======================================================================
# CRYSTAL DATA
#----------------------------------------------------------------------
data_VESTA_phase_1

_chemical_name_common                  'Al   Hf   Mg   N'
_cell_length_a                         9.439870
_cell_length_b                         9.454513
_cell_length_c                         10.072165
_cell_angle_alpha                      89.970802
_cell_angle_beta                       89.998817
_cell_angle_gamma                      60.040527
_cell_volume                           778.817636
_space_group_name_H-M_alt              'P 1'
_space_group_IT_number                 1

loop_
_space_group_symop_operation_xyz
   'x, y, z'

loop_
   _atom_site_label
   _atom_site_occupancy
   _atom_site_fract_x
   _atom_site_fract_y
   _atom_site_fract_z
   _atom_site_adp_type
   _atom_site_U_iso_or_equiv
   _atom_site_type_symbol
   Al1        1.0     0.115382     0.092108     0.293562    Uiso  ? Al
   Al2        1.0     0.222912     0.206303     0.048579    Uiso  ? Al
   Al3        1.0     0.776151     0.090596     0.804902    Uiso  ? Al
   Al4        1.0     0.445751     0.094204     0.297035    Uiso  ? Al
   Al5        1.0     0.553610     0.206593     0.049768    Uiso  ? Al
   Al6        1.0     0.116627     0.091719     0.803885    Uiso  ? Al
   Al7        1.0     0.228522     0.203254     0.549139    Uiso  ? Al
   Al8        1.0     0.775067     0.092441     0.291046    Uiso  ? Al
   Al9        1.0     0.889276     0.205739     0.046348    Uiso  ? Al
   Al10       1.0     0.444193     0.093428     0.798700    Uiso  ? Al
   Al11       1.0     0.112038     0.427355     0.299389    Uiso  ? Al
   Al12       1.0     0.221935     0.539103     0.048663    Uiso  ? Al
   Al13       1.0     0.774106     0.434768     0.804844    Uiso  ? Al
   Al14       1.0     0.888723     0.544305     0.548717    Uiso  ? Al
   Al15       1.0     0.444916     0.426666     0.297144    Uiso  ? Al
   Al16       1.0     0.553427     0.540567     0.048864    Uiso  ? Al
   Al17       1.0     0.111629     0.427680     0.799007    Uiso  ? Al
   Al18       1.0     0.223689     0.538983     0.549571    Uiso  ? Al
   Al19       1.0     0.775600     0.431630     0.293486    Uiso  ? Al
   Al20       1.0     0.890018     0.539890     0.049039    Uiso  ? Al
   Al21       1.0     0.443327     0.429698     0.798610    Uiso  ? Al
   Al22       1.0     0.548054     0.546077     0.549223    Uiso  ? Al
   Al23       1.0     0.111653     0.760065     0.299105    Uiso  ? Al
   Al24       1.0     0.223214     0.870226     0.048756    Uiso  ? Al
   Al25       1.0     0.777668     0.761388     0.799085    Uiso  ? Al
   Al26       1.0     0.889943     0.867166     0.548689    Uiso  ? Al
   Al27       1.0     0.444995     0.761430     0.299039    Uiso  ? Al
   Al28       1.0     0.555674     0.871794     0.048855    Uiso  ? Al
   Al29       1.0     0.111265     0.760036     0.798364    Uiso  ? Al
   Al30       1.0     0.226950     0.866714     0.549172    Uiso  ? Al
   Al31       1.0     0.777086     0.761539     0.299117    Uiso  ? Al
   Al32       1.0     0.890467     0.869619     0.048751    Uiso  ? Al
   Al33       1.0     0.444843     0.761335     0.798564    Uiso  ? Al
   Al34       1.0     0.554024     0.873550     0.549851    Uiso  ? Al
   Hf1        1.0     0.887133     0.206791     0.553679    Uiso  ? Hf
   Mg1        1.0     0.549682     0.206367     0.548670    Uiso  ? Mg
   N1         1.0     0.222094     0.204791     0.357513    Uiso  ? N
   N2         1.0     0.111930     0.093642     0.104303    Uiso  ? N
   N3         1.0     0.888959     0.207064     0.852503    Uiso  ? N
   N4         1.0     0.783807     0.077861     0.617928    Uiso  ? N
   N5         1.0     0.556615     0.205213     0.343691    Uiso  ? N
   N6         1.0     0.443782     0.093086     0.106387    Uiso  ? N
   N7         1.0     0.221874     0.207077     0.859639    Uiso  ? N
   N8         1.0     0.126539     0.085391     0.613103    Uiso  ? N
   N9         1.0     0.889034     0.205079     0.345797    Uiso  ? N
   N10        1.0     0.779595     0.092912     0.101454    Uiso  ? N
   N11        1.0     0.553560     0.206836     0.858757    Uiso  ? N
   N12        1.0     0.438720     0.086116     0.613013    Uiso  ? N
   N13        1.0     0.222488     0.538592     0.358197    Uiso  ? N
   N14        1.0     0.111359     0.427594     0.108963    Uiso  ? N
   N15        1.0     0.890047     0.540111     0.859273    Uiso  ? N
   N16        1.0     0.767465     0.447823     0.614322    Uiso  ? N
   N17        1.0     0.556174     0.538857     0.357411    Uiso  ? N
   N18        1.0     0.443308     0.429698     0.106397    Uiso  ? N
   N19        1.0     0.220952     0.539277     0.858674    Uiso  ? N
   N20        1.0     0.110777     0.426749     0.607368    Uiso  ? N
   N21        1.0     0.888747     0.538322     0.357878    Uiso  ? N
   N22        1.0     0.777667     0.428407     0.104388    Uiso  ? N
   N23        1.0     0.553796     0.541096     0.860282    Uiso  ? N
   N24        1.0     0.438245     0.442239     0.611907    Uiso  ? N
   N25        1.0     0.221949     0.872609     0.357995    Uiso  ? N
   N26        1.0     0.111679     0.760538     0.108839    Uiso  ? N
   N27        1.0     0.890645     0.868865     0.860030    Uiso  ? N
   N28        1.0     0.777394     0.761251     0.608235    Uiso  ? N
   N29        1.0     0.555646     0.872215     0.358076    Uiso  ? N
   N30        1.0     0.444316     0.761403     0.108991    Uiso  ? N
   N31        1.0     0.222915     0.870384     0.858760    Uiso  ? N
   N32        1.0     0.110756     0.760829     0.607295    Uiso  ? N
   N33        1.0     0.888924     0.872535     0.357172    Uiso  ? N
   N34        1.0     0.777853     0.760789     0.109050    Uiso  ? N
   N35        1.0     0.556506     0.870930     0.859139    Uiso  ? N
   N36        1.0     0.444446     0.762407     0.608322    Uiso  ? N
