
#======================================================================
# CRYSTAL DATA
#----------------------------------------------------------------------
data_VESTA_phase_1

_chemical_name_common                  'Al   Hf   Mg   N'
_cell_length_a                         9.501081
_cell_length_b                         9.517852
_cell_length_c                         9.904480
_cell_angle_alpha                      89.974236
_cell_angle_beta                       89.988670
_cell_angle_gamma                      60.062336
_cell_volume                           776.151859
_space_group_name_H-M_alt              'P 1'
_space_group_IT_number                 1

loop_
_space_group_symop_operation_xyz
   'x, y, z'

loop_
   _atom_site_label
   _atom_site_occupancy
   _atom_site_fract_x
   _atom_site_fract_y
   _atom_site_fract_z
   _atom_site_adp_type
   _atom_site_U_iso_or_equiv
   _atom_site_type_symbol
   Al1        1.0     0.114234     0.092586     0.321354    Uiso  ? Al
   Al2        1.0     0.223114     0.206338     0.076415    Uiso  ? Al
   Al3        1.0     0.775381     0.089459     0.832601    Uiso  ? Al
   Al4        1.0     0.445935     0.093993     0.324921    Uiso  ? Al
   Al5        1.0     0.553376     0.206819     0.078408    Uiso  ? Al
   Al6        1.0     0.118649     0.090671     0.831643    Uiso  ? Al
   Al7        1.0     0.228547     0.202941     0.575684    Uiso  ? Al
   Al8        1.0     0.775492     0.093066     0.319546    Uiso  ? Al
   Al9        1.0     0.889169     0.205871     0.071744    Uiso  ? Al
   Al10       1.0     0.444290     0.093433     0.825481    Uiso  ? Al
   Al11       1.0     0.111897     0.427382     0.326595    Uiso  ? Al
   Al12       1.0     0.221996     0.538973     0.075795    Uiso  ? Al
   Al13       1.0     0.772981     0.436831     0.832372    Uiso  ? Al
   Al14       1.0     0.888568     0.544292     0.575528    Uiso  ? Al
   Al15       1.0     0.444719     0.426719     0.325123    Uiso  ? Al
   Al16       1.0     0.553079     0.540601     0.076842    Uiso  ? Al
   Al17       1.0     0.111691     0.427485     0.826068    Uiso  ? Al
   Al18       1.0     0.223430     0.539027     0.576688    Uiso  ? Al
   Al19       1.0     0.776050     0.430786     0.321408    Uiso  ? Al
   Al20       1.0     0.890197     0.539862     0.076569    Uiso  ? Al
   Al21       1.0     0.443314     0.429799     0.825575    Uiso  ? Al
   Al22       1.0     0.548095     0.546491     0.575583    Uiso  ? Al
   Al23       1.0     0.111737     0.759895     0.326278    Uiso  ? Al
   Al24       1.0     0.223134     0.870003     0.076275    Uiso  ? Al
   Al25       1.0     0.777869     0.761272     0.826124    Uiso  ? Al
   Al26       1.0     0.890195     0.866689     0.575169    Uiso  ? Al
   Al27       1.0     0.444904     0.761746     0.325896    Uiso  ? Al
   Al28       1.0     0.555615     0.871943     0.075923    Uiso  ? Al
   Al29       1.0     0.111223     0.759875     0.825477    Uiso  ? Al
   Al30       1.0     0.227157     0.866505     0.575985    Uiso  ? Al
   Al31       1.0     0.776930     0.761486     0.326079    Uiso  ? Al
   Al32       1.0     0.890642     0.869463     0.076692    Uiso  ? Al
   Al33       1.0     0.444858     0.761208     0.825698    Uiso  ? Al
   Al34       1.0     0.554257     0.873178     0.576825    Uiso  ? Al
   Hf1        1.0     0.887613     0.206687     0.587145    Uiso  ? Hf
   Mg1        1.0     0.550054     0.206454     0.576988    Uiso  ? Mg
   N1         1.0     0.221880     0.204814     0.381693    Uiso  ? N
   N2         1.0     0.111032     0.093984     0.128704    Uiso  ? N
   N3         1.0     0.888945     0.207341     0.873790    Uiso  ? N
   N4         1.0     0.783403     0.076460     0.642639    Uiso  ? N
   N5         1.0     0.556639     0.205262     0.368520    Uiso  ? N
   N6         1.0     0.443839     0.092803     0.131614    Uiso  ? N
   N7         1.0     0.222294     0.207121     0.884780    Uiso  ? N
   N8         1.0     0.128657     0.084045     0.638143    Uiso  ? N
   N9         1.0     0.888981     0.205416     0.375107    Uiso  ? N
   N10        1.0     0.780144     0.093294     0.126295    Uiso  ? N
   N11        1.0     0.553238     0.207033     0.883977    Uiso  ? N
   N12        1.0     0.438822     0.086014     0.636868    Uiso  ? N
   N13        1.0     0.222138     0.538653     0.382980    Uiso  ? N
   N14        1.0     0.111410     0.427630     0.133725    Uiso  ? N
   N15        1.0     0.890246     0.540297     0.884250    Uiso  ? N
   N16        1.0     0.766222     0.449799     0.639099    Uiso  ? N
   N17        1.0     0.556054     0.539274     0.381397    Uiso  ? N
   N18        1.0     0.442881     0.429942     0.131704    Uiso  ? N
   N19        1.0     0.220946     0.539152     0.883149    Uiso  ? N
   N20        1.0     0.110705     0.426364     0.631887    Uiso  ? N
   N21        1.0     0.888671     0.538448     0.382170    Uiso  ? N
   N22        1.0     0.778045     0.427625     0.128941    Uiso  ? N
   N23        1.0     0.553344     0.541369     0.885602    Uiso  ? N
   N24        1.0     0.438220     0.442640     0.635942    Uiso  ? N
   N25        1.0     0.221892     0.872655     0.382278    Uiso  ? N
   N26        1.0     0.111875     0.760171     0.133614    Uiso  ? N
   N27        1.0     0.890869     0.868370     0.885352    Uiso  ? N
   N28        1.0     0.777678     0.761016     0.632703    Uiso  ? N
   N29        1.0     0.555806     0.871977     0.382684    Uiso  ? N
   N30        1.0     0.444208     0.761667     0.133518    Uiso  ? N
   N31        1.0     0.223108     0.869905     0.883780    Uiso  ? N
   N32        1.0     0.110777     0.760741     0.631833    Uiso  ? N
   N33        1.0     0.888932     0.872387     0.381247    Uiso  ? N
   N34        1.0     0.777671     0.760751     0.133663    Uiso  ? N
   N35        1.0     0.556598     0.870928     0.883563    Uiso  ? N
   N36        1.0     0.444405     0.762339     0.632864    Uiso  ? N
