
#======================================================================
# CRYSTAL DATA
#----------------------------------------------------------------------
data_VESTA_phase_1

_chemical_name_common                  'Al   Hf   Mg   N'
_cell_length_a                         9.439879
_cell_length_b                         9.454515
_cell_length_c                         10.072150
_cell_angle_alpha                      89.970787
_cell_angle_beta                       89.998764
_cell_angle_gamma                      60.040565
_cell_volume                           778.817778
_space_group_name_H-M_alt              'P 1'
_space_group_IT_number                 1

loop_
_space_group_symop_operation_xyz
   'x, y, z'

loop_
   _atom_site_label
   _atom_site_occupancy
   _atom_site_fract_x
   _atom_site_fract_y
   _atom_site_fract_z
   _atom_site_adp_type
   _atom_site_U_iso_or_equiv
   _atom_site_type_symbol
   Al1        1.0     0.115389     0.092091     0.307456    Uiso  ? Al
   Al2        1.0     0.222918     0.206287     0.062469    Uiso  ? Al
   Al3        1.0     0.776158     0.090579     0.818792    Uiso  ? Al
   Al4        1.0     0.445758     0.094187     0.310926    Uiso  ? Al
   Al5        1.0     0.553616     0.206577     0.063659    Uiso  ? Al
   Al6        1.0     0.116634     0.091702     0.817779    Uiso  ? Al
   Al7        1.0     0.228531     0.203236     0.563031    Uiso  ? Al
   Al8        1.0     0.775073     0.092425     0.304938    Uiso  ? Al
   Al9        1.0     0.889283     0.205723     0.060242    Uiso  ? Al
   Al10       1.0     0.444200     0.093411     0.812590    Uiso  ? Al
   Al11       1.0     0.112044     0.427339     0.313278    Uiso  ? Al
   Al12       1.0     0.221941     0.539087     0.062552    Uiso  ? Al
   Al13       1.0     0.774113     0.434751     0.818736    Uiso  ? Al
   Al14       1.0     0.888729     0.544291     0.562607    Uiso  ? Al
   Al15       1.0     0.444921     0.426650     0.311035    Uiso  ? Al
   Al16       1.0     0.553433     0.540550     0.062754    Uiso  ? Al
   Al17       1.0     0.111636     0.427664     0.812897    Uiso  ? Al
   Al18       1.0     0.223696     0.538967     0.563461    Uiso  ? Al
   Al19       1.0     0.775605     0.431614     0.307379    Uiso  ? Al
   Al20       1.0     0.890024     0.539874     0.062930    Uiso  ? Al
   Al21       1.0     0.443333     0.429681     0.812500    Uiso  ? Al
   Al22       1.0     0.548060     0.546060     0.563113    Uiso  ? Al
   Al23       1.0     0.111659     0.760049     0.312994    Uiso  ? Al
   Al24       1.0     0.223220     0.870210     0.062646    Uiso  ? Al
   Al25       1.0     0.777674     0.761372     0.812974    Uiso  ? Al
   Al26       1.0     0.889950     0.867150     0.562578    Uiso  ? Al
   Al27       1.0     0.445001     0.761414     0.312928    Uiso  ? Al
   Al28       1.0     0.555680     0.871778     0.062744    Uiso  ? Al
   Al29       1.0     0.111270     0.760020     0.812253    Uiso  ? Al
   Al30       1.0     0.226956     0.866697     0.563062    Uiso  ? Al
   Al31       1.0     0.777092     0.761524     0.313006    Uiso  ? Al
   Al32       1.0     0.890473     0.869603     0.062640    Uiso  ? Al
   Al33       1.0     0.444849     0.761319     0.812453    Uiso  ? Al
   Al34       1.0     0.554032     0.873533     0.563741    Uiso  ? Al
   Hf1        1.0     0.887138     0.206765     0.567574    Uiso  ? Hf
   Mg1        1.0     0.549691     0.206350     0.562562    Uiso  ? Mg
   N1         1.0     0.222100     0.204776     0.371404    Uiso  ? N
   N2         1.0     0.111936     0.093626     0.118196    Uiso  ? N
   N3         1.0     0.888966     0.207049     0.866396    Uiso  ? N
   N4         1.0     0.783817     0.077849     0.631817    Uiso  ? N
   N5         1.0     0.556621     0.205198     0.357583    Uiso  ? N
   N6         1.0     0.443788     0.093070     0.120278    Uiso  ? N
   N7         1.0     0.221880     0.207061     0.873529    Uiso  ? N
   N8         1.0     0.126548     0.085373     0.626996    Uiso  ? N
   N9         1.0     0.889040     0.205063     0.359691    Uiso  ? N
   N10        1.0     0.779601     0.092896     0.115345    Uiso  ? N
   N11        1.0     0.553567     0.206820     0.872648    Uiso  ? N
   N12        1.0     0.438725     0.086100     0.626903    Uiso  ? N
   N13        1.0     0.222494     0.538576     0.372086    Uiso  ? N
   N14        1.0     0.111364     0.427578     0.122853    Uiso  ? N
   N15        1.0     0.890054     0.540094     0.873163    Uiso  ? N
   N16        1.0     0.767470     0.447810     0.628213    Uiso  ? N
   N17        1.0     0.556180     0.538841     0.371302    Uiso  ? N
   N18        1.0     0.443313     0.429682     0.120287    Uiso  ? N
   N19        1.0     0.220958     0.539260     0.872563    Uiso  ? N
   N20        1.0     0.110783     0.426732     0.621258    Uiso  ? N
   N21        1.0     0.888754     0.538305     0.371769    Uiso  ? N
   N22        1.0     0.777672     0.428391     0.118282    Uiso  ? N
   N23        1.0     0.553803     0.541079     0.874172    Uiso  ? N
   N24        1.0     0.438251     0.442224     0.625797    Uiso  ? N
   N25        1.0     0.221955     0.872593     0.371886    Uiso  ? N
   N26        1.0     0.111685     0.760521     0.122729    Uiso  ? N
   N27        1.0     0.890652     0.868847     0.873920    Uiso  ? N
   N28        1.0     0.777401     0.761232     0.622124    Uiso  ? N
   N29        1.0     0.555652     0.872199     0.371966    Uiso  ? N
   N30        1.0     0.444322     0.761386     0.122881    Uiso  ? N
   N31        1.0     0.222922     0.870367     0.872650    Uiso  ? N
   N32        1.0     0.110763     0.760811     0.621185    Uiso  ? N
   N33        1.0     0.888930     0.872518     0.371061    Uiso  ? N
   N34        1.0     0.777858     0.760772     0.122939    Uiso  ? N
   N35        1.0     0.556512     0.870913     0.873029    Uiso  ? N
   N36        1.0     0.444453     0.762389     0.622212    Uiso  ? N
