
#======================================================================
# CRYSTAL DATA
#----------------------------------------------------------------------
data_VESTA_phase_1

_chemical_name_common                  'Al   Hf   Mg   N'
_cell_length_a                         9.706349
_cell_length_b                         9.724333
_cell_length_c                         9.305029
_cell_angle_alpha                      89.982742
_cell_angle_beta                       89.986961
_cell_angle_gamma                      60.075428
_cell_volume                           761.191027
_space_group_name_H-M_alt              'P 1'
_space_group_IT_number                 1

loop_
_space_group_symop_operation_xyz
   'x, y, z'

loop_
   _atom_site_label
   _atom_site_occupancy
   _atom_site_fract_x
   _atom_site_fract_y
   _atom_site_fract_z
   _atom_site_adp_type
   _atom_site_U_iso_or_equiv
   _atom_site_type_symbol
   Al1        1.0     0.113865     0.092618     0.325448    Uiso  ? Al
   Al2        1.0     0.224473     0.206695     0.083300    Uiso  ? Al
   Al3        1.0     0.774335     0.088667     0.841806    Uiso  ? Al
   Al4        1.0     0.445967     0.093261     0.334158    Uiso  ? Al
   Al5        1.0     0.551902     0.207623     0.089477    Uiso  ? Al
   Al6        1.0     0.120218     0.089957     0.842078    Uiso  ? Al
   Al7        1.0     0.226881     0.202961     0.580683    Uiso  ? Al
   Al8        1.0     0.776130     0.093069     0.325864    Uiso  ? Al
   Al9        1.0     0.888886     0.205903     0.078543    Uiso  ? Al
   Al10       1.0     0.444433     0.093688     0.829425    Uiso  ? Al
   Al11       1.0     0.111394     0.427593     0.332766    Uiso  ? Al
   Al12       1.0     0.222516     0.538608     0.081774    Uiso  ? Al
   Al13       1.0     0.771916     0.438412     0.842136    Uiso  ? Al
   Al14       1.0     0.888085     0.543719     0.581522    Uiso  ? Al
   Al15       1.0     0.444159     0.427351     0.334347    Uiso  ? Al
   Al16       1.0     0.551341     0.541007     0.084263    Uiso  ? Al
   Al17       1.0     0.111878     0.427313     0.831726    Uiso  ? Al
   Al18       1.0     0.222281     0.539700     0.582412    Uiso  ? Al
   Al19       1.0     0.776392     0.430898     0.325777    Uiso  ? Al
   Al20       1.0     0.891006     0.540369     0.082553    Uiso  ? Al
   Al21       1.0     0.443467     0.429616     0.829886    Uiso  ? Al
   Al22       1.0     0.549315     0.546686     0.579923    Uiso  ? Al
   Al23       1.0     0.111906     0.759767     0.332470    Uiso  ? Al
   Al24       1.0     0.223613     0.868561     0.082193    Uiso  ? Al
   Al25       1.0     0.777956     0.761280     0.832064    Uiso  ? Al
   Al26       1.0     0.890526     0.866526     0.580042    Uiso  ? Al
   Al27       1.0     0.444760     0.762353     0.331198    Uiso  ? Al
   Al28       1.0     0.555265     0.872703     0.082034    Uiso  ? Al
   Al29       1.0     0.111070     0.759678     0.831261    Uiso  ? Al
   Al30       1.0     0.226756     0.867316     0.582036    Uiso  ? Al
   Al31       1.0     0.776742     0.761177     0.331653    Uiso  ? Al
   Al32       1.0     0.891286     0.868444     0.083755    Uiso  ? Al
   Al33       1.0     0.444989     0.760928     0.831979    Uiso  ? Al
   Al34       1.0     0.554779     0.871901     0.582130    Uiso  ? Al
   Hf1        1.0     0.888722     0.206534     0.600191    Uiso  ? Hf
   Mg1        1.0     0.551563     0.206328     0.586471    Uiso  ? Mg
   N1         1.0     0.220781     0.205055     0.374221    Uiso  ? N
   N2         1.0     0.111252     0.093673     0.119485    Uiso  ? N
   N3         1.0     0.888841     0.207749     0.866647    Uiso  ? N
   N4         1.0     0.783848     0.076155     0.635491    Uiso  ? N
   N5         1.0     0.557038     0.205081     0.360600    Uiso  ? N
   N6         1.0     0.443784     0.092196     0.127538    Uiso  ? N
   N7         1.0     0.223233     0.207374     0.879005    Uiso  ? N
   N8         1.0     0.129462     0.083568     0.633178    Uiso  ? N
   N9         1.0     0.889192     0.206131     0.369896    Uiso  ? N
   N10        1.0     0.780607     0.092983     0.118483    Uiso  ? N
   N11        1.0     0.552257     0.207570     0.878750    Uiso  ? N
   N12        1.0     0.438809     0.086182     0.626692    Uiso  ? N
   N13        1.0     0.221003     0.539015     0.376906    Uiso  ? N
   N14        1.0     0.111590     0.427827     0.127611    Uiso  ? N
   N15        1.0     0.890695     0.540622     0.878066    Uiso  ? N
   N16        1.0     0.765645     0.450111     0.633341    Uiso  ? N
   N17        1.0     0.556590     0.539971     0.373228    Uiso  ? N
   N18        1.0     0.441867     0.430730     0.127624    Uiso  ? N
   N19        1.0     0.221197     0.538891     0.876206    Uiso  ? N
   N20        1.0     0.110514     0.426168     0.625180    Uiso  ? N
   N21        1.0     0.888418     0.538555     0.375246    Uiso  ? N
   N22        1.0     0.778062     0.427917     0.120182    Uiso  ? N
   N23        1.0     0.552318     0.541577     0.880462    Uiso  ? N
   N24        1.0     0.438282     0.442921     0.626229    Uiso  ? N
   N25        1.0     0.221754     0.873085     0.375375    Uiso  ? N
   N26        1.0     0.112352     0.759500     0.127620    Uiso  ? N
   N27        1.0     0.891222     0.867536     0.879991    Uiso  ? N
   N28        1.0     0.777982     0.760868     0.625997    Uiso  ? N
   N29        1.0     0.556453     0.870909     0.376107    Uiso  ? N
   N30        1.0     0.443981     0.762248     0.126884    Uiso  ? N
   N31        1.0     0.223425     0.868912     0.877636    Uiso  ? N
   N32        1.0     0.110707     0.760938     0.625143    Uiso  ? N
   N33        1.0     0.888851     0.872148     0.373493    Uiso  ? N
   N34        1.0     0.777378     0.760696     0.127256    Uiso  ? N
   N35        1.0     0.556506     0.871321     0.876950    Uiso  ? N
   N36        1.0     0.444302     0.762123     0.626438    Uiso  ? N
