
#======================================================================
# CRYSTAL DATA
#----------------------------------------------------------------------
data_VESTA_phase_1

_chemical_name_common                  'Al   Hf   Mg   N'
_cell_length_a                         9.753433
_cell_length_b                         9.771431
_cell_length_c                         9.159581
_cell_angle_alpha                      89.984367
_cell_angle_beta                       89.987556
_cell_angle_gamma                      60.076206
_cell_volume                           756.580072
_space_group_name_H-M_alt              'P 1'
_space_group_IT_number                 1

loop_
_space_group_symop_operation_xyz
   'x, y, z'

loop_
   _atom_site_label
   _atom_site_occupancy
   _atom_site_fract_x
   _atom_site_fract_y
   _atom_site_fract_z
   _atom_site_adp_type
   _atom_site_U_iso_or_equiv
   _atom_site_type_symbol
   Al1        1.0     0.114242     0.092416     0.326831    Uiso  ? Al
   Al2        1.0     0.224808     0.206724     0.085453    Uiso  ? Al
   Al3        1.0     0.774313     0.088862     0.844682    Uiso  ? Al
   Al4        1.0     0.445938     0.093123     0.337096    Uiso  ? Al
   Al5        1.0     0.551627     0.207751     0.092550    Uiso  ? Al
   Al6        1.0     0.119948     0.090097     0.845377    Uiso  ? Al
   Al7        1.0     0.226461     0.203080     0.582659    Uiso  ? Al
   Al8        1.0     0.776073     0.092807     0.327898    Uiso  ? Al
   Al9        1.0     0.888805     0.205850     0.081995    Uiso  ? Al
   Al10       1.0     0.444497     0.093746     0.831021    Uiso  ? Al
   Al11       1.0     0.111311     0.427634     0.334787    Uiso  ? Al
   Al12       1.0     0.222675     0.538501     0.083849    Uiso  ? Al
   Al13       1.0     0.772023     0.438097     0.845332    Uiso  ? Al
   Al14       1.0     0.888058     0.543571     0.583698    Uiso  ? Al
   Al15       1.0     0.444035     0.427517     0.337248    Uiso  ? Al
   Al16       1.0     0.550987     0.541072     0.086514    Uiso  ? Al
   Al17       1.0     0.111901     0.427269     0.833789    Uiso  ? Al
   Al18       1.0     0.222023     0.539840     0.584407    Uiso  ? Al
   Al19       1.0     0.776238     0.431356     0.327188    Uiso  ? Al
   Al20       1.0     0.891147     0.540483     0.084505    Uiso  ? Al
   Al21       1.0     0.443573     0.429474     0.831545    Uiso  ? Al
   Al22       1.0     0.549586     0.546654     0.581731    Uiso  ? Al
   Al23       1.0     0.111931     0.759729     0.334490    Uiso  ? Al
   Al24       1.0     0.223734     0.868285     0.084133    Uiso  ? Al
   Al25       1.0     0.777928     0.761303     0.834230    Uiso  ? Al
   Al26       1.0     0.890623     0.866483     0.581987    Uiso  ? Al
   Al27       1.0     0.444747     0.762441     0.333038    Uiso  ? Al
   Al28       1.0     0.555175     0.872909     0.084158    Uiso  ? Al
   Al29       1.0     0.111047     0.759687     0.833359    Uiso  ? Al
   Al30       1.0     0.226605     0.867504     0.584219    Uiso  ? Al
   Al31       1.0     0.776729     0.761108     0.333525    Uiso  ? Al
   Al32       1.0     0.891346     0.868328     0.085907    Uiso  ? Al
   Al33       1.0     0.445014     0.760907     0.834206    Uiso  ? Al
   Al34       1.0     0.554908     0.871625     0.584025    Uiso  ? Al
   Hf1        1.0     0.888919     0.206531     0.601920    Uiso  ? Hf
   Mg1        1.0     0.551813     0.206320     0.589253    Uiso  ? Mg
   N1         1.0     0.220589     0.205162     0.371946    Uiso  ? N
   N2         1.0     0.111580     0.093472     0.116816    Uiso  ? N
   N3         1.0     0.888819     0.207747     0.865926    Uiso  ? N
   N4         1.0     0.784006     0.076509     0.632708    Uiso  ? N
   N5         1.0     0.557031     0.205086     0.358052    Uiso  ? N
   N6         1.0     0.443799     0.092139     0.125943    Uiso  ? N
   N7         1.0     0.223354     0.207334     0.876950    Uiso  ? N
   N8         1.0     0.129081     0.083788     0.631138    Uiso  ? N
   N9         1.0     0.889248     0.206271     0.366514    Uiso  ? N
   N10        1.0     0.780516     0.092790     0.116156    Uiso  ? N
   N11        1.0     0.552197     0.207607     0.876836    Uiso  ? N
   N12        1.0     0.438858     0.086283     0.623615    Uiso  ? N
   N13        1.0     0.220769     0.539087     0.374867    Uiso  ? N
   N14        1.0     0.111618     0.427843     0.125526    Uiso  ? N
   N15        1.0     0.890713     0.540604     0.875946    Uiso  ? N
   N16        1.0     0.765850     0.449608     0.631148    Uiso  ? N
   N17        1.0     0.556650     0.540124     0.370784    Uiso  ? N
   N18        1.0     0.441752     0.430794     0.126002    Uiso  ? N
   N19        1.0     0.221280     0.538832     0.873989    Uiso  ? N
   N20        1.0     0.110501     0.426179     0.623071    Uiso  ? N
   N21        1.0     0.888416     0.538606     0.373083    Uiso  ? N
   N22        1.0     0.777930     0.428250     0.117578    Uiso  ? N
   N23        1.0     0.552252     0.541523     0.878554    Uiso  ? N
   N24        1.0     0.438344     0.442790     0.623233    Uiso  ? N
   N25        1.0     0.221765     0.873089     0.373221    Uiso  ? N
   N26        1.0     0.112417     0.759406     0.125566    Uiso  ? N
   N27        1.0     0.891196     0.867575     0.878005    Uiso  ? N
   N28        1.0     0.778001     0.760860     0.623915    Uiso  ? N
   N29        1.0     0.556601     0.870682     0.373943    Uiso  ? N
   N30        1.0     0.443948     0.762338     0.124725    Uiso  ? N
   N31        1.0     0.223420     0.868871     0.875521    Uiso  ? N
   N32        1.0     0.110719     0.760963     0.623039    Uiso  ? N
   N33        1.0     0.888883     0.871991     0.371157    Uiso  ? N
   N34        1.0     0.777348     0.760687     0.125119    Uiso  ? N
   N35        1.0     0.556458     0.871437     0.874872    Uiso  ? N
   N36        1.0     0.444275     0.762100     0.624395    Uiso  ? N
