
#======================================================================
# CRYSTAL DATA
#----------------------------------------------------------------------
data_VESTA_phase_1

_chemical_name_common                  'Al   Hf   Mg   N'
_cell_length_a                         9.555002
_cell_length_b                         9.572410
_cell_length_c                         9.753059
_cell_angle_alpha                      90.023102
_cell_angle_beta                       90.012894
_cell_angle_gamma                      60.068539
_cell_volume                           773.077546
_space_group_name_H-M_alt              'P 1'
_space_group_IT_number                 1

loop_
_space_group_symop_operation_xyz
   'x, y, z'

loop_
   _atom_site_label
   _atom_site_occupancy
   _atom_site_fract_x
   _atom_site_fract_y
   _atom_site_fract_z
   _atom_site_adp_type
   _atom_site_U_iso_or_equiv
   _atom_site_type_symbol
   Al1        1.0     0.119634     0.090197     0.375252    Uiso  ? Al
   Al2        1.0     0.223400     0.206438     0.130984    Uiso  ? Al
   Al3        1.0     0.775759     0.093309     0.887794    Uiso  ? Al
   Al4        1.0     0.444321     0.093481     0.382729    Uiso  ? Al
   Al5        1.0     0.553023     0.207041     0.128092    Uiso  ? Al
   Al6        1.0     0.113752     0.092778     0.886536    Uiso  ? Al
   Al7        1.0     0.228238     0.202855     0.632433    Uiso  ? Al
   Al8        1.0     0.774915     0.088924     0.374479    Uiso  ? Al
   Al9        1.0     0.889101     0.205926     0.136657    Uiso  ? Al
   Al10       1.0     0.445996     0.093817     0.882098    Uiso  ? Al
   Al11       1.0     0.111741     0.427436     0.381792    Uiso  ? Al
   Al12       1.0     0.222093     0.538890     0.131946    Uiso  ? Al
   Al13       1.0     0.776299     0.430473     0.886392    Uiso  ? Al
   Al14       1.0     0.888406     0.544196     0.632330    Uiso  ? Al
   Al15       1.0     0.443298     0.429833     0.382519    Uiso  ? Al
   Al16       1.0     0.552667     0.540693     0.130425    Uiso  ? Al
   Al17       1.0     0.111757     0.427437     0.881082    Uiso  ? Al
   Al18       1.0     0.223150     0.539188     0.631130    Uiso  ? Al
   Al19       1.0     0.772396     0.437855     0.374712    Uiso  ? Al
   Al20       1.0     0.890404     0.539955     0.131066    Uiso  ? Al
   Al21       1.0     0.444588     0.426825     0.881870    Uiso  ? Al
   Al22       1.0     0.548335     0.546641     0.632689    Uiso  ? Al
   Al23       1.0     0.111181     0.759786     0.382347    Uiso  ? Al
   Al24       1.0     0.223204     0.869669     0.131375    Uiso  ? Al
   Al25       1.0     0.776855     0.761421     0.881756    Uiso  ? Al
   Al26       1.0     0.890298     0.866567     0.632977    Uiso  ? Al
   Al27       1.0     0.444887     0.761122     0.382033    Uiso  ? Al
   Al28       1.0     0.555541     0.872107     0.131815    Uiso  ? Al
   Al29       1.0     0.111785     0.759856     0.881401    Uiso  ? Al
   Al30       1.0     0.227143     0.866625     0.631861    Uiso  ? Al
   Al31       1.0     0.777928     0.761252     0.381698    Uiso  ? Al
   Al32       1.0     0.890831     0.869199     0.130640    Uiso  ? Al
   Al33       1.0     0.444852     0.761940     0.882023    Uiso  ? Al
   Al34       1.0     0.554389     0.872858     0.631102    Uiso  ? Al
   Hf1        1.0     0.887945     0.206628     0.617197    Uiso  ? Hf
   Mg1        1.0     0.550446     0.206444     0.629827    Uiso  ? Mg
   N1         1.0     0.222581     0.207225     0.325279    Uiso  ? N
   N2         1.0     0.110783     0.094052     0.082201    Uiso  ? N
   N3         1.0     0.889012     0.205637     0.833424    Uiso  ? N
   N4         1.0     0.783375     0.075967     0.567691    Uiso  ? N
   N5         1.0     0.552922     0.207206     0.325958    Uiso  ? N
   N6         1.0     0.443832     0.092615     0.078132    Uiso  ? N
   N7         1.0     0.221603     0.204853     0.828945    Uiso  ? N
   N8         1.0     0.129460     0.083564     0.571773    Uiso  ? N
   N9         1.0     0.888918     0.207514     0.337978    Uiso  ? N
   N10        1.0     0.780415     0.093372     0.084258    Uiso  ? N
   N11        1.0     0.556758     0.205220     0.841923    Uiso  ? N
   N12        1.0     0.438808     0.086006     0.574284    Uiso  ? N
   N13        1.0     0.220976     0.539086     0.327287    Uiso  ? N
   N14        1.0     0.111459     0.427691     0.076491    Uiso  ? N
   N15        1.0     0.888589     0.538487     0.828335    Uiso  ? N
   N16        1.0     0.765728     0.450491     0.571035    Uiso  ? N
   N17        1.0     0.552999     0.541503     0.324301    Uiso  ? N
   N18        1.0     0.442571     0.430176     0.078020    Uiso  ? N
   N19        1.0     0.221844     0.538743     0.827240    Uiso  ? N
   N20        1.0     0.110635     0.426250     0.578520    Uiso  ? N
   N21        1.0     0.890395     0.540437     0.325925    Uiso  ? N
   N22        1.0     0.778185     0.427418     0.081838    Uiso  ? N
   N23        1.0     0.556162     0.539486     0.829407    Uiso  ? N
   N24        1.0     0.438196     0.442863     0.575072    Uiso  ? N
   N25        1.0     0.223233     0.869560     0.326375    Uiso  ? N
   N26        1.0     0.112021     0.759956     0.076577    Uiso  ? N
   N27        1.0     0.888902     0.872350     0.829463    Uiso  ? N
   N28        1.0     0.777802     0.760943     0.577727    Uiso  ? N
   N29        1.0     0.556604     0.870993     0.326842    Uiso  ? N
   N30        1.0     0.444136     0.761845     0.076855    Uiso  ? N
   N31        1.0     0.221840     0.872785     0.828226    Uiso  ? N
   N32        1.0     0.110754     0.760784     0.578565    Uiso  ? N
   N33        1.0     0.891013     0.868031     0.324582    Uiso  ? N
   N34        1.0     0.777571     0.760734     0.076639    Uiso  ? N
   N35        1.0     0.555960     0.871720     0.827663    Uiso  ? N
   N36        1.0     0.444375     0.762277     0.577490    Uiso  ? N
