
#======================================================================
# CRYSTAL DATA
#----------------------------------------------------------------------
data_VESTA_phase_1

_chemical_name_common                  'Al   Hf   Mg   N'
_cell_length_a                         9.995436
_cell_length_b                         10.013294
_cell_length_c                         8.419326
_cell_angle_alpha                      89.999969
_cell_angle_beta                       89.999969
_cell_angle_gamma                      60.075085
_cell_volume                           730.322613
_space_group_name_H-M_alt              'P 1'
_space_group_IT_number                 1

loop_
_space_group_symop_operation_xyz
   'x, y, z'

loop_
   _atom_site_label
   _atom_site_occupancy
   _atom_site_fract_x
   _atom_site_fract_y
   _atom_site_fract_z
   _atom_site_adp_type
   _atom_site_U_iso_or_equiv
   _atom_site_type_symbol
   Al1        1.0     0.117770     0.090943     0.345262    Uiso  ? Al
   Al2        1.0     0.224880     0.206214     0.104461    Uiso  ? Al
   Al3        1.0     0.774225     0.090608     0.860900    Uiso  ? Al
   Al4        1.0     0.445517     0.093489     0.357486    Uiso  ? Al
   Al5        1.0     0.552145     0.207496     0.104471    Uiso  ? Al
   Al6        1.0     0.117774     0.090941     0.863659    Uiso  ? Al
   Al7        1.0     0.226085     0.203977     0.604460    Uiso  ? Al
   Al8        1.0     0.774226     0.090609     0.348039    Uiso  ? Al
   Al9        1.0     0.888561     0.205476     0.104463    Uiso  ? Al
   Al10       1.0     0.445517     0.093490     0.851444    Uiso  ? Al
   Al11       1.0     0.111536     0.427389     0.353956    Uiso  ? Al
   Al12       1.0     0.222966     0.538201     0.104462    Uiso  ? Al
   Al13       1.0     0.773777     0.435414     0.863595    Uiso  ? Al
   Al14       1.0     0.888731     0.543333     0.604460    Uiso  ? Al
   Al15       1.0     0.444061     0.428029     0.357362    Uiso  ? Al
   Al16       1.0     0.551295     0.540842     0.104462    Uiso  ? Al
   Al17       1.0     0.111537     0.427389     0.854963    Uiso  ? Al
   Al18       1.0     0.221754     0.540056     0.604459    Uiso  ? Al
   Al19       1.0     0.773781     0.435409     0.345327    Uiso  ? Al
   Al20       1.0     0.890838     0.540249     0.104458    Uiso  ? Al
   Al21       1.0     0.444060     0.428031     0.851568    Uiso  ? Al
   Al22       1.0     0.549405     0.546194     0.604459    Uiso  ? Al
   Al23       1.0     0.111442     0.759723     0.353690    Uiso  ? Al
   Al24       1.0     0.223545     0.868876     0.104458    Uiso  ? Al
   Al25       1.0     0.777181     0.761218     0.856043    Uiso  ? Al
   Al26       1.0     0.891263     0.865966     0.604460    Uiso  ? Al
   Al27       1.0     0.444989     0.761785     0.352812    Uiso  ? Al
   Al28       1.0     0.555092     0.873189     0.104462    Uiso  ? Al
   Al29       1.0     0.111441     0.759722     0.855230    Uiso  ? Al
   Al30       1.0     0.226266     0.867289     0.604461    Uiso  ? Al
   Al31       1.0     0.777181     0.761217     0.352878    Uiso  ? Al
   Al32       1.0     0.890732     0.869415     0.104463    Uiso  ? Al
   Al33       1.0     0.444989     0.761784     0.856108    Uiso  ? Al
   Al34       1.0     0.554980     0.871533     0.604460    Uiso  ? Al
   Hf1        1.0     0.889393     0.206565     0.604474    Uiso  ? Hf
   Mg1        1.0     0.551286     0.206856     0.604471    Uiso  ? Mg
   N1         1.0     0.221904     0.206209     0.352705    Uiso  ? N
   N2         1.0     0.113095     0.092708     0.104473    Uiso  ? N
   N3         1.0     0.889107     0.207139     0.862810    Uiso  ? N
   N4         1.0     0.783824     0.079265     0.604485    Uiso  ? N
   N5         1.0     0.554710     0.206257     0.345047    Uiso  ? N
   N6         1.0     0.443843     0.092664     0.104484    Uiso  ? N
   N7         1.0     0.221907     0.206211     0.856260    Uiso  ? N
   N8         1.0     0.126273     0.085314     0.604492    Uiso  ? N
   N9         1.0     0.889108     0.207139     0.346141    Uiso  ? N
   N10        1.0     0.780012     0.091856     0.104476    Uiso  ? N
   N11        1.0     0.554706     0.206259     0.863908    Uiso  ? N
   N12        1.0     0.439464     0.086749     0.604480    Uiso  ? N
   N13        1.0     0.220904     0.538914     0.354348    Uiso  ? N
   N14        1.0     0.111574     0.427493     0.104484    Uiso  ? N
   N15        1.0     0.889465     0.539630     0.855780    Uiso  ? N
   N16        1.0     0.767884     0.445994     0.604491    Uiso  ? N
   N17        1.0     0.554636     0.540870     0.351542    Uiso  ? N
   N18        1.0     0.442335     0.430374     0.104485    Uiso  ? N
   N19        1.0     0.220905     0.538913     0.854617    Uiso  ? N
   N20        1.0     0.110627     0.426619     0.604481    Uiso  ? N
   N21        1.0     0.889463     0.539627     0.353185    Uiso  ? N
   N22        1.0     0.777004     0.429827     0.104474    Uiso  ? N
   N23        1.0     0.554631     0.540872     0.857424    Uiso  ? N
   N24        1.0     0.438434     0.441474     0.604479    Uiso  ? N
   N25        1.0     0.222589     0.871083     0.353318    Uiso  ? N
   N26        1.0     0.112148     0.759654     0.104484    Uiso  ? N
   N27        1.0     0.889858     0.869806     0.856895    Uiso  ? N
   N28        1.0     0.777675     0.760874     0.604483    Uiso  ? N
   N29        1.0     0.556652     0.871003     0.353234    Uiso  ? N
   N30        1.0     0.443897     0.762129     0.104483    Uiso  ? N
   N31        1.0     0.222591     0.871078     0.855648    Uiso  ? N
   N32        1.0     0.111158     0.760773     0.604482    Uiso  ? N
   N33        1.0     0.889857     0.869809     0.352070    Uiso  ? N
   N34        1.0     0.777740     0.760661     0.104483    Uiso  ? N
   N35        1.0     0.556651     0.871004     0.855731    Uiso  ? N
   N36        1.0     0.444116     0.762340     0.604483    Uiso  ? N
