
#======================================================================
# CRYSTAL DATA
#----------------------------------------------------------------------
data_VESTA_phase_1

_chemical_name_common                  'Al   Hf   Mg   N'
_cell_length_a                         9.657470
_cell_length_b                         9.675378
_cell_length_c                         9.453138
_cell_angle_alpha                      89.981010
_cell_angle_beta                       89.986641
_cell_angle_gamma                      60.074116
_cell_volume                           765.529225
_space_group_name_H-M_alt              'P 1'
_space_group_IT_number                 1

loop_
_space_group_symop_operation_xyz
   'x, y, z'

loop_
   _atom_site_label
   _atom_site_occupancy
   _atom_site_fract_x
   _atom_site_fract_y
   _atom_site_fract_z
   _atom_site_adp_type
   _atom_site_U_iso_or_equiv
   _atom_site_type_symbol
   Al1        1.0     0.113630     0.092762     0.324325    Uiso  ? Al
   Al2        1.0     0.224105     0.206631     0.081361    Uiso  ? Al
   Al3        1.0     0.774425     0.088586     0.839115    Uiso  ? Al
   Al4        1.0     0.445994     0.093436     0.331467    Uiso  ? Al
   Al5        1.0     0.552248     0.207455     0.086431    Uiso  ? Al
   Al6        1.0     0.120308     0.089900     0.838977    Uiso  ? Al
   Al7        1.0     0.227344     0.202880     0.579020    Uiso  ? Al
   Al8        1.0     0.776087     0.093262     0.324149    Uiso  ? Al
   Al9        1.0     0.888964     0.205936     0.075747    Uiso  ? Al
   Al10       1.0     0.444386     0.093618     0.828142    Uiso  ? Al
   Al11       1.0     0.111499     0.427543     0.330952    Uiso  ? Al
   Al12       1.0     0.222358     0.538711     0.079970    Uiso  ? Al
   Al13       1.0     0.771920     0.438529     0.839175    Uiso  ? Al
   Al14       1.0     0.888156     0.543884     0.579628    Uiso  ? Al
   Al15       1.0     0.444304     0.427162     0.331682    Uiso  ? Al
   Al16       1.0     0.551764     0.540913     0.082198    Uiso  ? Al
   Al17       1.0     0.111840     0.427357     0.829960    Uiso  ? Al
   Al18       1.0     0.222564     0.539540     0.580666    Uiso  ? Al
   Al19       1.0     0.776459     0.430574     0.324609    Uiso  ? Al
   Al20       1.0     0.890824     0.540231     0.080831    Uiso  ? Al
   Al21       1.0     0.443380     0.429728     0.828530    Uiso  ? Al
   Al22       1.0     0.548993     0.546704     0.578433    Uiso  ? Al
   Al23       1.0     0.111869     0.759802     0.330649    Uiso  ? Al
   Al24       1.0     0.223470     0.868909     0.080487    Uiso  ? Al
   Al25       1.0     0.777964     0.761261     0.830202    Uiso  ? Al
   Al26       1.0     0.890445     0.866537     0.578414    Uiso  ? Al
   Al27       1.0     0.444782     0.762236     0.329581    Uiso  ? Al
   Al28       1.0     0.555360     0.872493     0.080178    Uiso  ? Al
   Al29       1.0     0.111104     0.759688     0.829464    Uiso  ? Al
   Al30       1.0     0.226909     0.867085     0.580127    Uiso  ? Al
   Al31       1.0     0.776769     0.761256     0.329987    Uiso  ? Al
   Al32       1.0     0.891171     0.868649     0.081796    Uiso  ? Al
   Al33       1.0     0.444958     0.760976     0.830042    Uiso  ? Al
   Al34       1.0     0.554645     0.872210     0.580487    Uiso  ? Al
   Hf1        1.0     0.888494     0.206551     0.598011    Uiso  ? Hf
   Mg1        1.0     0.551234     0.206360     0.583840    Uiso  ? Mg
   N1         1.0     0.221030     0.204968     0.376300    Uiso  ? N
   N2         1.0     0.110974     0.093855     0.122074    Uiso  ? N
   N3         1.0     0.888866     0.207712     0.867627    Uiso  ? N
   N4         1.0     0.783665     0.075915     0.637770    Uiso  ? N
   N5         1.0     0.556982     0.205109     0.363008    Uiso  ? N
   N6         1.0     0.443790     0.092304     0.128827    Uiso  ? N
   N7         1.0     0.223055     0.207364     0.880787    Uiso  ? N
   N8         1.0     0.129704     0.083424     0.634785    Uiso  ? N
   N9         1.0     0.889129     0.205982     0.372632    Uiso  ? N
   N10        1.0     0.780627     0.093166     0.120718    Uiso  ? N
   N11        1.0     0.552413     0.207482     0.880403    Uiso  ? N
   N12        1.0     0.438788     0.086098     0.629571    Uiso  ? N
   N13        1.0     0.221269     0.538928     0.378695    Uiso  ? N
   N14        1.0     0.111552     0.427794     0.129429    Uiso  ? N
   N15        1.0     0.890629     0.540598     0.879934    Uiso  ? N
   N16        1.0     0.765529     0.450481     0.635122    Uiso  ? N
   N17        1.0     0.556471     0.539815     0.375486    Uiso  ? N
   N18        1.0     0.442053     0.430592     0.128932    Uiso  ? N
   N19        1.0     0.221112     0.538955     0.878207    Uiso  ? N
   N20        1.0     0.110541     0.426173     0.627091    Uiso  ? N
   N21        1.0     0.888453     0.538524     0.377192    Uiso  ? N
   N22        1.0     0.778162     0.427635     0.122674    Uiso  ? N
   N23        1.0     0.552476     0.541594     0.882085    Uiso  ? N
   N24        1.0     0.438232     0.442985     0.629012    Uiso  ? N
   N25        1.0     0.221766     0.873021     0.377313    Uiso  ? N
   N26        1.0     0.112262     0.759625     0.129404    Uiso  ? N
   N27        1.0     0.891195     0.867605     0.881687    Uiso  ? N
   N28        1.0     0.777943     0.760882     0.627888    Uiso  ? N
   N29        1.0     0.556291     0.871170     0.378023    Uiso  ? N
   N30        1.0     0.444024     0.762133     0.128805    Uiso  ? N
   N31        1.0     0.223393     0.869051     0.879501    Uiso  ? N
   N32        1.0     0.110713     0.760896     0.627053    Uiso  ? N
   N33        1.0     0.888849     0.872252     0.375639    Uiso  ? N
   N34        1.0     0.777427     0.760707     0.129137    Uiso  ? N
   N35        1.0     0.556551     0.871199     0.878827    Uiso  ? N
   N36        1.0     0.444327     0.762163     0.628271    Uiso  ? N
