
#======================================================================
# CRYSTAL DATA
#----------------------------------------------------------------------
data_VESTA_phase_1

_chemical_name_common                  'Al   Hf   Mg   N'
_cell_length_a                         9.922257
_cell_length_b                         9.940339
_cell_length_c                         8.627164
_cell_angle_alpha                      89.991341
_cell_angle_beta                       89.992142
_cell_angle_gamma                      60.077545
_cell_volume                           737.478205
_space_group_name_H-M_alt              'P 1'
_space_group_IT_number                 1

loop_
_space_group_symop_operation_xyz
   'x, y, z'

loop_
   _atom_site_label
   _atom_site_occupancy
   _atom_site_fract_x
   _atom_site_fract_y
   _atom_site_fract_z
   _atom_site_adp_type
   _atom_site_U_iso_or_equiv
   _atom_site_type_symbol
   Al1        1.0     0.116314     0.091477     0.336749    Uiso  ? Al
   Al2        1.0     0.225294     0.206426     0.096812    Uiso  ? Al
   Al3        1.0     0.774318     0.090143     0.856391    Uiso  ? Al
   Al4        1.0     0.445774     0.093175     0.350435    Uiso  ? Al
   Al5        1.0     0.551606     0.207737     0.102371    Uiso  ? Al
   Al6        1.0     0.118339     0.090812     0.858146    Uiso  ? Al
   Al7        1.0     0.225747     0.203753     0.594885    Uiso  ? Al
   Al8        1.0     0.775020     0.091509     0.340590    Uiso  ? Al
   Al9        1.0     0.888530     0.205559     0.098322    Uiso  ? Al
   Al10       1.0     0.445071     0.093722     0.842240    Uiso  ? Al
   Al11       1.0     0.111246     0.427556     0.345692    Uiso  ? Al
   Al12       1.0     0.223085     0.538156     0.095920    Uiso  ? Al
   Al13       1.0     0.773022     0.436168     0.858165    Uiso  ? Al
   Al14       1.0     0.888402     0.543299     0.595877    Uiso  ? Al
   Al15       1.0     0.443974     0.427789     0.350417    Uiso  ? Al
   Al16       1.0     0.550772     0.540945     0.097547    Uiso  ? Al
   Al17       1.0     0.111832     0.427229     0.846036    Uiso  ? Al
   Al18       1.0     0.221547     0.540089     0.595684    Uiso  ? Al
   Al19       1.0     0.774981     0.433769     0.337039    Uiso  ? Al
   Al20       1.0     0.891116     0.540451     0.095731    Uiso  ? Al
   Al21       1.0     0.443977     0.428614     0.842790    Uiso  ? Al
   Al22       1.0     0.549784     0.546419     0.593741    Uiso  ? Al
   Al23       1.0     0.111751     0.759707     0.345298    Uiso  ? Al
   Al24       1.0     0.223745     0.868358     0.095424    Uiso  ? Al
   Al25       1.0     0.777512     0.761377     0.846852    Uiso  ? Al
   Al26       1.0     0.891127     0.866037     0.594373    Uiso  ? Al
   Al27       1.0     0.444800     0.762315     0.343698    Uiso  ? Al
   Al28       1.0     0.554993     0.873387     0.096069    Uiso  ? Al
   Al29       1.0     0.111194     0.759713     0.845921    Uiso  ? Al
   Al30       1.0     0.226237     0.867579     0.596191    Uiso  ? Al
   Al31       1.0     0.776942     0.761010     0.344052    Uiso  ? Al
   Al32       1.0     0.890987     0.868938     0.097056    Uiso  ? Al
   Al33       1.0     0.445061     0.761242     0.846800    Uiso  ? Al
   Al34       1.0     0.555167     0.871205     0.595136    Uiso  ? Al
   Hf1        1.0     0.889372     0.206633     0.605157    Uiso  ? Hf
   Mg1        1.0     0.551838     0.206591     0.600199    Uiso  ? Mg
   N1         1.0     0.220814     0.205740     0.360345    Uiso  ? N
   N2         1.0     0.112690     0.092885     0.107320    Uiso  ? N
   N3         1.0     0.888834     0.207413     0.863918    Uiso  ? N
   N4         1.0     0.784052     0.078487     0.615413    Uiso  ? N
   N5         1.0     0.556087     0.205580     0.348677    Uiso  ? N
   N6         1.0     0.443970     0.092463     0.114525    Uiso  ? N
   N7         1.0     0.222978     0.206679     0.865005    Uiso  ? N
   N8         1.0     0.127046     0.084890     0.616816    Uiso  ? N
   N9         1.0     0.889310     0.206801     0.351257    Uiso  ? N
   N10        1.0     0.779958     0.092218     0.107510    Uiso  ? N
   N11        1.0     0.553251     0.207059     0.867878    Uiso  ? N
   N12        1.0     0.439300     0.086699     0.610413    Uiso  ? N
   N13        1.0     0.220486     0.539116     0.363031    Uiso  ? N
   N14        1.0     0.111648     0.427666     0.113406    Uiso  ? N
   N15        1.0     0.890157     0.540098     0.864261    Uiso  ? N
   N16        1.0     0.767184     0.447076     0.616476    Uiso  ? N
   N17        1.0     0.555938     0.540641     0.358980    Uiso  ? N
   N18        1.0     0.442051     0.430391     0.114479    Uiso  ? N
   N19        1.0     0.221366     0.538723     0.862427    Uiso  ? N
   N20        1.0     0.110527     0.426405     0.612034    Uiso  ? N
   N21        1.0     0.888837     0.539087     0.361311    Uiso  ? N
   N22        1.0     0.777338     0.429383     0.107861    Uiso  ? N
   N23        1.0     0.553223     0.541064     0.866796    Uiso  ? N
   N24        1.0     0.438545     0.441830     0.610261    Uiso  ? N
   N25        1.0     0.222084     0.872313     0.361475    Uiso  ? N
   N26        1.0     0.112359     0.759391     0.113472    Uiso  ? N
   N27        1.0     0.890467     0.868870     0.865990    Uiso  ? N
   N28        1.0     0.777847     0.760853     0.612756    Uiso  ? N
   N29        1.0     0.556850     0.870492     0.361841    Uiso  ? N
   N30        1.0     0.443915     0.762327     0.112912    Uiso  ? N
   N31        1.0     0.223014     0.869858     0.863988    Uiso  ? N
   N32        1.0     0.110976     0.760883     0.612081    Uiso  ? N
   N33        1.0     0.889371     0.870790     0.359472    Uiso  ? N
   N34        1.0     0.777492     0.760672     0.113066    Uiso  ? N
   N35        1.0     0.556385     0.871552     0.863779    Uiso  ? N
   N36        1.0     0.444144     0.762232     0.613097    Uiso  ? N
