
#======================================================================
# CRYSTAL DATA
#----------------------------------------------------------------------
data_VESTA_phase_1

_chemical_name_common                  'Al   Hf   Mg   N'
_cell_length_a                         9.753587
_cell_length_b                         9.771585
_cell_length_c                         9.159113
_cell_angle_alpha                      90.015640
_cell_angle_beta                       90.012444
_cell_angle_gamma                      60.076157
_cell_volume                           756.564889
_space_group_name_H-M_alt              'P 1'
_space_group_IT_number                 1

loop_
_space_group_symop_operation_xyz
   'x, y, z'

loop_
   _atom_site_label
   _atom_site_occupancy
   _atom_site_fract_x
   _atom_site_fract_y
   _atom_site_fract_z
   _atom_site_adp_type
   _atom_site_U_iso_or_equiv
   _atom_site_type_symbol
   Al1        1.0     0.119944     0.090099     0.363547    Uiso  ? Al
   Al2        1.0     0.224810     0.206724     0.123482    Uiso  ? Al
   Al3        1.0     0.776074     0.092804     0.881040    Uiso  ? Al
   Al4        1.0     0.444498     0.093747     0.377918    Uiso  ? Al
   Al5        1.0     0.551625     0.207752     0.116372    Uiso  ? Al
   Al6        1.0     0.114245     0.092415     0.882106    Uiso  ? Al
   Al7        1.0     0.226456     0.203082     0.626274    Uiso  ? Al
   Al8        1.0     0.774313     0.088866     0.364242    Uiso  ? Al
   Al9        1.0     0.888805     0.205850     0.126927    Uiso  ? Al
   Al10       1.0     0.445936     0.093122     0.871835    Uiso  ? Al
   Al11       1.0     0.111901     0.427269     0.375141    Uiso  ? Al
   Al12       1.0     0.222676     0.538500     0.125080    Uiso  ? Al
   Al13       1.0     0.776237     0.431360     0.881751    Uiso  ? Al
   Al14       1.0     0.888058     0.543568     0.625232    Uiso  ? Al
   Al15       1.0     0.443574     0.429472     0.377394    Uiso  ? Al
   Al16       1.0     0.550984     0.541073     0.122425    Uiso  ? Al
   Al17       1.0     0.111311     0.427633     0.874144    Uiso  ? Al
   Al18       1.0     0.222021     0.539840     0.624524    Uiso  ? Al
   Al19       1.0     0.772026     0.438092     0.363593    Uiso  ? Al
   Al20       1.0     0.891147     0.540484     0.124426    Uiso  ? Al
   Al21       1.0     0.444034     0.427520     0.871684    Uiso  ? Al
   Al22       1.0     0.549590     0.546653     0.627206    Uiso  ? Al
   Al23       1.0     0.111048     0.759686     0.375570    Uiso  ? Al
   Al24       1.0     0.223735     0.868283     0.124797    Uiso  ? Al
   Al25       1.0     0.776729     0.761107     0.875406    Uiso  ? Al
   Al26       1.0     0.890623     0.866484     0.626947    Uiso  ? Al
   Al27       1.0     0.445013     0.760907     0.374725    Uiso  ? Al
   Al28       1.0     0.555174     0.872910     0.124771    Uiso  ? Al
   Al29       1.0     0.111932     0.759729     0.874442    Uiso  ? Al
   Al30       1.0     0.226604     0.867506     0.624711    Uiso  ? Al
   Al31       1.0     0.777928     0.761302     0.374700    Uiso  ? Al
   Al32       1.0     0.891347     0.868326     0.123028    Uiso  ? Al
   Al33       1.0     0.444748     0.762440     0.875894    Uiso  ? Al
   Al34       1.0     0.554909     0.871623     0.624907    Uiso  ? Al
   Hf1        1.0     0.888924     0.206537     0.607022    Uiso  ? Hf
   Mg1        1.0     0.551814     0.206320     0.619678    Uiso  ? Mg
   N1         1.0     0.223355     0.207333     0.332007    Uiso  ? N
   N2         1.0     0.111583     0.093471     0.092144    Uiso  ? N
   N3         1.0     0.889248     0.206272     0.842457    Uiso  ? N
   N4         1.0     0.784003     0.076507     0.576254    Uiso  ? N
   N5         1.0     0.552197     0.207607     0.332120    Uiso  ? N
   N6         1.0     0.443798     0.092138     0.083011    Uiso  ? N
   N7         1.0     0.220589     0.205162     0.837010    Uiso  ? N
   N8         1.0     0.129077     0.083789     0.577819    Uiso  ? N
   N9         1.0     0.888819     0.207746     0.343021    Uiso  ? N
   N10        1.0     0.780516     0.092787     0.092805    Uiso  ? N
   N11        1.0     0.557031     0.205086     0.850917    Uiso  ? N
   N12        1.0     0.438861     0.086283     0.585349    Uiso  ? N
   N13        1.0     0.221282     0.538832     0.334966    Uiso  ? N
   N14        1.0     0.111619     0.427843     0.083428    Uiso  ? N
   N15        1.0     0.888415     0.538606     0.835873    Uiso  ? N
   N16        1.0     0.765852     0.449602     0.577809    Uiso  ? N
   N17        1.0     0.552252     0.541522     0.330404    Uiso  ? N
   N18        1.0     0.441751     0.430796     0.082953    Uiso  ? N
   N19        1.0     0.220768     0.539087     0.834088    Uiso  ? N
   N20        1.0     0.110501     0.426180     0.585883    Uiso  ? N
   N21        1.0     0.890713     0.540604     0.333007    Uiso  ? N
   N22        1.0     0.777928     0.428253     0.091384    Uiso  ? N
   N23        1.0     0.556650     0.540125     0.838175    Uiso  ? N
   N24        1.0     0.438345     0.442787     0.585730    Uiso  ? N
   N25        1.0     0.223419     0.868871     0.333432    Uiso  ? N
   N26        1.0     0.112417     0.759406     0.083387    Uiso  ? N
   N27        1.0     0.888883     0.871991     0.837800    Uiso  ? N
   N28        1.0     0.778001     0.760862     0.585039    Uiso  ? N
   N29        1.0     0.556458     0.871438     0.334082    Uiso  ? N
   N30        1.0     0.443949     0.762337     0.084229    Uiso  ? N
   N31        1.0     0.221765     0.873089     0.835735    Uiso  ? N
   N32        1.0     0.110718     0.760963     0.585915    Uiso  ? N
   N33        1.0     0.891195     0.867577     0.330952    Uiso  ? N
   N34        1.0     0.777347     0.760688     0.083834    Uiso  ? N
   N35        1.0     0.556602     0.870682     0.835012    Uiso  ? N
   N36        1.0     0.444275     0.762099     0.584560    Uiso  ? N
