
#======================================================================
# CRYSTAL DATA
#----------------------------------------------------------------------
data_VESTA_phase_1

_chemical_name_common                  'Al   Hf   Mg   N'
_cell_length_a                         9.439868
_cell_length_b                         9.454506
_cell_length_c                         10.072161
_cell_angle_alpha                      90.029190
_cell_angle_beta                       90.001205
_cell_angle_gamma                      60.040524
_cell_volume                           778.816531
_space_group_name_H-M_alt              'P 1'
_space_group_IT_number                 1

loop_
_space_group_symop_operation_xyz
   'x, y, z'

loop_
   _atom_site_label
   _atom_site_occupancy
   _atom_site_fract_x
   _atom_site_fract_y
   _atom_site_fract_z
   _atom_site_adp_type
   _atom_site_U_iso_or_equiv
   _atom_site_type_symbol
   Al1        1.0     0.116649     0.091661     0.401700    Uiso  ? Al
   Al2        1.0     0.222934     0.206246     0.157011    Uiso  ? Al
   Al3        1.0     0.775089     0.092384     0.914543    Uiso  ? Al
   Al4        1.0     0.444216     0.093370     0.406891    Uiso  ? Al
   Al5        1.0     0.553632     0.206536     0.155822    Uiso  ? Al
   Al6        1.0     0.115405     0.092050     0.912024    Uiso  ? Al
   Al7        1.0     0.228545     0.203196     0.656450    Uiso  ? Al
   Al8        1.0     0.776174     0.090539     0.400687    Uiso  ? Al
   Al9        1.0     0.889299     0.205682     0.159236    Uiso  ? Al
   Al10       1.0     0.445774     0.094147     0.908553    Uiso  ? Al
   Al11       1.0     0.111652     0.427622     0.406584    Uiso  ? Al
   Al12       1.0     0.221957     0.539045     0.156929    Uiso  ? Al
   Al13       1.0     0.775621     0.431573     0.912100    Uiso  ? Al
   Al14       1.0     0.888745     0.544248     0.656874    Uiso  ? Al
   Al15       1.0     0.443349     0.429641     0.406982    Uiso  ? Al
   Al16       1.0     0.553449     0.540509     0.156726    Uiso  ? Al
   Al17       1.0     0.112060     0.427298     0.906202    Uiso  ? Al
   Al18       1.0     0.223711     0.538926     0.656021    Uiso  ? Al
   Al19       1.0     0.774129     0.434709     0.400744    Uiso  ? Al
   Al20       1.0     0.890040     0.539833     0.156551    Uiso  ? Al
   Al21       1.0     0.444938     0.426609     0.908444    Uiso  ? Al
   Al22       1.0     0.548077     0.546019     0.656367    Uiso  ? Al
   Al23       1.0     0.111287     0.759979     0.407227    Uiso  ? Al
   Al24       1.0     0.223237     0.870169     0.156835    Uiso  ? Al
   Al25       1.0     0.777108     0.761482     0.906475    Uiso  ? Al
   Al26       1.0     0.889966     0.867109     0.656902    Uiso  ? Al
   Al27       1.0     0.444865     0.761278     0.407028    Uiso  ? Al
   Al28       1.0     0.555696     0.871737     0.156736    Uiso  ? Al
   Al29       1.0     0.111675     0.760008     0.906487    Uiso  ? Al
   Al30       1.0     0.226972     0.866656     0.656419    Uiso  ? Al
   Al31       1.0     0.777690     0.761330     0.406507    Uiso  ? Al
   Al32       1.0     0.890489     0.869562     0.156841    Uiso  ? Al
   Al33       1.0     0.445017     0.761373     0.906553    Uiso  ? Al
   Al34       1.0     0.554047     0.873492     0.655740    Uiso  ? Al
   Hf1        1.0     0.887157     0.206730     0.651907    Uiso  ? Hf
   Mg1        1.0     0.549706     0.206309     0.656917    Uiso  ? Mg
   N1         1.0     0.221897     0.207020     0.345951    Uiso  ? N
   N2         1.0     0.111953     0.093585     0.101283    Uiso  ? N
   N3         1.0     0.889056     0.205021     0.859789    Uiso  ? N
   N4         1.0     0.783831     0.077803     0.587660    Uiso  ? N
   N5         1.0     0.553583     0.206779     0.346833    Uiso  ? N
   N6         1.0     0.443804     0.093029     0.099201    Uiso  ? N
   N7         1.0     0.222116     0.204735     0.848076    Uiso  ? N
   N8         1.0     0.126562     0.085332     0.592484    Uiso  ? N
   N9         1.0     0.888982     0.207007     0.353082    Uiso  ? N
   N10        1.0     0.779617     0.092855     0.104135    Uiso  ? N
   N11        1.0     0.556637     0.205157     0.861896    Uiso  ? N
   N12        1.0     0.438742     0.086059     0.592577    Uiso  ? N
   N13        1.0     0.220975     0.539219     0.346917    Uiso  ? N
   N14        1.0     0.111381     0.427537     0.096628    Uiso  ? N
   N15        1.0     0.888770     0.538265     0.847711    Uiso  ? N
   N16        1.0     0.767487     0.447766     0.591266    Uiso  ? N
   N17        1.0     0.553818     0.541038     0.345308    Uiso  ? N
   N18        1.0     0.443330     0.429641     0.099192    Uiso  ? N
   N19        1.0     0.222509     0.538535     0.847394    Uiso  ? N
   N20        1.0     0.110799     0.426692     0.598222    Uiso  ? N
   N21        1.0     0.890070     0.540054     0.346317    Uiso  ? N
   N22        1.0     0.777688     0.428351     0.101198    Uiso  ? N
   N23        1.0     0.556196     0.538800     0.848179    Uiso  ? N
   N24        1.0     0.438267     0.442182     0.593684    Uiso  ? N
   N25        1.0     0.222938     0.870326     0.346830    Uiso  ? N
   N26        1.0     0.111701     0.760480     0.096752    Uiso  ? N
   N27        1.0     0.888946     0.872477     0.848418    Uiso  ? N
   N28        1.0     0.777417     0.761193     0.597356    Uiso  ? N
   N29        1.0     0.556528     0.870872     0.346452    Uiso  ? N
   N30        1.0     0.444338     0.761345     0.096600    Uiso  ? N
   N31        1.0     0.221971     0.872552     0.847595    Uiso  ? N
   N32        1.0     0.110779     0.760771     0.598296    Uiso  ? N
   N33        1.0     0.890668     0.868806     0.345561    Uiso  ? N
   N34        1.0     0.777874     0.760732     0.096542    Uiso  ? N
   N35        1.0     0.555668     0.872158     0.847514    Uiso  ? N
   N36        1.0     0.444469     0.762349     0.597269    Uiso  ? N
