
#======================================================================
# CRYSTAL DATA
#----------------------------------------------------------------------
data_VESTA_phase_1

_chemical_name_common                  'Al   Hf   Mg   N'
_cell_length_a                         9.440239
_cell_length_b                         9.454921
_cell_length_c                         10.071115
_cell_angle_alpha                      89.970802
_cell_angle_beta                       89.998451
_cell_angle_gamma                      60.041000
_cell_volume                           778.804148
_space_group_name_H-M_alt              'P 1'
_space_group_IT_number                 1

loop_
_space_group_symop_operation_xyz
   'x, y, z'

loop_
   _atom_site_label
   _atom_site_occupancy
   _atom_site_fract_x
   _atom_site_fract_y
   _atom_site_fract_z
   _atom_site_adp_type
   _atom_site_U_iso_or_equiv
   _atom_site_type_symbol
   Al1        1.0     0.115376     0.092090     0.314950    Uiso  ? Al
   Al2        1.0     0.222921     0.206278     0.069957    Uiso  ? Al
   Al3        1.0     0.776154     0.090558     0.826275    Uiso  ? Al
   Al4        1.0     0.445763     0.094178     0.318410    Uiso  ? Al
   Al5        1.0     0.553620     0.206571     0.071152    Uiso  ? Al
   Al6        1.0     0.116661     0.091681     0.825261    Uiso  ? Al
   Al7        1.0     0.228538     0.203223     0.570503    Uiso  ? Al
   Al8        1.0     0.775081     0.092425     0.312436    Uiso  ? Al
   Al9        1.0     0.889284     0.205717     0.067701    Uiso  ? Al
   Al10       1.0     0.444206     0.093403     0.820068    Uiso  ? Al
   Al11       1.0     0.112046     0.427330     0.320757    Uiso  ? Al
   Al12       1.0     0.221944     0.539077     0.070029    Uiso  ? Al
   Al13       1.0     0.774103     0.434766     0.826216    Uiso  ? Al
   Al14       1.0     0.888733     0.544281     0.570081    Uiso  ? Al
   Al15       1.0     0.444921     0.426643     0.318520    Uiso  ? Al
   Al16       1.0     0.553434     0.540542     0.070243    Uiso  ? Al
   Al17       1.0     0.111640     0.427651     0.820376    Uiso  ? Al
   Al18       1.0     0.223698     0.538956     0.570940    Uiso  ? Al
   Al19       1.0     0.775613     0.431595     0.314874    Uiso  ? Al
   Al20       1.0     0.890027     0.539864     0.070415    Uiso  ? Al
   Al21       1.0     0.443338     0.429674     0.819979    Uiso  ? Al
   Al22       1.0     0.548062     0.546058     0.570584    Uiso  ? Al
   Al23       1.0     0.111663     0.760037     0.320472    Uiso  ? Al
   Al24       1.0     0.223221     0.870202     0.070131    Uiso  ? Al
   Al25       1.0     0.777682     0.761360     0.820452    Uiso  ? Al
   Al26       1.0     0.889957     0.867134     0.570050    Uiso  ? Al
   Al27       1.0     0.445002     0.761411     0.320403    Uiso  ? Al
   Al28       1.0     0.555683     0.871771     0.070221    Uiso  ? Al
   Al29       1.0     0.111274     0.760010     0.819733    Uiso  ? Al
   Al30       1.0     0.226964     0.866683     0.570536    Uiso  ? Al
   Al31       1.0     0.777093     0.761515     0.320481    Uiso  ? Al
   Al32       1.0     0.890477     0.869596     0.070129    Uiso  ? Al
   Al33       1.0     0.444853     0.761309     0.819932    Uiso  ? Al
   Al34       1.0     0.554038     0.873522     0.571219    Uiso  ? Al
   Hf1        1.0     0.887149     0.206762     0.575124    Uiso  ? Hf
   Mg1        1.0     0.549696     0.206344     0.570050    Uiso  ? Mg
   N1         1.0     0.222103     0.204767     0.378864    Uiso  ? N
   N2         1.0     0.111926     0.093623     0.125665    Uiso  ? N
   N3         1.0     0.888970     0.207043     0.873823    Uiso  ? N
   N4         1.0     0.783812     0.077817     0.639286    Uiso  ? N
   N5         1.0     0.556622     0.205192     0.365050    Uiso  ? N
   N6         1.0     0.443792     0.093059     0.127747    Uiso  ? N
   N7         1.0     0.221889     0.207051     0.881000    Uiso  ? N
   N8         1.0     0.126578     0.085346     0.634464    Uiso  ? N
   N9         1.0     0.889041     0.205058     0.367218    Uiso  ? N
   N10        1.0     0.779611     0.092894     0.122817    Uiso  ? N
   N11        1.0     0.553569     0.206814     0.880119    Uiso  ? N
   N12        1.0     0.438734     0.086090     0.634363    Uiso  ? N
   N13        1.0     0.222493     0.538568     0.379552    Uiso  ? N
   N14        1.0     0.111368     0.427570     0.130318    Uiso  ? N
   N15        1.0     0.890059     0.540088     0.880633    Uiso  ? N
   N16        1.0     0.767459     0.447825     0.635679    Uiso  ? N
   N17        1.0     0.556178     0.538840     0.378760    Uiso  ? N
   N18        1.0     0.443312     0.429676     0.127757    Uiso  ? N
   N19        1.0     0.220962     0.539250     0.880025    Uiso  ? N
   N20        1.0     0.110787     0.426717     0.628721    Uiso  ? N
   N21        1.0     0.888756     0.538300     0.379229    Uiso  ? N
   N22        1.0     0.777680     0.428372     0.125752    Uiso  ? N
   N23        1.0     0.553802     0.541075     0.881645    Uiso  ? N
   N24        1.0     0.438256     0.442218     0.633258    Uiso  ? N
   N25        1.0     0.221957     0.872584     0.379345    Uiso  ? N
   N26        1.0     0.111690     0.760509     0.130194    Uiso  ? N
   N27        1.0     0.890658     0.868835     0.881392    Uiso  ? N
   N28        1.0     0.777409     0.761221     0.629587    Uiso  ? N
   N29        1.0     0.555656     0.872190     0.379430    Uiso  ? N
   N30        1.0     0.444324     0.761382     0.130343    Uiso  ? N
   N31        1.0     0.222928     0.870354     0.880120    Uiso  ? N
   N32        1.0     0.110767     0.760800     0.628648    Uiso  ? N
   N33        1.0     0.888933     0.872508     0.378521    Uiso  ? N
   N34        1.0     0.777859     0.760764     0.130402    Uiso  ? N
   N35        1.0     0.556518     0.870905     0.880489    Uiso  ? N
   N36        1.0     0.444456     0.762381     0.629674    Uiso  ? N
