
#======================================================================
# CRYSTAL DATA
#----------------------------------------------------------------------
data_VESTA_phase_1

_chemical_name_common                  'Al   Hf   Mg   N'
_cell_length_a                         9.798627
_cell_length_b                         9.816640
_cell_length_c                         9.017823
_cell_angle_alpha                      89.985947
_cell_angle_beta                       89.988358
_cell_angle_gamma                      60.076809
_cell_volume                           751.789109
_space_group_name_H-M_alt              'P 1'
_space_group_IT_number                 1

loop_
_space_group_symop_operation_xyz
   'x, y, z'

loop_
   _atom_site_label
   _atom_site_occupancy
   _atom_site_fract_x
   _atom_site_fract_y
   _atom_site_fract_z
   _atom_site_adp_type
   _atom_site_U_iso_or_equiv
   _atom_site_type_symbol
   Al1        1.0     0.114715     0.092178     0.328569    Uiso  ? Al
   Al2        1.0     0.225083     0.206712     0.087848    Uiso  ? Al
   Al3        1.0     0.774328     0.089140     0.847679    Uiso  ? Al
   Al4        1.0     0.445910     0.093038     0.340248    Uiso  ? Al
   Al5        1.0     0.551445     0.207830     0.095513    Uiso  ? Al
   Al6        1.0     0.119564     0.090285     0.848763    Uiso  ? Al
   Al7        1.0     0.226112     0.203233     0.584992    Uiso  ? Al
   Al8        1.0     0.775916     0.092504     0.330353    Uiso  ? Al
   Al9        1.0     0.888724     0.205784     0.085985    Uiso  ? Al
   Al10       1.0     0.444586     0.093783     0.833004    Uiso  ? Al
   Al11       1.0     0.111253     0.427657     0.337034    Uiso  ? Al
   Al12       1.0     0.222825     0.538394     0.086241    Uiso  ? Al
   Al13       1.0     0.772213     0.437651     0.848666    Uiso  ? Al
   Al14       1.0     0.888077     0.543450     0.586177    Uiso  ? Al
   Al15       1.0     0.443946     0.427644     0.340360    Uiso  ? Al
   Al16       1.0     0.550732     0.541098     0.088960    Uiso  ? Al
   Al17       1.0     0.111910     0.427231     0.836189    Uiso  ? Al
   Al18       1.0     0.221804     0.539953     0.586674    Uiso  ? Al
   Al19       1.0     0.776010     0.431909     0.328936    Uiso  ? Al
   Al20       1.0     0.891235     0.540557     0.086730    Uiso  ? Al
   Al21       1.0     0.443687     0.429304     0.833577    Uiso  ? Al
   Al22       1.0     0.549782     0.546615     0.583914    Uiso  ? Al
   Al23       1.0     0.111939     0.759695     0.336726    Uiso  ? Al
   Al24       1.0     0.223816     0.868112     0.086353    Uiso  ? Al
   Al25       1.0     0.777874     0.761328     0.836737    Uiso  ? Al
   Al26       1.0     0.890737     0.866402     0.584299    Uiso  ? Al
   Al27       1.0     0.444744     0.762492     0.335132    Uiso  ? Al
   Al28       1.0     0.555096     0.873097     0.086580    Uiso  ? Al
   Al29       1.0     0.111040     0.759705     0.835806    Uiso  ? Al
   Al30       1.0     0.226471     0.867632     0.586694    Uiso  ? Al
   Al31       1.0     0.776736     0.761052     0.335626    Uiso  ? Al
   Al32       1.0     0.891343     0.868320     0.088278    Uiso  ? Al
   Al33       1.0     0.445034     0.760919     0.836752    Uiso  ? Al
   Al34       1.0     0.555023     0.871398     0.586200    Uiso  ? Al
   Hf1        1.0     0.889085     0.206551     0.603266    Uiso  ? Hf
   Mg1        1.0     0.551972     0.206342     0.592125    Uiso  ? Mg
   N1         1.0     0.220476     0.205289     0.369452    Uiso  ? N
   N2         1.0     0.111919     0.093275     0.114160    Uiso  ? N
   N3         1.0     0.888803     0.207707     0.865362    Uiso  ? N
   N4         1.0     0.784113     0.076943     0.629327    Uiso  ? N
   N5         1.0     0.556947     0.205132     0.355485    Uiso  ? N
   N6         1.0     0.443836     0.092140     0.123957    Uiso  ? N
   N7         1.0     0.223405     0.207239     0.874581    Uiso  ? N
   N8         1.0     0.128611     0.084052     0.628561    Uiso  ? N
   N9         1.0     0.889293     0.206405     0.362672    Uiso  ? N
   N10        1.0     0.780374     0.092610     0.113813    Uiso  ? N
   N11        1.0     0.552251     0.207584     0.874700    Uiso  ? N
   N12        1.0     0.438938     0.086393     0.620380    Uiso  ? N
   N13        1.0     0.220585     0.539140     0.372530    Uiso  ? N
   N14        1.0     0.111637     0.427838     0.123127    Uiso  ? N
   N15        1.0     0.890673     0.540542     0.873549    Uiso  ? N
   N16        1.0     0.766120     0.449017     0.628442    Uiso  ? N
   N17        1.0     0.556630     0.540273     0.368146    Uiso  ? N
   N18        1.0     0.441716     0.430776     0.123985    Uiso  ? N
   N19        1.0     0.221353     0.538781     0.871537    Uiso  ? N
   N20        1.0     0.110498     0.426207     0.620745    Uiso  ? N
   N21        1.0     0.888452     0.538682     0.370661    Uiso  ? N
   N22        1.0     0.777782     0.428593     0.114946    Uiso  ? N
   N23        1.0     0.552298     0.541437     0.876311    Uiso  ? N
   N24        1.0     0.438412     0.442599     0.620069    Uiso  ? N
   N25        1.0     0.221801     0.873023     0.370808    Uiso  ? N
   N26        1.0     0.112454     0.759345     0.123194    Uiso  ? N
   N27        1.0     0.891108     0.867734     0.875685    Uiso  ? N
   N28        1.0     0.777997     0.760858     0.621613    Uiso  ? N
   N29        1.0     0.556725     0.870509     0.371490    Uiso  ? N
   N30        1.0     0.443925     0.762396     0.122294    Uiso  ? N
   N31        1.0     0.223375     0.868941     0.873136    Uiso  ? N
   N32        1.0     0.110750     0.760970     0.620724    Uiso  ? N
   N33        1.0     0.888950     0.871775     0.368613    Uiso  ? N
   N34        1.0     0.777340     0.760679     0.122685    Uiso  ? N
   N35        1.0     0.556413     0.871536     0.872565    Uiso  ? N
   N36        1.0     0.444247     0.762097     0.622107    Uiso  ? N
