
#======================================================================
# CRYSTAL DATA
#----------------------------------------------------------------------
data_VESTA_phase_1

_chemical_name_common                  'Al   Hf   Mg   N'
_cell_length_a                         9.439855
_cell_length_b                         9.454500
_cell_length_c                         10.072234
_cell_angle_alpha                      90.028580
_cell_angle_beta                       90.001541
_cell_angle_gamma                      60.040485
_cell_volume                           778.820344
_space_group_name_H-M_alt              'P 1'
_space_group_IT_number                 1

loop_
_space_group_symop_operation_xyz
   'x, y, z'

loop_
   _atom_site_label
   _atom_site_occupancy
   _atom_site_fract_x
   _atom_site_fract_y
   _atom_site_fract_z
   _atom_site_adp_type
   _atom_site_U_iso_or_equiv
   _atom_site_type_symbol
   Al1        1.0     0.116684     0.091622     0.408398    Uiso  ? Al
   Al2        1.0     0.222938     0.206230     0.163700    Uiso  ? Al
   Al3        1.0     0.775057     0.092413     0.921237    Uiso  ? Al
   Al4        1.0     0.444242     0.093334     0.413583    Uiso  ? Al
   Al5        1.0     0.553628     0.206531     0.162521    Uiso  ? Al
   Al6        1.0     0.115383     0.092071     0.918720    Uiso  ? Al
   Al7        1.0     0.228560     0.203187     0.663142    Uiso  ? Al
   Al8        1.0     0.776204     0.090500     0.407380    Uiso  ? Al
   Al9        1.0     0.889301     0.205671     0.165938    Uiso  ? Al
   Al10       1.0     0.445757     0.094168     0.915243    Uiso  ? Al
   Al11       1.0     0.111679     0.427584     0.413272    Uiso  ? Al
   Al12       1.0     0.221954     0.539037     0.163618    Uiso  ? Al
   Al13       1.0     0.775598     0.431593     0.918791    Uiso  ? Al
   Al14       1.0     0.888752     0.544240     0.663562    Uiso  ? Al
   Al15       1.0     0.443372     0.429613     0.413676    Uiso  ? Al
   Al16       1.0     0.553451     0.540499     0.163416    Uiso  ? Al
   Al17       1.0     0.112038     0.427318     0.912893    Uiso  ? Al
   Al18       1.0     0.223716     0.538920     0.662710    Uiso  ? Al
   Al19       1.0     0.774155     0.434673     0.407440    Uiso  ? Al
   Al20       1.0     0.890041     0.539819     0.163243    Uiso  ? Al
   Al21       1.0     0.444911     0.426632     0.915137    Uiso  ? Al
   Al22       1.0     0.548083     0.546013     0.663061    Uiso  ? Al
   Al23       1.0     0.111311     0.759946     0.413916    Uiso  ? Al
   Al24       1.0     0.223238     0.870155     0.163529    Uiso  ? Al
   Al25       1.0     0.777085     0.761503     0.913162    Uiso  ? Al
   Al26       1.0     0.889970     0.867098     0.663591    Uiso  ? Al
   Al27       1.0     0.444894     0.761241     0.413717    Uiso  ? Al
   Al28       1.0     0.555699     0.871725     0.163426    Uiso  ? Al
   Al29       1.0     0.111649     0.760031     0.913174    Uiso  ? Al
   Al30       1.0     0.226987     0.866645     0.663107    Uiso  ? Al
   Al31       1.0     0.777716     0.761294     0.413193    Uiso  ? Al
   Al32       1.0     0.890488     0.869552     0.163525    Uiso  ? Al
   Al33       1.0     0.444996     0.761397     0.913243    Uiso  ? Al
   Al34       1.0     0.554055     0.873487     0.662428    Uiso  ? Al
   Hf1        1.0     0.887174     0.206708     0.658598    Uiso  ? Hf
   Mg1        1.0     0.549718     0.206304     0.663608    Uiso  ? Mg
   N1         1.0     0.221925     0.206983     0.352639    Uiso  ? N
   N2         1.0     0.111951     0.093573     0.107977    Uiso  ? N
   N3         1.0     0.889035     0.205043     0.866483    Uiso  ? N
   N4         1.0     0.783844     0.077793     0.594351    Uiso  ? N
   N5         1.0     0.553607     0.206749     0.353532    Uiso  ? N
   N6         1.0     0.443807     0.093020     0.105892    Uiso  ? N
   N7         1.0     0.222094     0.204754     0.854768    Uiso  ? N
   N8         1.0     0.126581     0.085320     0.599179    Uiso  ? N
   N9         1.0     0.889011     0.206970     0.359782    Uiso  ? N
   N10        1.0     0.779610     0.092852     0.110830    Uiso  ? N
   N11        1.0     0.556611     0.205186     0.868586    Uiso  ? N
   N12        1.0     0.438753     0.086052     0.599269    Uiso  ? N
   N13        1.0     0.220998     0.539186     0.353607    Uiso  ? N
   N14        1.0     0.111378     0.427528     0.103317    Uiso  ? N
   N15        1.0     0.888748     0.538285     0.854399    Uiso  ? N
   N16        1.0     0.767499     0.447747     0.597965    Uiso  ? N
   N17        1.0     0.553846     0.541002     0.351998    Uiso  ? N
   N18        1.0     0.443324     0.429637     0.105886    Uiso  ? N
   N19        1.0     0.222480     0.538561     0.854082    Uiso  ? N
   N20        1.0     0.110807     0.426682     0.604912    Uiso  ? N
   N21        1.0     0.890094     0.540016     0.353009    Uiso  ? N
   N22        1.0     0.777688     0.428341     0.107888    Uiso  ? N
   N23        1.0     0.556171     0.538827     0.854871    Uiso  ? N
   N24        1.0     0.438272     0.442179     0.600378    Uiso  ? N
   N25        1.0     0.222965     0.870289     0.353523    Uiso  ? N
   N26        1.0     0.111697     0.760476     0.103438    Uiso  ? N
   N27        1.0     0.888920     0.872505     0.855106    Uiso  ? N
   N28        1.0     0.777428     0.761179     0.604044    Uiso  ? N
   N29        1.0     0.556553     0.870839     0.353140    Uiso  ? N
   N30        1.0     0.444335     0.761340     0.103288    Uiso  ? N
   N31        1.0     0.221948     0.872575     0.854283    Uiso  ? N
   N32        1.0     0.110785     0.760765     0.604986    Uiso  ? N
   N33        1.0     0.890692     0.868771     0.352246    Uiso  ? N
   N34        1.0     0.777874     0.760720     0.103227    Uiso  ? N
   N35        1.0     0.555647     0.872179     0.854201    Uiso  ? N
   N36        1.0     0.444480     0.762337     0.603959    Uiso  ? N
