
#======================================================================
# CRYSTAL DATA
#----------------------------------------------------------------------
data_VESTA_phase_1

_chemical_name_common                  'Al   Hf   Mg   N'
_cell_length_a                         9.959314
_cell_length_b                         9.977301
_cell_length_c                         8.514972
_cell_angle_alpha                      90.006119
_cell_angle_beta                       90.005852
_cell_angle_gamma                      60.077179
_cell_volume                           733.320062
_space_group_name_H-M_alt              'P 1'
_space_group_IT_number                 1

loop_
_space_group_symop_operation_xyz
   'x, y, z'

loop_
   _atom_site_label
   _atom_site_occupancy
   _atom_site_fract_x
   _atom_site_fract_y
   _atom_site_fract_z
   _atom_site_adp_type
   _atom_site_U_iso_or_equiv
   _atom_site_type_symbol
   Al1        1.0     0.118052     0.090894     0.348188    Uiso  ? Al
   Al2        1.0     0.225123     0.206290     0.108500    Uiso  ? Al
   Al3        1.0     0.774661     0.091112     0.864402    Uiso  ? Al
   Al4        1.0     0.445304     0.093637     0.362311    Uiso  ? Al
   Al5        1.0     0.551892     0.207607     0.105241    Uiso  ? Al
   Al6        1.0     0.116895     0.091263     0.868320    Uiso  ? Al
   Al7        1.0     0.225885     0.203893     0.609557    Uiso  ? Al
   Al8        1.0     0.774248     0.090425     0.350168    Uiso  ? Al
   Al9        1.0     0.888511     0.205500     0.107418    Uiso  ? Al
   Al10       1.0     0.445664     0.093332     0.855048    Uiso  ? Al
   Al11       1.0     0.111751     0.427292     0.358598    Uiso  ? Al
   Al12       1.0     0.223066     0.538138     0.108837    Uiso  ? Al
   Al13       1.0     0.774495     0.434450     0.868107    Uiso  ? Al
   Al14       1.0     0.888576     0.543311     0.608956    Uiso  ? Al
   Al15       1.0     0.444021     0.428327     0.361906    Uiso  ? Al
   Al16       1.0     0.551035     0.540862     0.108110    Uiso  ? Al
   Al17       1.0     0.111321     0.427458     0.859451    Uiso  ? Al
   Al18       1.0     0.221623     0.540068     0.609239    Uiso  ? Al
   Al19       1.0     0.773336     0.435785     0.348137    Uiso  ? Al
   Al20       1.0     0.890969     0.540331     0.109207    Uiso  ? Al
   Al21       1.0     0.444057     0.427843     0.855109    Uiso  ? Al
   Al22       1.0     0.549601     0.546312     0.610375    Uiso  ? Al
   Al23       1.0     0.111321     0.759678     0.358543    Uiso  ? Al
   Al24       1.0     0.223632     0.868645     0.109427    Uiso  ? Al
   Al25       1.0     0.777075     0.761064     0.860941    Uiso  ? Al
   Al26       1.0     0.891229     0.865960     0.609824    Uiso  ? Al
   Al27       1.0     0.445045     0.761472     0.357808    Uiso  ? Al
   Al28       1.0     0.555024     0.873337     0.108861    Uiso  ? Al
   Al29       1.0     0.111597     0.759755     0.859835    Uiso  ? Al
   Al30       1.0     0.226229     0.867433     0.608813    Uiso  ? Al
   Al31       1.0     0.777334     0.761349     0.357704    Uiso  ? Al
   Al32       1.0     0.890815     0.869256     0.108323    Uiso  ? Al
   Al33       1.0     0.444859     0.762107     0.861195    Uiso  ? Al
   Al34       1.0     0.555108     0.871340     0.609638    Uiso  ? Al
   Hf1        1.0     0.889400     0.206635     0.603906    Uiso  ? Hf
   Mg1        1.0     0.551586     0.206732     0.606508    Uiso  ? Mg
   N1         1.0     0.222579     0.206451     0.348136    Uiso  ? N
   N2         1.0     0.112856     0.092828     0.103299    Uiso  ? N
   N3         1.0     0.889254     0.206953     0.860526    Uiso  ? N
   N4         1.0     0.783927     0.078952     0.599024    Uiso  ? N
   N5         1.0     0.553894     0.206717     0.343142    Uiso  ? N
   N6         1.0     0.443948     0.092610     0.099073    Uiso  ? N
   N7         1.0     0.221224     0.205917     0.852278    Uiso  ? N
   N8         1.0     0.126603     0.085118     0.597614    Uiso  ? N
   N9         1.0     0.888903     0.207278     0.345547    Uiso  ? N
   N10        1.0     0.779935     0.092081     0.103080    Uiso  ? N
   N11        1.0     0.555531     0.205856     0.862136    Uiso  ? N
   N12        1.0     0.439418     0.086754     0.601669    Uiso  ? N
   N13        1.0     0.221227     0.538769     0.350289    Uiso  ? N
   N14        1.0     0.111631     0.427559     0.099813    Uiso  ? N
   N15        1.0     0.889081     0.539294     0.851604    Uiso  ? N
   N16        1.0     0.767565     0.446490     0.597905    Uiso  ? N
   N17        1.0     0.553802     0.540957     0.346561    Uiso  ? N
   N18        1.0     0.442237     0.430297     0.099099    Uiso  ? N
   N19        1.0     0.220641     0.539031     0.850128    Uiso  ? N
   N20        1.0     0.110554     0.426512     0.600580    Uiso  ? N
   N21        1.0     0.889860     0.539887     0.348670    Uiso  ? N
   N22        1.0     0.777177     0.429568     0.102956    Uiso  ? N
   N23        1.0     0.555441     0.540727     0.853502    Uiso  ? N
   N24        1.0     0.438517     0.441593     0.601768    Uiso  ? N
   N25        1.0     0.222836     0.870374     0.348853    Uiso  ? N
   N26        1.0     0.112251     0.759498     0.099795    Uiso  ? N
   N27        1.0     0.889584     0.870359     0.853093    Uiso  ? N
   N28        1.0     0.777763     0.760852     0.600115    Uiso  ? N
   N29        1.0     0.556464     0.871374     0.348964    Uiso  ? N
   N30        1.0     0.443923     0.762222     0.100030    Uiso  ? N
   N31        1.0     0.222254     0.871855     0.851441    Uiso  ? N
   N32        1.0     0.111085     0.760822     0.600530    Uiso  ? N
   N33        1.0     0.890166     0.869368     0.347344    Uiso  ? N
   N34        1.0     0.777607     0.760680     0.100017    Uiso  ? N
   N35        1.0     0.556785     0.870697     0.851263    Uiso  ? N
   N36        1.0     0.444108     0.762311     0.599906    Uiso  ? N
