
#======================================================================
# CRYSTAL DATA
#----------------------------------------------------------------------
data_VESTA_phase_1

_chemical_name_common                  'Al   Hf   Mg   N'
_cell_length_a                         9.554709
_cell_length_b                         9.572117
_cell_length_c                         9.753860
_cell_angle_alpha                      89.976883
_cell_angle_beta                       89.987099
_cell_angle_gamma                      60.068577
_cell_volume                           773.093928
_space_group_name_H-M_alt              'P 1'
_space_group_IT_number                 1

loop_
_space_group_symop_operation_xyz
   'x, y, z'

loop_
   _atom_site_label
   _atom_site_occupancy
   _atom_site_fract_x
   _atom_site_fract_y
   _atom_site_fract_z
   _atom_site_adp_type
   _atom_site_U_iso_or_equiv
   _atom_site_type_symbol
   Al1        1.0     0.113750     0.092779     0.322405    Uiso  ? Al
   Al2        1.0     0.223399     0.206437     0.077955    Uiso  ? Al
   Al3        1.0     0.774915     0.088924     0.834461    Uiso  ? Al
   Al4        1.0     0.445996     0.093818     0.326842    Uiso  ? Al
   Al5        1.0     0.553024     0.207041     0.080846    Uiso  ? Al
   Al6        1.0     0.119634     0.090197     0.833686    Uiso  ? Al
   Al7        1.0     0.228237     0.202856     0.576506    Uiso  ? Al
   Al8        1.0     0.775759     0.093310     0.321147    Uiso  ? Al
   Al9        1.0     0.889101     0.205926     0.072281    Uiso  ? Al
   Al10       1.0     0.444320     0.093481     0.826211    Uiso  ? Al
   Al11       1.0     0.111757     0.427437     0.327856    Uiso  ? Al
   Al12       1.0     0.222093     0.538890     0.076992    Uiso  ? Al
   Al13       1.0     0.772396     0.437855     0.834226    Uiso  ? Al
   Al14       1.0     0.888406     0.544195     0.576609    Uiso  ? Al
   Al15       1.0     0.444588     0.426825     0.327070    Uiso  ? Al
   Al16       1.0     0.552669     0.540692     0.078516    Uiso  ? Al
   Al17       1.0     0.111741     0.427436     0.827147    Uiso  ? Al
   Al18       1.0     0.223150     0.539188     0.577809    Uiso  ? Al
   Al19       1.0     0.776299     0.430472     0.322551    Uiso  ? Al
   Al20       1.0     0.890403     0.539955     0.077872    Uiso  ? Al
   Al21       1.0     0.443297     0.429835     0.826422    Uiso  ? Al
   Al22       1.0     0.548335     0.546641     0.576251    Uiso  ? Al
   Al23       1.0     0.111785     0.759857     0.327538    Uiso  ? Al
   Al24       1.0     0.223204     0.869670     0.077563    Uiso  ? Al
   Al25       1.0     0.777928     0.761252     0.827240    Uiso  ? Al
   Al26       1.0     0.890298     0.866567     0.575963    Uiso  ? Al
   Al27       1.0     0.444852     0.761940     0.326915    Uiso  ? Al
   Al28       1.0     0.555541     0.872106     0.077123    Uiso  ? Al
   Al29       1.0     0.111181     0.759787     0.826591    Uiso  ? Al
   Al30       1.0     0.227143     0.866625     0.577078    Uiso  ? Al
   Al31       1.0     0.776856     0.761420     0.327183    Uiso  ? Al
   Al32       1.0     0.890830     0.869200     0.078300    Uiso  ? Al
   Al33       1.0     0.444887     0.761122     0.826905    Uiso  ? Al
   Al34       1.0     0.554389     0.872858     0.577837    Uiso  ? Al
   Hf1        1.0     0.887947     0.206632     0.591739    Uiso  ? Hf
   Mg1        1.0     0.550446     0.206444     0.579109    Uiso  ? Mg
   N1         1.0     0.221604     0.204854     0.380004    Uiso  ? N
   N2         1.0     0.110783     0.094052     0.126749    Uiso  ? N
   N3         1.0     0.888917     0.207514     0.870975    Uiso  ? N
   N4         1.0     0.783374     0.075963     0.641261    Uiso  ? N
   N5         1.0     0.556757     0.205220     0.367031    Uiso  ? N
   N6         1.0     0.443833     0.092615     0.130818    Uiso  ? N
   N7         1.0     0.222582     0.207225     0.883670    Uiso  ? N
   N8         1.0     0.129459     0.083564     0.637177    Uiso  ? N
   N9         1.0     0.889011     0.205637     0.375527    Uiso  ? N
   N10        1.0     0.780414     0.093372     0.124695    Uiso  ? N
   N11        1.0     0.552922     0.207206     0.882992    Uiso  ? N
   N12        1.0     0.438809     0.086005     0.634666    Uiso  ? N
   N13        1.0     0.221844     0.538743     0.381708    Uiso  ? N
   N14        1.0     0.111459     0.427692     0.132456    Uiso  ? N
   N15        1.0     0.890395     0.540438     0.883023    Uiso  ? N
   N16        1.0     0.765728     0.450490     0.637915    Uiso  ? N
   N17        1.0     0.556161     0.539486     0.379543    Uiso  ? N
   N18        1.0     0.442570     0.430175     0.130930    Uiso  ? N
   N19        1.0     0.220976     0.539085     0.881661    Uiso  ? N
   N20        1.0     0.110635     0.426250     0.630429    Uiso  ? N
   N21        1.0     0.888589     0.538487     0.380613    Uiso  ? N
   N22        1.0     0.778185     0.427418     0.127113    Uiso  ? N
   N23        1.0     0.552999     0.541503     0.884648    Uiso  ? N
   N24        1.0     0.438195     0.442864     0.633878    Uiso  ? N
   N25        1.0     0.221839     0.872784     0.380722    Uiso  ? N
   N26        1.0     0.112022     0.759956     0.132370    Uiso  ? N
   N27        1.0     0.891012     0.868032     0.884365    Uiso  ? N
   N28        1.0     0.777802     0.760944     0.631221    Uiso  ? N
   N29        1.0     0.555960     0.871721     0.381285    Uiso  ? N
   N30        1.0     0.444137     0.761845     0.132092    Uiso  ? N
   N31        1.0     0.223233     0.869560     0.882573    Uiso  ? N
   N32        1.0     0.110754     0.760784     0.630383    Uiso  ? N
   N33        1.0     0.888902     0.872351     0.379486    Uiso  ? N
   N34        1.0     0.777570     0.760735     0.132308    Uiso  ? N
   N35        1.0     0.556603     0.870994     0.882105    Uiso  ? N
   N36        1.0     0.444375     0.762277     0.631458    Uiso  ? N
