
#======================================================================
# CRYSTAL DATA
#----------------------------------------------------------------------
data_VESTA_phase_1

_chemical_name_common                  'Al   Hf   Mg   N'
_cell_length_a                         9.439396
_cell_length_b                         9.453816
_cell_length_c                         10.071947
_cell_angle_alpha                      89.971252
_cell_angle_beta                       89.998398
_cell_angle_gamma                      60.040176
_cell_volume                           778.701558
_space_group_name_H-M_alt              'P 1'
_space_group_IT_number                 1

loop_
_space_group_symop_operation_xyz
   'x, y, z'

loop_
   _atom_site_label
   _atom_site_occupancy
   _atom_site_fract_x
   _atom_site_fract_y
   _atom_site_fract_z
   _atom_site_adp_type
   _atom_site_U_iso_or_equiv
   _atom_site_type_symbol
   Al1        1.0     0.115377     0.092120     0.290225    Uiso  ? Al
   Al2        1.0     0.222894     0.206318     0.045242    Uiso  ? Al
   Al3        1.0     0.776162     0.090588     0.801554    Uiso  ? Al
   Al4        1.0     0.445739     0.094221     0.293698    Uiso  ? Al
   Al5        1.0     0.553591     0.206616     0.046431    Uiso  ? Al
   Al6        1.0     0.116659     0.091699     0.800543    Uiso  ? Al
   Al7        1.0     0.228549     0.203253     0.545799    Uiso  ? Al
   Al8        1.0     0.775053     0.092464     0.287702    Uiso  ? Al
   Al9        1.0     0.889271     0.205747     0.043004    Uiso  ? Al
   Al10       1.0     0.444213     0.093423     0.795359    Uiso  ? Al
   Al11       1.0     0.112016     0.427378     0.296052    Uiso  ? Al
   Al12       1.0     0.221901     0.539129     0.045322    Uiso  ? Al
   Al13       1.0     0.774121     0.434751     0.801500    Uiso  ? Al
   Al14       1.0     0.888735     0.544297     0.545379    Uiso  ? Al
   Al15       1.0     0.444880     0.426701     0.293804    Uiso  ? Al
   Al16       1.0     0.553409     0.540580     0.045525    Uiso  ? Al
   Al17       1.0     0.111637     0.427672     0.795670    Uiso  ? Al
   Al18       1.0     0.223693     0.538980     0.546237    Uiso  ? Al
   Al19       1.0     0.775584     0.431644     0.290153    Uiso  ? Al
   Al20       1.0     0.889993     0.539902     0.045705    Uiso  ? Al
   Al21       1.0     0.443331     0.429690     0.795265    Uiso  ? Al
   Al22       1.0     0.548066     0.546059     0.545881    Uiso  ? Al
   Al23       1.0     0.111632     0.760088     0.295770    Uiso  ? Al
   Al24       1.0     0.223200     0.870235     0.045419    Uiso  ? Al
   Al25       1.0     0.777680     0.761375     0.795750    Uiso  ? Al
   Al26       1.0     0.889954     0.867155     0.545349    Uiso  ? Al
   Al27       1.0     0.444981     0.761450     0.295706    Uiso  ? Al
   Al28       1.0     0.555657     0.871804     0.045519    Uiso  ? Al
   Al29       1.0     0.111273     0.760032     0.795026    Uiso  ? Al
   Al30       1.0     0.226974     0.866698     0.545834    Uiso  ? Al
   Al31       1.0     0.777067     0.761558     0.295786    Uiso  ? Al
   Al32       1.0     0.890445     0.869634     0.045413    Uiso  ? Al
   Al33       1.0     0.444858     0.761323     0.795226    Uiso  ? Al
   Al34       1.0     0.554039     0.873546     0.546522    Uiso  ? Al
   Hf1        1.0     0.887176     0.206754     0.550337    Uiso  ? Hf
   Mg1        1.0     0.549704     0.206361     0.545307    Uiso  ? Mg
   N1         1.0     0.222086     0.204810     0.354177    Uiso  ? N
   N2         1.0     0.111919     0.093653     0.100969    Uiso  ? N
   N3         1.0     0.888983     0.207047     0.849150    Uiso  ? N
   N4         1.0     0.783810     0.077862     0.614583    Uiso  ? N
   N5         1.0     0.556594     0.205242     0.340340    Uiso  ? N
   N6         1.0     0.443765     0.093101     0.103054    Uiso  ? N
   N7         1.0     0.221893     0.207068     0.856304    Uiso  ? N
   N8         1.0     0.126581     0.085374     0.609766    Uiso  ? N
   N9         1.0     0.889028     0.205092     0.342461    Uiso  ? N
   N10        1.0     0.779575     0.092934     0.098113    Uiso  ? N
   N11        1.0     0.553573     0.206835     0.855422    Uiso  ? N
   N12        1.0     0.438746     0.086119     0.609676    Uiso  ? N
   N13        1.0     0.222462     0.538615     0.354869    Uiso  ? N
   N14        1.0     0.111330     0.427615     0.105631    Uiso  ? N
   N15        1.0     0.890053     0.540098     0.855941    Uiso  ? N
   N16        1.0     0.767479     0.447807     0.610978    Uiso  ? N
   N17        1.0     0.556156     0.538875     0.354075    Uiso  ? N
   N18        1.0     0.443271     0.429730     0.103060    Uiso  ? N
   N19        1.0     0.220957     0.539271     0.855336    Uiso  ? N
   N20        1.0     0.110783     0.426748     0.604035    Uiso  ? N
   N21        1.0     0.888730     0.538338     0.354549    Uiso  ? N
   N22        1.0     0.777644     0.428420     0.101057    Uiso  ? N
   N23        1.0     0.553809     0.541081     0.856942    Uiso  ? N
   N24        1.0     0.438258     0.442224     0.608564    Uiso  ? N
   N25        1.0     0.221941     0.872620     0.354665    Uiso  ? N
   N26        1.0     0.111653     0.760563     0.105509    Uiso  ? N
   N27        1.0     0.890651     0.868858     0.856692    Uiso  ? N
   N28        1.0     0.777405     0.761239     0.604905    Uiso  ? N
   N29        1.0     0.555632     0.872232     0.354753    Uiso  ? N
   N30        1.0     0.444298     0.761419     0.105663    Uiso  ? N
   N31        1.0     0.222935     0.870368     0.855428    Uiso  ? N
   N32        1.0     0.110766     0.760828     0.603961    Uiso  ? N
   N33        1.0     0.888904     0.872555     0.353839    Uiso  ? N
   N34        1.0     0.777828     0.760803     0.105723    Uiso  ? N
   N35        1.0     0.556516     0.870922     0.855806    Uiso  ? N
   N36        1.0     0.444471     0.762389     0.604990    Uiso  ? N
