
#======================================================================
# CRYSTAL DATA
#----------------------------------------------------------------------
data_VESTA_phase_1

_chemical_name_common                  'Al   Hf   Mg   N'
_cell_length_a                         9.439867
_cell_length_b                         9.454506
_cell_length_c                         10.072166
_cell_angle_alpha                      89.970764
_cell_angle_beta                       89.998764
_cell_angle_gamma                      60.040562
_cell_volume                           778.817193
_space_group_name_H-M_alt              'P 1'
_space_group_IT_number                 1

loop_
_space_group_symop_operation_xyz
   'x, y, z'

loop_
   _atom_site_label
   _atom_site_occupancy
   _atom_site_fract_x
   _atom_site_fract_y
   _atom_site_fract_z
   _atom_site_adp_type
   _atom_site_U_iso_or_equiv
   _atom_site_type_symbol
   Al1        1.0     0.115387     0.092096     0.303836    Uiso  ? Al
   Al2        1.0     0.222917     0.206291     0.058852    Uiso  ? Al
   Al3        1.0     0.776156     0.090584     0.815179    Uiso  ? Al
   Al4        1.0     0.445756     0.094192     0.307312    Uiso  ? Al
   Al5        1.0     0.553613     0.206582     0.060041    Uiso  ? Al
   Al6        1.0     0.116632     0.091707     0.814162    Uiso  ? Al
   Al7        1.0     0.228527     0.203242     0.559413    Uiso  ? Al
   Al8        1.0     0.775071     0.092429     0.301320    Uiso  ? Al
   Al9        1.0     0.889281     0.205727     0.056625    Uiso  ? Al
   Al10       1.0     0.444198     0.093415     0.808971    Uiso  ? Al
   Al11       1.0     0.112041     0.427343     0.309661    Uiso  ? Al
   Al12       1.0     0.221940     0.539091     0.058937    Uiso  ? Al
   Al13       1.0     0.774111     0.434754     0.815122    Uiso  ? Al
   Al14       1.0     0.888728     0.544293     0.558991    Uiso  ? Al
   Al15       1.0     0.444920     0.426654     0.307421    Uiso  ? Al
   Al16       1.0     0.553430     0.540555     0.059137    Uiso  ? Al
   Al17       1.0     0.111635     0.427668     0.809281    Uiso  ? Al
   Al18       1.0     0.223693     0.538971     0.559843    Uiso  ? Al
   Al19       1.0     0.775604     0.431618     0.303759    Uiso  ? Al
   Al20       1.0     0.890022     0.539879     0.059312    Uiso  ? Al
   Al21       1.0     0.443331     0.429686     0.808881    Uiso  ? Al
   Al22       1.0     0.548060     0.546064     0.559497    Uiso  ? Al
   Al23       1.0     0.111657     0.760053     0.309377    Uiso  ? Al
   Al24       1.0     0.223219     0.870214     0.059029    Uiso  ? Al
   Al25       1.0     0.777672     0.761376     0.809357    Uiso  ? Al
   Al26       1.0     0.889948     0.867154     0.558964    Uiso  ? Al
   Al27       1.0     0.444999     0.761418     0.309311    Uiso  ? Al
   Al28       1.0     0.555678     0.871783     0.059128    Uiso  ? Al
   Al29       1.0     0.111270     0.760024     0.808638    Uiso  ? Al
   Al30       1.0     0.226954     0.866702     0.559445    Uiso  ? Al
   Al31       1.0     0.777091     0.761527     0.309389    Uiso  ? Al
   Al32       1.0     0.890472     0.869607     0.059024    Uiso  ? Al
   Al33       1.0     0.444848     0.761323     0.808837    Uiso  ? Al
   Al34       1.0     0.554030     0.873537     0.560123    Uiso  ? Al
   Hf1        1.0     0.887139     0.206776     0.563954    Uiso  ? Hf
   Mg1        1.0     0.549689     0.206354     0.558946    Uiso  ? Mg
   N1         1.0     0.222098     0.204780     0.367787    Uiso  ? N
   N2         1.0     0.111935     0.093630     0.114577    Uiso  ? N
   N3         1.0     0.888965     0.207052     0.862781    Uiso  ? N
   N4         1.0     0.783813     0.077849     0.628205    Uiso  ? N
   N5         1.0     0.556620     0.205202     0.353967    Uiso  ? N
   N6         1.0     0.443786     0.093075     0.116663    Uiso  ? N
   N7         1.0     0.221880     0.207065     0.869912    Uiso  ? N
   N8         1.0     0.126544     0.085378     0.623379    Uiso  ? N
   N9         1.0     0.889038     0.205067     0.356071    Uiso  ? N
   N10        1.0     0.779599     0.092900     0.111728    Uiso  ? N
   N11        1.0     0.553565     0.206825     0.869030    Uiso  ? N
   N12        1.0     0.438725     0.086104     0.623285    Uiso  ? N
   N13        1.0     0.222491     0.538580     0.368470    Uiso  ? N
   N14        1.0     0.111363     0.427582     0.119236    Uiso  ? N
   N15        1.0     0.890053     0.540099     0.869547    Uiso  ? N
   N16        1.0     0.767470     0.447811     0.624598    Uiso  ? N
   N17        1.0     0.556179     0.538845     0.367685    Uiso  ? N
   N18        1.0     0.443312     0.429686     0.116672    Uiso  ? N
   N19        1.0     0.220958     0.539264     0.868948    Uiso  ? N
   N20        1.0     0.110782     0.426737     0.617642    Uiso  ? N
   N21        1.0     0.888752     0.538310     0.368152    Uiso  ? N
   N22        1.0     0.777670     0.428396     0.114662    Uiso  ? N
   N23        1.0     0.553800     0.541083     0.870556    Uiso  ? N
   N24        1.0     0.438250     0.442228     0.622179    Uiso  ? N
   N25        1.0     0.221953     0.872598     0.368268    Uiso  ? N
   N26        1.0     0.111683     0.760526     0.119112    Uiso  ? N
   N27        1.0     0.890650     0.868851     0.870304    Uiso  ? N
   N28        1.0     0.777399     0.761238     0.618508    Uiso  ? N
   N29        1.0     0.555651     0.872203     0.368349    Uiso  ? N
   N30        1.0     0.444320     0.761390     0.119264    Uiso  ? N
   N31        1.0     0.222921     0.870371     0.869034    Uiso  ? N
   N32        1.0     0.110761     0.760816     0.617569    Uiso  ? N
   N33        1.0     0.888928     0.872523     0.367447    Uiso  ? N
   N34        1.0     0.777857     0.760777     0.119323    Uiso  ? N
   N35        1.0     0.556510     0.870918     0.869412    Uiso  ? N
   N36        1.0     0.444451     0.762394     0.618595    Uiso  ? N
