
#======================================================================
# CRYSTAL DATA
#----------------------------------------------------------------------
data_VESTA_phase_1

_chemical_name_common                  'Al   Hf   Mg   N'
_cell_length_a                         9.657703
_cell_length_b                         9.675611
_cell_length_c                         9.452457
_cell_angle_alpha                      90.018997
_cell_angle_beta                       90.013374
_cell_angle_gamma                      60.074104
_cell_volume                           765.511001
_space_group_name_H-M_alt              'P 1'
_space_group_IT_number                 1

loop_
_space_group_symop_operation_xyz
   'x, y, z'

loop_
   _atom_site_label
   _atom_site_occupancy
   _atom_site_fract_x
   _atom_site_fract_y
   _atom_site_fract_z
   _atom_site_adp_type
   _atom_site_U_iso_or_equiv
   _atom_site_type_symbol
   Al1        1.0     0.120309     0.089899     0.369955    Uiso  ? Al
   Al2        1.0     0.224106     0.206631     0.127575    Uiso  ? Al
   Al3        1.0     0.776088     0.093262     0.884791    Uiso  ? Al
   Al4        1.0     0.444387     0.093618     0.380797    Uiso  ? Al
   Al5        1.0     0.552246     0.207456     0.122503    Uiso  ? Al
   Al6        1.0     0.113630     0.092762     0.884614    Uiso  ? Al
   Al7        1.0     0.227342     0.202880     0.629917    Uiso  ? Al
   Al8        1.0     0.774424     0.088586     0.369818    Uiso  ? Al
   Al9        1.0     0.888964     0.205935     0.133191    Uiso  ? Al
   Al10       1.0     0.445993     0.093435     0.877468    Uiso  ? Al
   Al11       1.0     0.111840     0.427357     0.378975    Uiso  ? Al
   Al12       1.0     0.222359     0.538710     0.128965    Uiso  ? Al
   Al13       1.0     0.776458     0.430574     0.884332    Uiso  ? Al
   Al14       1.0     0.888156     0.543883     0.629306    Uiso  ? Al
   Al15       1.0     0.443381     0.429727     0.380409    Uiso  ? Al
   Al16       1.0     0.551763     0.540914     0.126740    Uiso  ? Al
   Al17       1.0     0.111499     0.427543     0.877982    Uiso  ? Al
   Al18       1.0     0.222564     0.539541     0.628269    Uiso  ? Al
   Al19       1.0     0.771920     0.438529     0.369757    Uiso  ? Al
   Al20       1.0     0.890825     0.540231     0.128103    Uiso  ? Al
   Al21       1.0     0.444303     0.427163     0.877254    Uiso  ? Al
   Al22       1.0     0.548995     0.546703     0.630505    Uiso  ? Al
   Al23       1.0     0.111104     0.759688     0.379471    Uiso  ? Al
   Al24       1.0     0.223470     0.868908     0.128446    Uiso  ? Al
   Al25       1.0     0.776768     0.761256     0.878947    Uiso  ? Al
   Al26       1.0     0.890445     0.866538     0.630523    Uiso  ? Al
   Al27       1.0     0.444958     0.760976     0.378893    Uiso  ? Al
   Al28       1.0     0.555360     0.872493     0.128757    Uiso  ? Al
   Al29       1.0     0.111869     0.759802     0.878285    Uiso  ? Al
   Al30       1.0     0.226908     0.867086     0.628807    Uiso  ? Al
   Al31       1.0     0.777964     0.761260     0.378733    Uiso  ? Al
   Al32       1.0     0.891172     0.868647     0.127140    Uiso  ? Al
   Al33       1.0     0.444782     0.762236     0.879354    Uiso  ? Al
   Al34       1.0     0.554646     0.872208     0.628448    Uiso  ? Al
   Hf1        1.0     0.888496     0.206551     0.610923    Uiso  ? Hf
   Mg1        1.0     0.551236     0.206359     0.625098    Uiso  ? Mg
   N1         1.0     0.223055     0.207364     0.328165    Uiso  ? N
   N2         1.0     0.110975     0.093855     0.086881    Uiso  ? N
   N3         1.0     0.889129     0.205982     0.836323    Uiso  ? N
   N4         1.0     0.783664     0.075916     0.571184    Uiso  ? N
   N5         1.0     0.552412     0.207482     0.328549    Uiso  ? N
   N6         1.0     0.443790     0.092304     0.080124    Uiso  ? N
   N7         1.0     0.221029     0.204968     0.832653    Uiso  ? N
   N8         1.0     0.129704     0.083424     0.574167    Uiso  ? N
   N9         1.0     0.888866     0.207713     0.341325    Uiso  ? N
   N10        1.0     0.780628     0.093166     0.088239    Uiso  ? N
   N11        1.0     0.556983     0.205109     0.845950    Uiso  ? N
   N12        1.0     0.438789     0.086099     0.579386    Uiso  ? N
   N13        1.0     0.221112     0.538954     0.330745    Uiso  ? N
   N14        1.0     0.111553     0.427794     0.079521    Uiso  ? N
   N15        1.0     0.888453     0.538523     0.831760    Uiso  ? N
   N16        1.0     0.765529     0.450480     0.573830    Uiso  ? N
   N17        1.0     0.552476     0.541594     0.326869    Uiso  ? N
   N18        1.0     0.442053     0.430593     0.080020    Uiso  ? N
   N19        1.0     0.221269     0.538928     0.830257    Uiso  ? N
   N20        1.0     0.110541     0.426173     0.581860    Uiso  ? N
   N21        1.0     0.890629     0.540598     0.329016    Uiso  ? N
   N22        1.0     0.778162     0.427636     0.086282    Uiso  ? N
   N23        1.0     0.556472     0.539815     0.833468    Uiso  ? N
   N24        1.0     0.438233     0.442983     0.579945    Uiso  ? N
   N25        1.0     0.223393     0.869051     0.329450    Uiso  ? N
   N26        1.0     0.112262     0.759625     0.079546    Uiso  ? N
   N27        1.0     0.888848     0.872253     0.833314    Uiso  ? N
   N28        1.0     0.777943     0.760882     0.581064    Uiso  ? N
   N29        1.0     0.556550     0.871200     0.330125    Uiso  ? N
   N30        1.0     0.444024     0.762133     0.080146    Uiso  ? N
   N31        1.0     0.221766     0.873022     0.831639    Uiso  ? N
   N32        1.0     0.110712     0.760896     0.581899    Uiso  ? N
   N33        1.0     0.891195     0.867605     0.327264    Uiso  ? N
   N34        1.0     0.777427     0.760707     0.079813    Uiso  ? N
   N35        1.0     0.556291     0.871169     0.830929    Uiso  ? N
   N36        1.0     0.444327     0.762163     0.580681    Uiso  ? N
