
#======================================================================
# CRYSTAL DATA
#----------------------------------------------------------------------
data_VESTA_phase_1

_chemical_name_common                  'Al   Hf   Mg   N'
_cell_length_a                         9.883307
_cell_length_b                         9.901345
_cell_length_c                         8.749586
_cell_angle_alpha                      90.010674
_cell_angle_beta                       90.009361
_cell_angle_gamma                      60.077358
_cell_volume                           742.083291
_space_group_name_H-M_alt              'P 1'
_space_group_IT_number                 1

loop_
_space_group_symop_operation_xyz
   'x, y, z'

loop_
   _atom_site_label
   _atom_site_occupancy
   _atom_site_fract_x
   _atom_site_fract_y
   _atom_site_fract_z
   _atom_site_adp_type
   _atom_site_U_iso_or_equiv
   _atom_site_type_symbol
   Al1        1.0     0.118706     0.090669     0.353680    Uiso  ? Al
   Al2        1.0     0.225339     0.206554     0.115434    Uiso  ? Al
   Al3        1.0     0.775363     0.091850     0.872181    Uiso  ? Al
   Al4        1.0     0.444871     0.093772     0.370393    Uiso  ? Al
   Al5        1.0     0.551431     0.207822     0.108407    Uiso  ? Al
   Al6        1.0     0.115781     0.091692     0.875467    Uiso  ? Al
   Al7        1.0     0.225742     0.203586     0.617897    Uiso  ? Al
   Al8        1.0     0.774353     0.089815     0.355278    Uiso  ? Al
   Al9        1.0     0.888581     0.205631     0.114434    Uiso  ? Al
   Al10       1.0     0.445838     0.093065     0.861953    Uiso  ? Al
   Al11       1.0     0.111876     0.427204     0.366674    Uiso  ? Al
   Al12       1.0     0.223042     0.538213     0.116705    Uiso  ? Al
   Al13       1.0     0.775374     0.433142     0.875133    Uiso  ? Al
   Al14       1.0     0.888255     0.543314     0.616709    Uiso  ? Al
   Al15       1.0     0.443898     0.428872     0.369790    Uiso  ? Al
   Al16       1.0     0.550623     0.541027     0.114464    Uiso  ? Al
   Al17       1.0     0.111219     0.427621     0.866518    Uiso  ? Al
   Al18       1.0     0.221555     0.540080     0.616690    Uiso  ? Al
   Al19       1.0     0.772733     0.436628     0.353725    Uiso  ? Al
   Al20       1.0     0.891217     0.540541     0.116657    Uiso  ? Al
   Al21       1.0     0.443917     0.427766     0.861929    Uiso  ? Al
   Al22       1.0     0.549882     0.546500     0.619125    Uiso  ? Al
   Al23       1.0     0.111109     0.759727     0.366908    Uiso  ? Al
   Al24       1.0     0.223822     0.868153     0.117006    Uiso  ? Al
   Al25       1.0     0.776840     0.760998     0.868140    Uiso  ? Al
   Al26       1.0     0.891002     0.866156     0.618536    Uiso  ? Al
   Al27       1.0     0.445058     0.761081     0.365934    Uiso  ? Al
   Al28       1.0     0.555000     0.873350     0.116432    Uiso  ? Al
   Al29       1.0     0.111855     0.759677     0.866881    Uiso  ? Al
   Al30       1.0     0.226281     0.867667     0.616284    Uiso  ? Al
   Al31       1.0     0.777666     0.761371     0.365935    Uiso  ? Al
   Al32       1.0     0.891151     0.868643     0.115115    Uiso  ? Al
   Al33       1.0     0.444769     0.762437     0.868566    Uiso  ? Al
   Al34       1.0     0.555164     0.871176     0.617265    Uiso  ? Al
   Hf1        1.0     0.889311     0.206607     0.604056    Uiso  ? Hf
   Mg1        1.0     0.551984     0.206478     0.611238    Uiso  ? Mg
   N1         1.0     0.223230     0.206899     0.340292    Uiso  ? N
   N2         1.0     0.112489     0.092973     0.099630    Uiso  ? N
   N3         1.0     0.889330     0.206665     0.854237    Uiso  ? N
   N4         1.0     0.784133     0.077970     0.588345    Uiso  ? N
   N5         1.0     0.552770     0.207313     0.338836    Uiso  ? N
   N6         1.0     0.443938     0.092316     0.090604    Uiso  ? N
   N7         1.0     0.220571     0.205580     0.845272    Uiso  ? N
   N8         1.0     0.127555     0.084624     0.587503    Uiso  ? N
   N9         1.0     0.888805     0.207533     0.344552    Uiso  ? N
   N10        1.0     0.780061     0.092330     0.099541    Uiso  ? N
   N11        1.0     0.556488     0.205374     0.858217    Uiso  ? N
   N12        1.0     0.439168     0.086613     0.595251    Uiso  ? N
   N13        1.0     0.221412     0.538719     0.343156    Uiso  ? N
   N14        1.0     0.111651     0.427750     0.091828    Uiso  ? N
   N15        1.0     0.888660     0.538920     0.844128    Uiso  ? N
   N16        1.0     0.766805     0.447716     0.587806    Uiso  ? N
   N17        1.0     0.552782     0.541194     0.338442    Uiso  ? N
   N18        1.0     0.441882     0.430542     0.090636    Uiso  ? N
   N19        1.0     0.220432     0.539159     0.842275    Uiso  ? N
   N20        1.0     0.110512     0.426319     0.593676    Uiso  ? N
   N21        1.0     0.890394     0.540284     0.341201    Uiso  ? N
   N22        1.0     0.777483     0.429175     0.098956    Uiso  ? N
   N23        1.0     0.556286     0.540536     0.846698    Uiso  ? N
   N24        1.0     0.438523     0.442097     0.595452    Uiso  ? N
   N25        1.0     0.223168     0.869441     0.341542    Uiso  ? N
   N26        1.0     0.112427     0.759336     0.091742    Uiso  ? N
   N27        1.0     0.889196     0.871167     0.846159    Uiso  ? N
   N28        1.0     0.777917     0.760854     0.592842    Uiso  ? N
   N29        1.0     0.556365     0.871613     0.341876    Uiso  ? N
   N30        1.0     0.443910     0.762392     0.092519    Uiso  ? N
   N31        1.0     0.221958     0.872642     0.843968    Uiso  ? N
   N32        1.0     0.110881     0.760929     0.593653    Uiso  ? N
   N33        1.0     0.890737     0.868401     0.339205    Uiso  ? N
   N34        1.0     0.777410     0.760671     0.092246    Uiso  ? N
   N35        1.0     0.556857     0.870400     0.843460    Uiso  ? N
   N36        1.0     0.444180     0.762166     0.592414    Uiso  ? N
