
#======================================================================
# CRYSTAL DATA
#----------------------------------------------------------------------
data_VESTA_phase_1

_chemical_name_common                  'Al   Hf   Mg   N'
_cell_length_a                         9.439869
_cell_length_b                         9.454507
_cell_length_c                         10.072169
_cell_angle_alpha                      90.029160
_cell_angle_beta                       90.001205
_cell_angle_gamma                      60.040520
_cell_volume                           778.817322
_space_group_name_H-M_alt              'P 1'
_space_group_IT_number                 1

loop_
_space_group_symop_operation_xyz
   'x, y, z'

loop_
   _atom_site_label
   _atom_site_occupancy
   _atom_site_fract_x
   _atom_site_fract_y
   _atom_site_fract_z
   _atom_site_adp_type
   _atom_site_U_iso_or_equiv
   _atom_site_type_symbol
   Al1        1.0     0.116651     0.091657     0.405058    Uiso  ? Al
   Al2        1.0     0.222936     0.206242     0.160367    Uiso  ? Al
   Al3        1.0     0.775091     0.092380     0.917899    Uiso  ? Al
   Al4        1.0     0.444217     0.093366     0.410248    Uiso  ? Al
   Al5        1.0     0.553633     0.206533     0.159178    Uiso  ? Al
   Al6        1.0     0.115406     0.092046     0.915384    Uiso  ? Al
   Al7        1.0     0.228546     0.203193     0.659806    Uiso  ? Al
   Al8        1.0     0.776175     0.090535     0.404041    Uiso  ? Al
   Al9        1.0     0.889300     0.205678     0.162595    Uiso  ? Al
   Al10       1.0     0.445775     0.094143     0.911907    Uiso  ? Al
   Al11       1.0     0.111654     0.427619     0.409938    Uiso  ? Al
   Al12       1.0     0.221959     0.539041     0.160282    Uiso  ? Al
   Al13       1.0     0.775623     0.431569     0.915461    Uiso  ? Al
   Al14       1.0     0.888747     0.544244     0.660228    Uiso  ? Al
   Al15       1.0     0.443350     0.429637     0.410337    Uiso  ? Al
   Al16       1.0     0.553449     0.540506     0.160082    Uiso  ? Al
   Al17       1.0     0.112061     0.427294     0.909558    Uiso  ? Al
   Al18       1.0     0.223713     0.538922     0.659375    Uiso  ? Al
   Al19       1.0     0.774131     0.434705     0.404098    Uiso  ? Al
   Al20       1.0     0.890042     0.539830     0.159907    Uiso  ? Al
   Al21       1.0     0.444939     0.426605     0.911798    Uiso  ? Al
   Al22       1.0     0.548079     0.546015     0.659722    Uiso  ? Al
   Al23       1.0     0.111289     0.759975     0.410580    Uiso  ? Al
   Al24       1.0     0.223238     0.870164     0.160190    Uiso  ? Al
   Al25       1.0     0.777110     0.761478     0.909829    Uiso  ? Al
   Al26       1.0     0.889967     0.867105     0.660255    Uiso  ? Al
   Al27       1.0     0.444867     0.761274     0.410381    Uiso  ? Al
   Al28       1.0     0.555697     0.871733     0.160091    Uiso  ? Al
   Al29       1.0     0.111676     0.760004     0.909841    Uiso  ? Al
   Al30       1.0     0.226974     0.866652     0.659773    Uiso  ? Al
   Al31       1.0     0.777692     0.761326     0.409861    Uiso  ? Al
   Al32       1.0     0.890491     0.869558     0.160195    Uiso  ? Al
   Al33       1.0     0.445018     0.761369     0.909908    Uiso  ? Al
   Al34       1.0     0.554049     0.873488     0.659096    Uiso  ? Al
   Hf1        1.0     0.887157     0.206725     0.655265    Uiso  ? Hf
   Mg1        1.0     0.549708     0.206305     0.660274    Uiso  ? Mg
   N1         1.0     0.221899     0.207016     0.349307    Uiso  ? N
   N2         1.0     0.111954     0.093581     0.104642    Uiso  ? N
   N3         1.0     0.889057     0.205018     0.863148    Uiso  ? N
   N4         1.0     0.783833     0.077801     0.591015    Uiso  ? N
   N5         1.0     0.553584     0.206775     0.350189    Uiso  ? N
   N6         1.0     0.443806     0.093026     0.102556    Uiso  ? N
   N7         1.0     0.222117     0.204731     0.851432    Uiso  ? N
   N8         1.0     0.126563     0.085329     0.595841    Uiso  ? N
   N9         1.0     0.888984     0.207003     0.356439    Uiso  ? N
   N10        1.0     0.779618     0.092851     0.107491    Uiso  ? N
   N11        1.0     0.556639     0.205153     0.865252    Uiso  ? N
   N12        1.0     0.438744     0.086055     0.595934    Uiso  ? N
   N13        1.0     0.220977     0.539215     0.350271    Uiso  ? N
   N14        1.0     0.111382     0.427533     0.099983    Uiso  ? N
   N15        1.0     0.888771     0.538260     0.851067    Uiso  ? N
   N16        1.0     0.767489     0.447762     0.594621    Uiso  ? N
   N17        1.0     0.553819     0.541034     0.348663    Uiso  ? N
   N18        1.0     0.443331     0.429636     0.102547    Uiso  ? N
   N19        1.0     0.222511     0.538531     0.850749    Uiso  ? N
   N20        1.0     0.110801     0.426688     0.601577    Uiso  ? N
   N21        1.0     0.890072     0.540050     0.349672    Uiso  ? N
   N22        1.0     0.777690     0.428347     0.104557    Uiso  ? N
   N23        1.0     0.556199     0.538796     0.851534    Uiso  ? N
   N24        1.0     0.438269     0.442178     0.597040    Uiso  ? N
   N25        1.0     0.222940     0.870322     0.350185    Uiso  ? N
   N26        1.0     0.111703     0.760477     0.100106    Uiso  ? N
   N27        1.0     0.888947     0.872474     0.851772    Uiso  ? N
   N28        1.0     0.777418     0.761188     0.600711    Uiso  ? N
   N29        1.0     0.556529     0.870869     0.349806    Uiso  ? N
   N30        1.0     0.444340     0.761341     0.099955    Uiso  ? N
   N31        1.0     0.221972     0.872548     0.850950    Uiso  ? N
   N32        1.0     0.110781     0.760767     0.601649    Uiso  ? N
   N33        1.0     0.890669     0.868802     0.348915    Uiso  ? N
   N34        1.0     0.777876     0.760728     0.099896    Uiso  ? N
   N35        1.0     0.555670     0.872154     0.850869    Uiso  ? N
   N36        1.0     0.444470     0.762345     0.600623    Uiso  ? N
