
#======================================================================
# CRYSTAL DATA
#----------------------------------------------------------------------
data_VESTA_phase_1

_chemical_name_common                  'Al   Hf   Mg   N'
_cell_length_a                         9.607109
_cell_length_b                         9.624845
_cell_length_c                         9.602470
_cell_angle_alpha                      90.020927
_cell_angle_beta                       90.013412
_cell_angle_gamma                      60.071980
_cell_volume                           769.510530
_space_group_name_H-M_alt              'P 1'
_space_group_IT_number                 1

loop_
_space_group_symop_operation_xyz
   'x, y, z'

loop_
   _atom_site_label
   _atom_site_occupancy
   _atom_site_fract_x
   _atom_site_fract_y
   _atom_site_fract_z
   _atom_site_adp_type
   _atom_site_U_iso_or_equiv
   _atom_site_type_symbol
   Al1        1.0     0.120143     0.089965     0.372783    Uiso  ? Al
   Al2        1.0     0.223741     0.206539     0.129352    Uiso  ? Al
   Al3        1.0     0.775959     0.093358     0.886323    Uiso  ? Al
   Al4        1.0     0.444350     0.093547     0.381857    Uiso  ? Al
   Al5        1.0     0.552632     0.207255     0.125412    Uiso  ? Al
   Al6        1.0     0.113574     0.092826     0.885597    Uiso  ? Al
   Al7        1.0     0.227812     0.202840     0.631314    Uiso  ? Al
   Al8        1.0     0.774607     0.088659     0.372290    Uiso  ? Al
   Al9        1.0     0.889036     0.205943     0.135296    Uiso  ? Al
   Al10       1.0     0.446007     0.093628     0.879915    Uiso  ? Al
   Al11       1.0     0.111792     0.427400     0.380500    Uiso  ? Al
   Al12       1.0     0.222216     0.538802     0.130558    Uiso  ? Al
   Al13       1.0     0.776430     0.430421     0.885377    Uiso  ? Al
   Al14       1.0     0.888266     0.544047     0.630953    Uiso  ? Al
   Al15       1.0     0.443320     0.429806     0.381552    Uiso  ? Al
   Al16       1.0     0.552218     0.540801     0.128654    Uiso  ? Al
   Al17       1.0     0.111621     0.427492     0.879626    Uiso  ? Al
   Al18       1.0     0.222859     0.539364     0.629807    Uiso  ? Al
   Al19       1.0     0.772065     0.438376     0.372421    Uiso  ? Al
   Al20       1.0     0.890620     0.540085     0.129659    Uiso  ? Al
   Al21       1.0     0.444449     0.426981     0.879686    Uiso  ? Al
   Al22       1.0     0.548655     0.546694     0.631732    Uiso  ? Al
   Al23       1.0     0.111141     0.759725     0.381025    Uiso  ? Al
   Al24       1.0     0.223328     0.869287     0.129985    Uiso  ? Al
   Al25       1.0     0.776805     0.761342     0.880445    Uiso  ? Al
   Al26       1.0     0.890374     0.866538     0.631887    Uiso  ? Al
   Al27       1.0     0.444922     0.761044     0.380587    Uiso  ? Al
   Al28       1.0     0.555455     0.872289     0.130396    Uiso  ? Al
   Al29       1.0     0.111827     0.759833     0.879938    Uiso  ? Al
   Al30       1.0     0.227047     0.866840     0.630470    Uiso  ? Al
   Al31       1.0     0.777954     0.761252     0.380342    Uiso  ? Al
   Al32       1.0     0.891015     0.868909     0.128955    Uiso  ? Al
   Al33       1.0     0.444811     0.762100     0.880788    Uiso  ? Al
   Al34       1.0     0.554516     0.872530     0.629882    Uiso  ? Al
   Hf1        1.0     0.888237     0.206582     0.613686    Uiso  ? Hf
   Mg1        1.0     0.550854     0.206403     0.627554    Uiso  ? Mg
   N1         1.0     0.222835     0.207312     0.326609    Uiso  ? N
   N2         1.0     0.110798     0.093991     0.084433    Uiso  ? N
   N3         1.0     0.889066     0.205821     0.834369    Uiso  ? N
   N4         1.0     0.783490     0.075828     0.569283    Uiso  ? N
   N5         1.0     0.552639     0.207359     0.327138    Uiso  ? N
   N6         1.0     0.443810     0.092446     0.079044    Uiso  ? N
   N7         1.0     0.221310     0.204902     0.830729    Uiso  ? N
   N8         1.0     0.129743     0.083398     0.572860    Uiso  ? N
   N9         1.0     0.888891     0.207636     0.339941    Uiso  ? N
   N10        1.0     0.780568     0.093308     0.086142    Uiso  ? N
   N11        1.0     0.556882     0.205161     0.843775    Uiso  ? N
   N12        1.0     0.438791     0.086036     0.576716    Uiso  ? N
   N13        1.0     0.221035     0.539020     0.328925    Uiso  ? N
   N14        1.0     0.111508     0.427746     0.077911    Uiso  ? N
   N15        1.0     0.888513     0.538505     0.829977    Uiso  ? N
   N16        1.0     0.765535     0.450647     0.572329    Uiso  ? N
   N17        1.0     0.552707     0.541572     0.325473    Uiso  ? N
   N18        1.0     0.442292     0.430399     0.078929    Uiso  ? N
   N19        1.0     0.221553     0.538837     0.828659    Uiso  ? N
   N20        1.0     0.110581     0.426196     0.580110    Uiso  ? N
   N21        1.0     0.890526     0.540537     0.327362    Uiso  ? N
   N22        1.0     0.778212     0.427450     0.083948    Uiso  ? N
   N23        1.0     0.556318     0.539657     0.831364    Uiso  ? N
   N24        1.0     0.438201     0.442970     0.577382    Uiso  ? N
   N25        1.0     0.223328     0.869272     0.327800    Uiso  ? N
   N26        1.0     0.112151     0.759776     0.077968    Uiso  ? N
   N27        1.0     0.888869     0.872316     0.831318    Uiso  ? N
   N28        1.0     0.777885     0.760904     0.579323    Uiso  ? N
   N29        1.0     0.556584     0.871088     0.328408    Uiso  ? N
   N30        1.0     0.444076     0.761997     0.078413    Uiso  ? N
   N31        1.0     0.221795     0.872917     0.829864    Uiso  ? N
   N32        1.0     0.110730     0.760841     0.580151    Uiso  ? N
   N33        1.0     0.891123     0.867773     0.325805    Uiso  ? N
   N34        1.0     0.777492     0.760719     0.078134    Uiso  ? N
   N35        1.0     0.556124     0.871446     0.829206    Uiso  ? N
   N36        1.0     0.444351     0.762215     0.579010    Uiso  ? N
