
#======================================================================
# CRYSTAL DATA
#----------------------------------------------------------------------
data_VESTA_phase_1

_chemical_name_common                  'Al   Hf   Mg   N'
_cell_length_a                         9.959165
_cell_length_b                         9.977142
_cell_length_c                         8.515384
_cell_angle_alpha                      89.993889
_cell_angle_beta                       89.994156
_cell_angle_gamma                      60.077187
_cell_volume                           733.332938
_space_group_name_H-M_alt              'P 1'
_space_group_IT_number                 1

loop_
_space_group_symop_operation_xyz
   'x, y, z'

loop_
   _atom_site_label
   _atom_site_occupancy
   _atom_site_fract_x
   _atom_site_fract_y
   _atom_site_fract_z
   _atom_site_adp_type
   _atom_site_U_iso_or_equiv
   _atom_site_type_symbol
   Al1        1.0     0.116893     0.091264     0.340610    Uiso  ? Al
   Al2        1.0     0.225122     0.206291     0.100432    Uiso  ? Al
   Al3        1.0     0.774249     0.090425     0.858770    Uiso  ? Al
   Al4        1.0     0.445665     0.093332     0.353873    Uiso  ? Al
   Al5        1.0     0.551891     0.207607     0.103689    Uiso  ? Al
   Al6        1.0     0.118052     0.090895     0.860751    Uiso  ? Al
   Al7        1.0     0.225885     0.203891     0.599374    Uiso  ? Al
   Al8        1.0     0.774662     0.091114     0.344517    Uiso  ? Al
   Al9        1.0     0.888512     0.205501     0.101512    Uiso  ? Al
   Al10       1.0     0.445303     0.093638     0.846616    Uiso  ? Al
   Al11       1.0     0.111321     0.427458     0.349487    Uiso  ? Al
   Al12       1.0     0.223064     0.538139     0.100096    Uiso  ? Al
   Al13       1.0     0.773336     0.435785     0.860801    Uiso  ? Al
   Al14       1.0     0.888576     0.543310     0.599978    Uiso  ? Al
   Al15       1.0     0.444057     0.427843     0.353812    Uiso  ? Al
   Al16       1.0     0.551034     0.540865     0.100820    Uiso  ? Al
   Al17       1.0     0.111751     0.427292     0.850335    Uiso  ? Al
   Al18       1.0     0.221625     0.540066     0.599695    Uiso  ? Al
   Al19       1.0     0.774496     0.434447     0.340821    Uiso  ? Al
   Al20       1.0     0.890970     0.540332     0.099728    Uiso  ? Al
   Al21       1.0     0.444021     0.428328     0.847023    Uiso  ? Al
   Al22       1.0     0.549602     0.546310     0.598553    Uiso  ? Al
   Al23       1.0     0.111596     0.759755     0.349104    Uiso  ? Al
   Al24       1.0     0.223633     0.868643     0.099509    Uiso  ? Al
   Al25       1.0     0.777335     0.761349     0.851224    Uiso  ? Al
   Al26       1.0     0.891228     0.865962     0.599109    Uiso  ? Al
   Al27       1.0     0.444859     0.762108     0.347742    Uiso  ? Al
   Al28       1.0     0.555025     0.873335     0.100071    Uiso  ? Al
   Al29       1.0     0.111321     0.759678     0.850390    Uiso  ? Al
   Al30       1.0     0.226228     0.867434     0.600122    Uiso  ? Al
   Al31       1.0     0.777074     0.761065     0.347998    Uiso  ? Al
   Al32       1.0     0.890816     0.869253     0.100608    Uiso  ? Al
   Al33       1.0     0.445045     0.761472     0.851120    Uiso  ? Al
   Al34       1.0     0.555108     0.871342     0.599294    Uiso  ? Al
   Hf1        1.0     0.889399     0.206635     0.605036    Uiso  ? Hf
   Mg1        1.0     0.551587     0.206732     0.602422    Uiso  ? Mg
   N1         1.0     0.221223     0.205916     0.356676    Uiso  ? N
   N2         1.0     0.112855     0.092829     0.105649    Uiso  ? N
   N3         1.0     0.888904     0.207279     0.863396    Uiso  ? N
   N4         1.0     0.783926     0.078951     0.609940    Uiso  ? N
   N5         1.0     0.555534     0.205855     0.346806    Uiso  ? N
   N6         1.0     0.443948     0.092609     0.109883    Uiso  ? N
   N7         1.0     0.222580     0.206452     0.860821    Uiso  ? N
   N8         1.0     0.126604     0.085118     0.611347    Uiso  ? N
   N9         1.0     0.889253     0.206952     0.348423    Uiso  ? N
   N10        1.0     0.779936     0.092081     0.105863    Uiso  ? N
   N11        1.0     0.553892     0.206718     0.865807    Uiso  ? N
   N12        1.0     0.439418     0.086755     0.607285    Uiso  ? N
   N13        1.0     0.220641     0.539031     0.358829    Uiso  ? N
   N14        1.0     0.111630     0.427560     0.109145    Uiso  ? N
   N15        1.0     0.889861     0.539888     0.860286    Uiso  ? N
   N16        1.0     0.767564     0.446492     0.611056    Uiso  ? N
   N17        1.0     0.555442     0.540726     0.355451    Uiso  ? N
   N18        1.0     0.442236     0.430298     0.109856    Uiso  ? N
   N19        1.0     0.221227     0.538769     0.858667    Uiso  ? N
   N20        1.0     0.110555     0.426511     0.608375    Uiso  ? N
   N21        1.0     0.889080     0.539293     0.357353    Uiso  ? N
   N22        1.0     0.777177     0.429567     0.105992    Uiso  ? N
   N23        1.0     0.553800     0.540958     0.862397    Uiso  ? N
   N24        1.0     0.438518     0.441593     0.607186    Uiso  ? N
   N25        1.0     0.222253     0.871857     0.357516    Uiso  ? N
   N26        1.0     0.112251     0.759498     0.109164    Uiso  ? N
   N27        1.0     0.890167     0.869366     0.861612    Uiso  ? N
   N28        1.0     0.777763     0.760852     0.608841    Uiso  ? N
   N29        1.0     0.556785     0.870698     0.357695    Uiso  ? N
   N30        1.0     0.443923     0.762223     0.108928    Uiso  ? N
   N31        1.0     0.222837     0.870373     0.860103    Uiso  ? N
   N32        1.0     0.111084     0.760822     0.608425    Uiso  ? N
   N33        1.0     0.889582     0.870362     0.355862    Uiso  ? N
   N34        1.0     0.777607     0.760680     0.108942    Uiso  ? N
   N35        1.0     0.556464     0.871375     0.859991    Uiso  ? N
   N36        1.0     0.444108     0.762311     0.609050    Uiso  ? N
