
#======================================================================
# CRYSTAL DATA
#----------------------------------------------------------------------
data_VESTA_phase_1

_chemical_name_common                  'Al   Hf   Mg   N'
_cell_length_a                         9.922399
_cell_length_b                         9.940480
_cell_length_c                         8.626739
_cell_angle_alpha                      90.008667
_cell_angle_beta                       90.007851
_cell_angle_gamma                      60.077530
_cell_volume                           737.462693
_space_group_name_H-M_alt              'P 1'
_space_group_IT_number                 1

loop_
_space_group_symop_operation_xyz
   'x, y, z'

loop_
   _atom_site_label
   _atom_site_occupancy
   _atom_site_fract_x
   _atom_site_fract_y
   _atom_site_fract_z
   _atom_site_adp_type
   _atom_site_U_iso_or_equiv
   _atom_site_type_symbol
   Al1        1.0     0.118339     0.090811     0.350795    Uiso  ? Al
   Al2        1.0     0.225293     0.206426     0.112126    Uiso  ? Al
   Al3        1.0     0.775020     0.091506     0.868331    Uiso  ? Al
   Al4        1.0     0.445072     0.093722     0.366679    Uiso  ? Al
   Al5        1.0     0.551609     0.207735     0.106558    Uiso  ? Al
   Al6        1.0     0.116316     0.091477     0.872189    Uiso  ? Al
   Al7        1.0     0.225748     0.203754     0.614042    Uiso  ? Al
   Al8        1.0     0.774317     0.090145     0.352543    Uiso  ? Al
   Al9        1.0     0.888530     0.205558     0.110614    Uiso  ? Al
   Al10       1.0     0.445773     0.093175     0.858490    Uiso  ? Al
   Al11       1.0     0.111831     0.427230     0.362900    Uiso  ? Al
   Al12       1.0     0.223085     0.538156     0.113013    Uiso  ? Al
   Al13       1.0     0.774978     0.433771     0.871900    Uiso  ? Al
   Al14       1.0     0.888403     0.543298     0.613061    Uiso  ? Al
   Al15       1.0     0.443976     0.428612     0.366130    Uiso  ? Al
   Al16       1.0     0.550773     0.540945     0.111390    Uiso  ? Al
   Al17       1.0     0.111246     0.427555     0.863246    Uiso  ? Al
   Al18       1.0     0.221547     0.540089     0.613250    Uiso  ? Al
   Al19       1.0     0.773024     0.436167     0.350776    Uiso  ? Al
   Al20       1.0     0.891116     0.540452     0.113206    Uiso  ? Al
   Al21       1.0     0.443975     0.427790     0.858508    Uiso  ? Al
   Al22       1.0     0.549784     0.546417     0.615179    Uiso  ? Al
   Al23       1.0     0.111196     0.759713     0.363013    Uiso  ? Al
   Al24       1.0     0.223745     0.868358     0.113511    Uiso  ? Al
   Al25       1.0     0.776943     0.761010     0.864879    Uiso  ? Al
   Al26       1.0     0.891129     0.866036     0.614553    Uiso  ? Al
   Al27       1.0     0.445060     0.761244     0.362136    Uiso  ? Al
   Al28       1.0     0.554994     0.873385     0.112864    Uiso  ? Al
   Al29       1.0     0.111750     0.759707     0.863639    Uiso  ? Al
   Al30       1.0     0.226236     0.867579     0.612748    Uiso  ? Al
   Al31       1.0     0.777511     0.761377     0.362084    Uiso  ? Al
   Al32       1.0     0.890986     0.868940     0.111880    Uiso  ? Al
   Al33       1.0     0.444801     0.762313     0.865229    Uiso  ? Al
   Al34       1.0     0.555166     0.871206     0.613795    Uiso  ? Al
   Hf1        1.0     0.889373     0.206634     0.603788    Uiso  ? Hf
   Mg1        1.0     0.551836     0.206593     0.608729    Uiso  ? Mg
   N1         1.0     0.222976     0.206679     0.343954    Uiso  ? N
   N2         1.0     0.112690     0.092885     0.101633    Uiso  ? N
   N3         1.0     0.889311     0.206802     0.857697    Uiso  ? N
   N4         1.0     0.784051     0.078489     0.593553    Uiso  ? N
   N5         1.0     0.553254     0.207057     0.341069    Uiso  ? N
   N6         1.0     0.443969     0.092463     0.094434    Uiso  ? N
   N7         1.0     0.220815     0.205740     0.848608    Uiso  ? N
   N8         1.0     0.127045     0.084890     0.592142    Uiso  ? N
   N9         1.0     0.888833     0.207411     0.345028    Uiso  ? N
   N10        1.0     0.779958     0.092216     0.101436    Uiso  ? N
   N11        1.0     0.556085     0.205581     0.860271    Uiso  ? N
   N12        1.0     0.439300     0.086699     0.598538    Uiso  ? N
   N13        1.0     0.221364     0.538723     0.346528    Uiso  ? N
   N14        1.0     0.111648     0.427665     0.095551    Uiso  ? N
   N15        1.0     0.888838     0.539087     0.847645    Uiso  ? N
   N16        1.0     0.767187     0.447074     0.592481    Uiso  ? N
   N17        1.0     0.553224     0.541064     0.342165    Uiso  ? N
   N18        1.0     0.442052     0.430391     0.094479    Uiso  ? N
   N19        1.0     0.220486     0.539116     0.845927    Uiso  ? N
   N20        1.0     0.110527     0.426405     0.596921    Uiso  ? N
   N21        1.0     0.890157     0.540098     0.344695    Uiso  ? N
   N22        1.0     0.777337     0.429384     0.101092    Uiso  ? N
   N23        1.0     0.555938     0.540640     0.849971    Uiso  ? N
   N24        1.0     0.438544     0.441829     0.598690    Uiso  ? N
   N25        1.0     0.223014     0.869859     0.344967    Uiso  ? N
   N26        1.0     0.112358     0.759392     0.095487    Uiso  ? N
   N27        1.0     0.889372     0.870787     0.849480    Uiso  ? N
   N28        1.0     0.777847     0.760852     0.596200    Uiso  ? N
   N29        1.0     0.556386     0.871550     0.345177    Uiso  ? N
   N30        1.0     0.443915     0.762326     0.096042    Uiso  ? N
   N31        1.0     0.222083     0.872312     0.847482    Uiso  ? N
   N32        1.0     0.110978     0.760882     0.596873    Uiso  ? N
   N33        1.0     0.890466     0.868872     0.342971    Uiso  ? N
   N34        1.0     0.777492     0.760673     0.095891    Uiso  ? N
   N35        1.0     0.556850     0.870493     0.847115    Uiso  ? N
   N36        1.0     0.444143     0.762233     0.595861    Uiso  ? N
