
#======================================================================
# CRYSTAL DATA
#----------------------------------------------------------------------
data_VESTA_phase_1

_chemical_name_common                  'Al   Hf   Mg   N'
_cell_length_a                         9.449828
_cell_length_b                         9.465114
_cell_length_c                         10.044864
_cell_angle_alpha                      90.028511
_cell_angle_beta                       90.004906
_cell_angle_gamma                      60.047169
_cell_volume                           778.449756
_space_group_name_H-M_alt              'P 1'
_space_group_IT_number                 1

loop_
_space_group_symop_operation_xyz
   'x, y, z'

loop_
   _atom_site_label
   _atom_site_occupancy
   _atom_site_fract_x
   _atom_site_fract_y
   _atom_site_fract_z
   _atom_site_adp_type
   _atom_site_U_iso_or_equiv
   _atom_site_type_symbol
   Al1        1.0     0.117046     0.091476     0.379620    Uiso  ? Al
   Al2        1.0     0.222940     0.206275     0.134850    Uiso  ? Al
   Al3        1.0     0.775153     0.092552     0.892212    Uiso  ? Al
   Al4        1.0     0.444231     0.093402     0.384913    Uiso  ? Al
   Al5        1.0     0.553602     0.206605     0.133547    Uiso  ? Al
   Al6        1.0     0.115147     0.092186     0.889821    Uiso  ? Al
   Al7        1.0     0.228586     0.203150     0.634547    Uiso  ? Al
   Al8        1.0     0.776020     0.090340     0.378597    Uiso  ? Al
   Al9        1.0     0.889262     0.205746     0.137596    Uiso  ? Al
   Al10       1.0     0.445800     0.094145     0.886429    Uiso  ? Al
   Al11       1.0     0.111651     0.427602     0.384571    Uiso  ? Al
   Al12       1.0     0.221947     0.539053     0.134919    Uiso  ? Al
   Al13       1.0     0.775688     0.431430     0.889873    Uiso  ? Al
   Al14       1.0     0.888716     0.544288     0.634931    Uiso  ? Al
   Al15       1.0     0.443341     0.429693     0.384968    Uiso  ? Al
   Al16       1.0     0.553390     0.540545     0.134543    Uiso  ? Al
   Al17       1.0     0.112026     0.427331     0.884178    Uiso  ? Al
   Al18       1.0     0.223667     0.538943     0.633998    Uiso  ? Al
   Al19       1.0     0.773893     0.435157     0.378698    Uiso  ? Al
   Al20       1.0     0.890047     0.539847     0.134442    Uiso  ? Al
   Al21       1.0     0.444880     0.426652     0.886298    Uiso  ? Al
   Al22       1.0     0.548044     0.546148     0.634496    Uiso  ? Al
   Al23       1.0     0.111270     0.759980     0.385205    Uiso  ? Al
   Al24       1.0     0.223190     0.870187     0.134727    Uiso  ? Al
   Al25       1.0     0.777059     0.761512     0.884499    Uiso  ? Al
   Al26       1.0     0.890013     0.867024     0.635013    Uiso  ? Al
   Al27       1.0     0.444853     0.761290     0.385012    Uiso  ? Al
   Al28       1.0     0.555675     0.871794     0.134746    Uiso  ? Al
   Al29       1.0     0.111678     0.759997     0.884471    Uiso  ? Al
   Al30       1.0     0.227019     0.866613     0.634479    Uiso  ? Al
   Al31       1.0     0.777730     0.761333     0.384504    Uiso  ? Al
   Al32       1.0     0.890497     0.869591     0.134658    Uiso  ? Al
   Al33       1.0     0.444983     0.761474     0.884594    Uiso  ? Al
   Al34       1.0     0.554086     0.873465     0.633744    Uiso  ? Al
   Hf1        1.0     0.887234     0.206744     0.628644    Uiso  ? Hf
   Mg1        1.0     0.549747     0.206369     0.634710    Uiso  ? Mg
   N1         1.0     0.221963     0.207048     0.324205    Uiso  ? N
   N2         1.0     0.111727     0.093701     0.079630    Uiso  ? N
   N3         1.0     0.889019     0.205123     0.837133    Uiso  ? N
   N4         1.0     0.783716     0.077523     0.566000    Uiso  ? N
   N5         1.0     0.553529     0.206846     0.325077    Uiso  ? N
   N6         1.0     0.443806     0.093009     0.077473    Uiso  ? N
   N7         1.0     0.222080     0.204772     0.826516    Uiso  ? N
   N8         1.0     0.127016     0.085060     0.570784    Uiso  ? N
   N9         1.0     0.888970     0.207095     0.332125    Uiso  ? N
   N10        1.0     0.779717     0.092980     0.082403    Uiso  ? N
   N11        1.0     0.556608     0.205217     0.840203    Uiso  ? N
   N12        1.0     0.438767     0.086066     0.571045    Uiso  ? N
   N13        1.0     0.220957     0.539226     0.325307    Uiso  ? N
   N14        1.0     0.111373     0.427570     0.074964    Uiso  ? N
   N15        1.0     0.888744     0.538333     0.826139    Uiso  ? N
   N16        1.0     0.767204     0.448237     0.569608    Uiso  ? N
   N17        1.0     0.553729     0.541132     0.323532    Uiso  ? N
   N18        1.0     0.443236     0.429714     0.077444    Uiso  ? N
   N19        1.0     0.222435     0.538575     0.825723    Uiso  ? N
   N20        1.0     0.110778     0.426626     0.576600    Uiso  ? N
   N21        1.0     0.890091     0.540119     0.324599    Uiso  ? N
   N22        1.0     0.777754     0.428202     0.079520    Uiso  ? N
   N23        1.0     0.556127     0.538931     0.826653    Uiso  ? N
   N24        1.0     0.438255     0.442288     0.572121    Uiso  ? N
   N25        1.0     0.222960     0.870279     0.325104    Uiso  ? N
   N26        1.0     0.111720     0.760439     0.075088    Uiso  ? N
   N27        1.0     0.888937     0.872476     0.826878    Uiso  ? N
   N28        1.0     0.777469     0.761167     0.575743    Uiso  ? N
   N29        1.0     0.556542     0.870901     0.324859    Uiso  ? N
   N30        1.0     0.444301     0.761432     0.074982    Uiso  ? N
   N31        1.0     0.221946     0.872582     0.826025    Uiso  ? N
   N32        1.0     0.110778     0.760767     0.576669    Uiso  ? N
   N33        1.0     0.890697     0.868756     0.323779    Uiso  ? N
   N34        1.0     0.777821     0.760757     0.074909    Uiso  ? N
   N35        1.0     0.555677     0.872165     0.825876    Uiso  ? N
   N36        1.0     0.444448     0.762373     0.575647    Uiso  ? N
