
#======================================================================
# CRYSTAL DATA
#----------------------------------------------------------------------
data_VESTA_phase_1

_chemical_name_common                  'Al   Hf   Mg   N'
_cell_length_a                         9.439868
_cell_length_b                         9.454505
_cell_length_c                         10.072163
_cell_angle_alpha                      90.029205
_cell_angle_beta                       90.001190
_cell_angle_gamma                      60.040501
_cell_volume                           778.816420
_space_group_name_H-M_alt              'P 1'
_space_group_IT_number                 1

loop_
_space_group_symop_operation_xyz
   'x, y, z'

loop_
   _atom_site_label
   _atom_site_occupancy
   _atom_site_fract_x
   _atom_site_fract_y
   _atom_site_fract_z
   _atom_site_adp_type
   _atom_site_U_iso_or_equiv
   _atom_site_type_symbol
   Al1        1.0     0.116646     0.091670     0.394802    Uiso  ? Al
   Al2        1.0     0.222932     0.206254     0.150114    Uiso  ? Al
   Al3        1.0     0.775086     0.092392     0.907647    Uiso  ? Al
   Al4        1.0     0.444212     0.093378     0.399995    Uiso  ? Al
   Al5        1.0     0.553628     0.206545     0.148926    Uiso  ? Al
   Al6        1.0     0.115402     0.092058     0.905127    Uiso  ? Al
   Al7        1.0     0.228541     0.203205     0.649553    Uiso  ? Al
   Al8        1.0     0.776171     0.090547     0.393789    Uiso  ? Al
   Al9        1.0     0.889295     0.205690     0.152338    Uiso  ? Al
   Al10       1.0     0.445771     0.094155     0.901655    Uiso  ? Al
   Al11       1.0     0.111649     0.427631     0.399687    Uiso  ? Al
   Al12       1.0     0.221954     0.539053     0.150032    Uiso  ? Al
   Al13       1.0     0.775618     0.431581     0.905204    Uiso  ? Al
   Al14       1.0     0.888742     0.544256     0.649977    Uiso  ? Al
   Al15       1.0     0.443346     0.429649     0.400086    Uiso  ? Al
   Al16       1.0     0.553445     0.540517     0.149830    Uiso  ? Al
   Al17       1.0     0.112056     0.427306     0.899306    Uiso  ? Al
   Al18       1.0     0.223708     0.538934     0.649124    Uiso  ? Al
   Al19       1.0     0.774126     0.434717     0.393845    Uiso  ? Al
   Al20       1.0     0.890037     0.539841     0.149655    Uiso  ? Al
   Al21       1.0     0.444935     0.426617     0.901546    Uiso  ? Al
   Al22       1.0     0.548074     0.546027     0.649470    Uiso  ? Al
   Al23       1.0     0.111284     0.759987     0.400330    Uiso  ? Al
   Al24       1.0     0.223234     0.870177     0.149938    Uiso  ? Al
   Al25       1.0     0.777105     0.761490     0.899579    Uiso  ? Al
   Al26       1.0     0.889963     0.867117     0.650005    Uiso  ? Al
   Al27       1.0     0.444862     0.761286     0.400131    Uiso  ? Al
   Al28       1.0     0.555693     0.871745     0.149840    Uiso  ? Al
   Al29       1.0     0.111672     0.760016     0.899591    Uiso  ? Al
   Al30       1.0     0.226969     0.866665     0.649522    Uiso  ? Al
   Al31       1.0     0.777687     0.761338     0.399611    Uiso  ? Al
   Al32       1.0     0.890486     0.869570     0.149944    Uiso  ? Al
   Al33       1.0     0.445013     0.761381     0.899657    Uiso  ? Al
   Al34       1.0     0.554044     0.873500     0.648844    Uiso  ? Al
   Hf1        1.0     0.887153     0.206739     0.645010    Uiso  ? Hf
   Mg1        1.0     0.549704     0.206317     0.650020    Uiso  ? Mg
   N1         1.0     0.221894     0.207028     0.339054    Uiso  ? N
   N2         1.0     0.111950     0.093593     0.094387    Uiso  ? N
   N3         1.0     0.889053     0.205029     0.852893    Uiso  ? N
   N4         1.0     0.783828     0.077811     0.580762    Uiso  ? N
   N5         1.0     0.553579     0.206787     0.339937    Uiso  ? N
   N6         1.0     0.443801     0.093038     0.092303    Uiso  ? N
   N7         1.0     0.222113     0.204743     0.841179    Uiso  ? N
   N8         1.0     0.126559     0.085341     0.585586    Uiso  ? N
   N9         1.0     0.888979     0.207015     0.346184    Uiso  ? N
   N10        1.0     0.779613     0.092863     0.097238    Uiso  ? N
   N11        1.0     0.556634     0.205164     0.854998    Uiso  ? N
   N12        1.0     0.438739     0.086067     0.585681    Uiso  ? N
   N13        1.0     0.220972     0.539227     0.340020    Uiso  ? N
   N14        1.0     0.111377     0.427545     0.089731    Uiso  ? N
   N15        1.0     0.888767     0.538273     0.840815    Uiso  ? N
   N16        1.0     0.767484     0.447774     0.584368    Uiso  ? N
   N17        1.0     0.553815     0.541046     0.338411    Uiso  ? N
   N18        1.0     0.443327     0.429648     0.092294    Uiso  ? N
   N19        1.0     0.222506     0.538543     0.840497    Uiso  ? N
   N20        1.0     0.110796     0.426700     0.591325    Uiso  ? N
   N21        1.0     0.890067     0.540062     0.339420    Uiso  ? N
   N22        1.0     0.777685     0.428359     0.094302    Uiso  ? N
   N23        1.0     0.556193     0.538808     0.841282    Uiso  ? N
   N24        1.0     0.438264     0.442191     0.586788    Uiso  ? N
   N25        1.0     0.222935     0.870334     0.339933    Uiso  ? N
   N26        1.0     0.111698     0.760489     0.089855    Uiso  ? N
   N27        1.0     0.888943     0.872486     0.841521    Uiso  ? N
   N28        1.0     0.777413     0.761201     0.590459    Uiso  ? N
   N29        1.0     0.556525     0.870881     0.339555    Uiso  ? N
   N30        1.0     0.444335     0.761353     0.089703    Uiso  ? N
   N31        1.0     0.221968     0.872560     0.840698    Uiso  ? N
   N32        1.0     0.110776     0.760779     0.591398    Uiso  ? N
   N33        1.0     0.890665     0.868814     0.338664    Uiso  ? N
   N34        1.0     0.777871     0.760740     0.089645    Uiso  ? N
   N35        1.0     0.555665     0.872165     0.840618    Uiso  ? N
   N36        1.0     0.444466     0.762357     0.590372    Uiso  ? N
