
#======================================================================
# CRYSTAL DATA
#----------------------------------------------------------------------
data_VESTA_phase_1

_chemical_name_common                  'Al   Hf   Mg   N'
_cell_length_a                         9.439888
_cell_length_b                         9.454525
_cell_length_c                         10.072129
_cell_angle_alpha                      89.970886
_cell_angle_beta                       89.998810
_cell_angle_gamma                      60.040462
_cell_volume                           778.816843
_space_group_name_H-M_alt              'P 1'
_space_group_IT_number                 1

loop_
_space_group_symop_operation_xyz
   'x, y, z'

loop_
   _atom_site_label
   _atom_site_occupancy
   _atom_site_fract_x
   _atom_site_fract_y
   _atom_site_fract_z
   _atom_site_adp_type
   _atom_site_U_iso_or_equiv
   _atom_site_type_symbol
   Al1        1.0     0.115390     0.092087     0.311154    Uiso  ? Al
   Al2        1.0     0.222920     0.206283     0.066171    Uiso  ? Al
   Al3        1.0     0.776159     0.090575     0.822496    Uiso  ? Al
   Al4        1.0     0.445759     0.094183     0.314630    Uiso  ? Al
   Al5        1.0     0.553617     0.206573     0.067360    Uiso  ? Al
   Al6        1.0     0.116636     0.091698     0.821480    Uiso  ? Al
   Al7        1.0     0.228530     0.203233     0.566732    Uiso  ? Al
   Al8        1.0     0.775075     0.092421     0.308639    Uiso  ? Al
   Al9        1.0     0.889284     0.205719     0.063942    Uiso  ? Al
   Al10       1.0     0.444202     0.093407     0.816290    Uiso  ? Al
   Al11       1.0     0.112045     0.427334     0.316980    Uiso  ? Al
   Al12       1.0     0.221943     0.539082     0.066255    Uiso  ? Al
   Al13       1.0     0.774114     0.434746     0.822439    Uiso  ? Al
   Al14       1.0     0.888731     0.544284     0.566310    Uiso  ? Al
   Al15       1.0     0.444923     0.426646     0.314739    Uiso  ? Al
   Al16       1.0     0.553434     0.540546     0.066456    Uiso  ? Al
   Al17       1.0     0.111638     0.427659     0.816599    Uiso  ? Al
   Al18       1.0     0.223697     0.538962     0.567162    Uiso  ? Al
   Al19       1.0     0.775607     0.431609     0.311077    Uiso  ? Al
   Al20       1.0     0.890026     0.539870     0.066631    Uiso  ? Al
   Al21       1.0     0.443334     0.429677     0.816200    Uiso  ? Al
   Al22       1.0     0.548063     0.546056     0.566816    Uiso  ? Al
   Al23       1.0     0.111660     0.760045     0.316696    Uiso  ? Al
   Al24       1.0     0.223222     0.870205     0.066348    Uiso  ? Al
   Al25       1.0     0.777676     0.761367     0.816676    Uiso  ? Al
   Al26       1.0     0.889952     0.867145     0.566282    Uiso  ? Al
   Al27       1.0     0.445002     0.761410     0.316630    Uiso  ? Al
   Al28       1.0     0.555682     0.871774     0.066447    Uiso  ? Al
   Al29       1.0     0.111273     0.760015     0.815957    Uiso  ? Al
   Al30       1.0     0.226958     0.866693     0.566764    Uiso  ? Al
   Al31       1.0     0.777094     0.761519     0.316708    Uiso  ? Al
   Al32       1.0     0.890475     0.869599     0.066343    Uiso  ? Al
   Al33       1.0     0.444851     0.761314     0.816156    Uiso  ? Al
   Al34       1.0     0.554033     0.873528     0.567442    Uiso  ? Al
   Hf1        1.0     0.887142     0.206767     0.571274    Uiso  ? Hf
   Mg1        1.0     0.549692     0.206346     0.566264    Uiso  ? Mg
   N1         1.0     0.222101     0.204771     0.375105    Uiso  ? N
   N2         1.0     0.111938     0.093622     0.121895    Uiso  ? N
   N3         1.0     0.888968     0.207043     0.870097    Uiso  ? N
   N4         1.0     0.783817     0.077841     0.635522    Uiso  ? N
   N5         1.0     0.556623     0.205193     0.361284    Uiso  ? N
   N6         1.0     0.443790     0.093066     0.123981    Uiso  ? N
   N7         1.0     0.221883     0.207056     0.877230    Uiso  ? N
   N8         1.0     0.126548     0.085369     0.630696    Uiso  ? N
   N9         1.0     0.889041     0.205058     0.363390    Uiso  ? N
   N10        1.0     0.779603     0.092892     0.119046    Uiso  ? N
   N11        1.0     0.553568     0.206816     0.876348    Uiso  ? N
   N12        1.0     0.438728     0.086095     0.630603    Uiso  ? N
   N13        1.0     0.222495     0.538572     0.375788    Uiso  ? N
   N14        1.0     0.111366     0.427574     0.126554    Uiso  ? N
   N15        1.0     0.890056     0.540091     0.876865    Uiso  ? N
   N16        1.0     0.767473     0.447803     0.631915    Uiso  ? N
   N17        1.0     0.556183     0.538837     0.375003    Uiso  ? N
   N18        1.0     0.443315     0.429677     0.123990    Uiso  ? N
   N19        1.0     0.220961     0.539255     0.876266    Uiso  ? N
   N20        1.0     0.110785     0.426728     0.624960    Uiso  ? N
   N21        1.0     0.888755     0.538301     0.375470    Uiso  ? N
   N22        1.0     0.777674     0.428387     0.121980    Uiso  ? N
   N23        1.0     0.553803     0.541075     0.877874    Uiso  ? N
   N24        1.0     0.438253     0.442219     0.629497    Uiso  ? N
   N25        1.0     0.221956     0.872589     0.375586    Uiso  ? N
   N26        1.0     0.111687     0.760517     0.126431    Uiso  ? N
   N27        1.0     0.890654     0.868843     0.877622    Uiso  ? N
   N28        1.0     0.777402     0.761229     0.625826    Uiso  ? N
   N29        1.0     0.555654     0.872194     0.375667    Uiso  ? N
   N30        1.0     0.444324     0.761382     0.126582    Uiso  ? N
   N31        1.0     0.222924     0.870363     0.876352    Uiso  ? N
   N32        1.0     0.110765     0.760807     0.624887    Uiso  ? N
   N33        1.0     0.888931     0.872514     0.374764    Uiso  ? N
   N34        1.0     0.777860     0.760768     0.126641    Uiso  ? N
   N35        1.0     0.556514     0.870910     0.876730    Uiso  ? N
   N36        1.0     0.444454     0.762386     0.625914    Uiso  ? N
