
#======================================================================
# CRYSTAL DATA
#----------------------------------------------------------------------
data_VESTA_phase_1

_chemical_name_common                  'Al   Hf   Mg   N'
_cell_length_a                         9.706543
_cell_length_b                         9.724525
_cell_length_c                         9.304467
_cell_angle_alpha                      90.017273
_cell_angle_beta                       90.013046
_cell_angle_gamma                      60.075401
_cell_volume                           761.175132
_space_group_name_H-M_alt              'P 1'
_space_group_IT_number                 1

loop_
_space_group_symop_operation_xyz
   'x, y, z'

loop_
   _atom_site_label
   _atom_site_occupancy
   _atom_site_fract_x
   _atom_site_fract_y
   _atom_site_fract_z
   _atom_site_adp_type
   _atom_site_U_iso_or_equiv
   _atom_site_type_symbol
   Al1        1.0     0.120216     0.089958     0.366846    Uiso  ? Al
   Al2        1.0     0.224476     0.206696     0.125634    Uiso  ? Al
   Al3        1.0     0.776130     0.093065     0.883077    Uiso  ? Al
   Al4        1.0     0.444434     0.093689     0.379516    Uiso  ? Al
   Al5        1.0     0.551899     0.207625     0.119451    Uiso  ? Al
   Al6        1.0     0.113869     0.092616     0.883495    Uiso  ? Al
   Al7        1.0     0.226878     0.202960     0.628254    Uiso  ? Al
   Al8        1.0     0.774336     0.088668     0.367122    Uiso  ? Al
   Al9        1.0     0.888887     0.205902     0.130388    Uiso  ? Al
   Al10       1.0     0.445967     0.093260     0.874772    Uiso  ? Al
   Al11       1.0     0.111877     0.427314     0.377207    Uiso  ? Al
   Al12       1.0     0.222516     0.538608     0.127159    Uiso  ? Al
   Al13       1.0     0.776390     0.430903     0.883167    Uiso  ? Al
   Al14       1.0     0.888083     0.543719     0.627410    Uiso  ? Al
   Al15       1.0     0.443468     0.429615     0.379055    Uiso  ? Al
   Al16       1.0     0.551336     0.541009     0.124674    Uiso  ? Al
   Al17       1.0     0.111393     0.427594     0.876166    Uiso  ? Al
   Al18       1.0     0.222278     0.539703     0.626520    Uiso  ? Al
   Al19       1.0     0.771917     0.438410     0.366790    Uiso  ? Al
   Al20       1.0     0.891007     0.540371     0.126379    Uiso  ? Al
   Al21       1.0     0.444158     0.427352     0.874586    Uiso  ? Al
   Al22       1.0     0.549318     0.546685     0.629019    Uiso  ? Al
   Al23       1.0     0.111069     0.759678     0.377674    Uiso  ? Al
   Al24       1.0     0.223614     0.868557     0.126738    Uiso  ? Al
   Al25       1.0     0.776742     0.761177     0.877279    Uiso  ? Al
   Al26       1.0     0.890526     0.866526     0.628896    Uiso  ? Al
   Al27       1.0     0.444988     0.760928     0.376953    Uiso  ? Al
   Al28       1.0     0.555264     0.872705     0.126898    Uiso  ? Al
   Al29       1.0     0.111905     0.759767     0.876462    Uiso  ? Al
   Al30       1.0     0.226754     0.867318     0.626897    Uiso  ? Al
   Al31       1.0     0.777957     0.761280     0.376869    Uiso  ? Al
   Al32       1.0     0.891288     0.868441     0.125180    Uiso  ? Al
   Al33       1.0     0.444760     0.762354     0.877736    Uiso  ? Al
   Al34       1.0     0.554780     0.871898     0.626803    Uiso  ? Al
   Hf1        1.0     0.888720     0.206527     0.608750    Uiso  ? Hf
   Mg1        1.0     0.551568     0.206327     0.622468    Uiso  ? Mg
   N1         1.0     0.223235     0.207373     0.329950    Uiso  ? N
   N2         1.0     0.111255     0.093672     0.089474    Uiso  ? N
   N3         1.0     0.889193     0.206133     0.839071    Uiso  ? N
   N4         1.0     0.783854     0.076161     0.573463    Uiso  ? N
   N5         1.0     0.552255     0.207571     0.330201    Uiso  ? N
   N6         1.0     0.443783     0.092194     0.081411    Uiso  ? N
   N7         1.0     0.220778     0.205055     0.834733    Uiso  ? N
   N8         1.0     0.129460     0.083570     0.575770    Uiso  ? N
   N9         1.0     0.888840     0.207749     0.342296    Uiso  ? N
   N10        1.0     0.780608     0.092980     0.090475    Uiso  ? N
   N11        1.0     0.557038     0.205081     0.848361    Uiso  ? N
   N12        1.0     0.438808     0.086182     0.582274    Uiso  ? N
   N13        1.0     0.221199     0.538889     0.332748    Uiso  ? N
   N14        1.0     0.111592     0.427826     0.081342    Uiso  ? N
   N15        1.0     0.888417     0.538554     0.833708    Uiso  ? N
   N16        1.0     0.765646     0.450108     0.575609    Uiso  ? N
   N17        1.0     0.552316     0.541575     0.328495    Uiso  ? N
   N18        1.0     0.441864     0.430734     0.081327    Uiso  ? N
   N19        1.0     0.221001     0.539014     0.832046    Uiso  ? N
   N20        1.0     0.110514     0.426167     0.583773    Uiso  ? N
   N21        1.0     0.890696     0.540621     0.330886    Uiso  ? N
   N22        1.0     0.778059     0.427920     0.088779    Uiso  ? N
   N23        1.0     0.556592     0.539972     0.835730    Uiso  ? N
   N24        1.0     0.438282     0.442923     0.582736    Uiso  ? N
   N25        1.0     0.223425     0.868911     0.331316    Uiso  ? N
   N26        1.0     0.112353     0.759498     0.081333    Uiso  ? N
   N27        1.0     0.888851     0.872147     0.835464    Uiso  ? N
   N28        1.0     0.777983     0.760867     0.582956    Uiso  ? N
   N29        1.0     0.556505     0.871323     0.332004    Uiso  ? N
   N30        1.0     0.443982     0.762248     0.082071    Uiso  ? N
   N31        1.0     0.221754     0.873086     0.833578    Uiso  ? N
   N32        1.0     0.110708     0.760937     0.583810    Uiso  ? N
   N33        1.0     0.891222     0.867536     0.328963    Uiso  ? N
   N34        1.0     0.777376     0.760698     0.081697    Uiso  ? N
   N35        1.0     0.556454     0.870906     0.832846    Uiso  ? N
   N36        1.0     0.444303     0.762121     0.582516    Uiso  ? N
