
#======================================================================
# CRYSTAL DATA
#----------------------------------------------------------------------
data_VESTA_phase_1

_chemical_name_common                  'Al   Hf   Mg   N'
_cell_length_a                         9.798782
_cell_length_b                         9.816797
_cell_length_c                         9.017344
_cell_angle_alpha                      90.014061
_cell_angle_beta                       90.011642
_cell_angle_gamma                      60.076775
_cell_volume                           751.772835
_space_group_name_H-M_alt              'P 1'
_space_group_IT_number                 1

loop_
_space_group_symop_operation_xyz
   'x, y, z'

loop_
   _atom_site_label
   _atom_site_occupancy
   _atom_site_fract_x
   _atom_site_fract_y
   _atom_site_fract_z
   _atom_site_adp_type
   _atom_site_U_iso_or_equiv
   _atom_site_type_symbol
   Al1        1.0     0.119563     0.090285     0.360172    Uiso  ? Al
   Al2        1.0     0.225083     0.206712     0.121091    Uiso  ? Al
   Al3        1.0     0.775917     0.092501     0.878587    Uiso  ? Al
   Al4        1.0     0.444588     0.093783     0.375933    Uiso  ? Al
   Al5        1.0     0.551445     0.207830     0.113418    Uiso  ? Al
   Al6        1.0     0.114718     0.092177     0.880367    Uiso  ? Al
   Al7        1.0     0.226113     0.203233     0.623940    Uiso  ? Al
   Al8        1.0     0.774328     0.089142     0.361255    Uiso  ? Al
   Al9        1.0     0.888724     0.205784     0.122946    Uiso  ? Al
   Al10       1.0     0.445908     0.093037     0.868691    Uiso  ? Al
   Al11       1.0     0.111909     0.427232     0.372742    Uiso  ? Al
   Al12       1.0     0.222825     0.538395     0.122689    Uiso  ? Al
   Al13       1.0     0.776008     0.431912     0.880003    Uiso  ? Al
   Al14       1.0     0.888077     0.543450     0.622755    Uiso  ? Al
   Al15       1.0     0.443687     0.429302     0.375360    Uiso  ? Al
   Al16       1.0     0.550732     0.541099     0.119983    Uiso  ? Al
   Al17       1.0     0.111253     0.427656     0.871898    Uiso  ? Al
   Al18       1.0     0.221804     0.539953     0.622259    Uiso  ? Al
   Al19       1.0     0.772214     0.437649     0.360268    Uiso  ? Al
   Al20       1.0     0.891235     0.540557     0.122201    Uiso  ? Al
   Al21       1.0     0.443946     0.427646     0.868580    Uiso  ? Al
   Al22       1.0     0.549782     0.546614     0.625022    Uiso  ? Al
   Al23       1.0     0.111041     0.759704     0.373125    Uiso  ? Al
   Al24       1.0     0.223817     0.868113     0.122577    Uiso  ? Al
   Al25       1.0     0.776737     0.761053     0.873304    Uiso  ? Al
   Al26       1.0     0.890738     0.866402     0.624634    Uiso  ? Al
   Al27       1.0     0.445033     0.760920     0.372181    Uiso  ? Al
   Al28       1.0     0.555096     0.873096     0.122351    Uiso  ? Al
   Al29       1.0     0.111938     0.759695     0.872206    Uiso  ? Al
   Al30       1.0     0.226470     0.867632     0.622239    Uiso  ? Al
   Al31       1.0     0.777873     0.761328     0.372195    Uiso  ? Al
   Al32       1.0     0.891343     0.868319     0.120661    Uiso  ? Al
   Al33       1.0     0.444745     0.762490     0.873800    Uiso  ? Al
   Al34       1.0     0.555023     0.871399     0.622732    Uiso  ? Al
   Hf1        1.0     0.889083     0.206548     0.605676    Uiso  ? Hf
   Mg1        1.0     0.551972     0.206342     0.616815    Uiso  ? Mg
   N1         1.0     0.223405     0.207238     0.334375    Uiso  ? N
   N2         1.0     0.111920     0.093275     0.094792    Uiso  ? N
   N3         1.0     0.889293     0.206405     0.846288    Uiso  ? N
   N4         1.0     0.784112     0.076948     0.579630    Uiso  ? N
   N5         1.0     0.552251     0.207584     0.334250    Uiso  ? N
   N6         1.0     0.443835     0.092140     0.084998    Uiso  ? N
   N7         1.0     0.220476     0.205289     0.839500    Uiso  ? N
   N8         1.0     0.128609     0.084053     0.580394    Uiso  ? N
   N9         1.0     0.888804     0.207707     0.343586    Uiso  ? N
   N10        1.0     0.780375     0.092608     0.095143    Uiso  ? N
   N11        1.0     0.556946     0.205132     0.853475    Uiso  ? N
   N12        1.0     0.438938     0.086394     0.588575    Uiso  ? N
   N13        1.0     0.221353     0.538780     0.337413    Uiso  ? N
   N14        1.0     0.111638     0.427837     0.085825    Uiso  ? N
   N15        1.0     0.888452     0.538681     0.838292    Uiso  ? N
   N16        1.0     0.766122     0.449015     0.580513    Uiso  ? N
   N17        1.0     0.552299     0.541437     0.332646    Uiso  ? N
   N18        1.0     0.441716     0.430777     0.084970    Uiso  ? N
   N19        1.0     0.220585     0.539140     0.836423    Uiso  ? N
   N20        1.0     0.110498     0.426207     0.588206    Uiso  ? N
   N21        1.0     0.890673     0.540542     0.335402    Uiso  ? N
   N22        1.0     0.777780     0.428595     0.094009    Uiso  ? N
   N23        1.0     0.556630     0.540273     0.840806    Uiso  ? N
   N24        1.0     0.438412     0.442597     0.588886    Uiso  ? N
   N25        1.0     0.223375     0.868942     0.335815    Uiso  ? N
   N26        1.0     0.112454     0.759346     0.085758    Uiso  ? N
   N27        1.0     0.888950     0.871775     0.840339    Uiso  ? N
   N28        1.0     0.777997     0.760857     0.587340    Uiso  ? N
   N29        1.0     0.556413     0.871536     0.336386    Uiso  ? N
   N30        1.0     0.443926     0.762394     0.086657    Uiso  ? N
   N31        1.0     0.221801     0.873023     0.838145    Uiso  ? N
   N32        1.0     0.110751     0.760970     0.588228    Uiso  ? N
   N33        1.0     0.891107     0.867734     0.333270    Uiso  ? N
   N34        1.0     0.777340     0.760679     0.086266    Uiso  ? N
   N35        1.0     0.556725     0.870509     0.837462    Uiso  ? N
   N36        1.0     0.444247     0.762097     0.586846    Uiso  ? N
