
#======================================================================
# CRYSTAL DATA
#----------------------------------------------------------------------
data_VESTA_phase_1

_chemical_name_common                  'Al   Hf   Mg   N'
_cell_length_a                         9.606874
_cell_length_b                         9.624610
_cell_length_c                         9.603125
_cell_angle_alpha                      89.979065
_cell_angle_beta                       89.986588
_cell_angle_gamma                      60.072041
_cell_volume                           769.525879
_space_group_name_H-M_alt              'P 1'
_space_group_IT_number                 1

loop_
_space_group_symop_operation_xyz
   'x, y, z'

loop_
   _atom_site_label
   _atom_site_occupancy
   _atom_site_fract_x
   _atom_site_fract_y
   _atom_site_fract_z
   _atom_site_adp_type
   _atom_site_U_iso_or_equiv
   _atom_site_type_symbol
   Al1        1.0     0.113573     0.092826     0.323346    Uiso  ? Al
   Al2        1.0     0.223736     0.206539     0.079590    Uiso  ? Al
   Al3        1.0     0.774609     0.088657     0.836648    Uiso  ? Al
   Al4        1.0     0.446009     0.093630     0.329025    Uiso  ? Al
   Al5        1.0     0.552636     0.207254     0.083523    Uiso  ? Al
   Al6        1.0     0.120144     0.089964     0.836153    Uiso  ? Al
   Al7        1.0     0.227814     0.202840     0.577629    Uiso  ? Al
   Al8        1.0     0.775959     0.093358     0.322622    Uiso  ? Al
   Al9        1.0     0.889037     0.205944     0.073641    Uiso  ? Al
   Al10       1.0     0.444349     0.093547     0.827088    Uiso  ? Al
   Al11       1.0     0.111621     0.427492     0.329314    Uiso  ? Al
   Al12       1.0     0.222214     0.538804     0.078382    Uiso  ? Al
   Al13       1.0     0.772064     0.438377     0.836516    Uiso  ? Al
   Al14       1.0     0.888266     0.544050     0.577989    Uiso  ? Al
   Al15       1.0     0.444451     0.426978     0.329255    Uiso  ? Al
   Al16       1.0     0.552223     0.540801     0.080289    Uiso  ? Al
   Al17       1.0     0.111791     0.427400     0.828440    Uiso  ? Al
   Al18       1.0     0.222859     0.539366     0.579136    Uiso  ? Al
   Al19       1.0     0.776431     0.430420     0.323568    Uiso  ? Al
   Al20       1.0     0.890618     0.540083     0.079281    Uiso  ? Al
   Al21       1.0     0.443319     0.429807     0.827394    Uiso  ? Al
   Al22       1.0     0.548654     0.546694     0.577213    Uiso  ? Al
   Al23       1.0     0.111826     0.759834     0.329003    Uiso  ? Al
   Al24       1.0     0.223325     0.869291     0.078955    Uiso  ? Al
   Al25       1.0     0.777956     0.761252     0.828599    Uiso  ? Al
   Al26       1.0     0.890376     0.866537     0.577056    Uiso  ? Al
   Al27       1.0     0.444811     0.762100     0.328154    Uiso  ? Al
   Al28       1.0     0.555456     0.872288     0.078543    Uiso  ? Al
   Al29       1.0     0.111140     0.759726     0.827914    Uiso  ? Al
   Al30       1.0     0.227045     0.866839     0.578472    Uiso  ? Al
   Al31       1.0     0.776806     0.761342     0.328497    Uiso  ? Al
   Al32       1.0     0.891015     0.868911     0.079987    Uiso  ? Al
   Al33       1.0     0.444921     0.761044     0.828354    Uiso  ? Al
   Al34       1.0     0.554517     0.872531     0.579060    Uiso  ? Al
   Hf1        1.0     0.888231     0.206576     0.595248    Uiso  ? Hf
   Mg1        1.0     0.550855     0.206402     0.581377    Uiso  ? Mg
   N1         1.0     0.221312     0.204902     0.378219    Uiso  ? N
   N2         1.0     0.110798     0.093992     0.124517    Uiso  ? N
   N3         1.0     0.888891     0.207636     0.869015    Uiso  ? N
   N4         1.0     0.783494     0.075834     0.639665    Uiso  ? N
   N5         1.0     0.556880     0.205162     0.365184    Uiso  ? N
   N6         1.0     0.443811     0.092448     0.129902    Uiso  ? N
   N7         1.0     0.222835     0.207311     0.882336    Uiso  ? N
   N8         1.0     0.129744     0.083399     0.636087    Uiso  ? N
   N9         1.0     0.889066     0.205820     0.374580    Uiso  ? N
   N10        1.0     0.780566     0.093310     0.122811    Uiso  ? N
   N11        1.0     0.552640     0.207358     0.881812    Uiso  ? N
   N12        1.0     0.438790     0.086036     0.632234    Uiso  ? N
   N13        1.0     0.221554     0.538835     0.380286    Uiso  ? N
   N14        1.0     0.111510     0.427747     0.131033    Uiso  ? N
   N15        1.0     0.890525     0.540536     0.881582    Uiso  ? N
   N16        1.0     0.765535     0.450649     0.636618    Uiso  ? N
   N17        1.0     0.556317     0.539657     0.377586    Uiso  ? N
   N18        1.0     0.442292     0.430398     0.130016    Uiso  ? N
   N19        1.0     0.221036     0.539019     0.880021    Uiso  ? N
   N20        1.0     0.110581     0.426195     0.628836    Uiso  ? N
   N21        1.0     0.888513     0.538505     0.378969    Uiso  ? N
   N22        1.0     0.778211     0.427450     0.125004    Uiso  ? N
   N23        1.0     0.552708     0.541572     0.883473    Uiso  ? N
   N24        1.0     0.438201     0.442972     0.631569    Uiso  ? N
   N25        1.0     0.221797     0.872916     0.379084    Uiso  ? N
   N26        1.0     0.112152     0.759776     0.130975    Uiso  ? N
   N27        1.0     0.891122     0.867774     0.883142    Uiso  ? N
   N28        1.0     0.777883     0.760903     0.629622    Uiso  ? N
   N29        1.0     0.556123     0.871447     0.379740    Uiso  ? N
   N30        1.0     0.444076     0.761998     0.130532    Uiso  ? N
   N31        1.0     0.223328     0.869273     0.881144    Uiso  ? N
   N32        1.0     0.110731     0.760841     0.628795    Uiso  ? N
   N33        1.0     0.888868     0.872315     0.377629    Uiso  ? N
   N34        1.0     0.777491     0.760720     0.130810    Uiso  ? N
   N35        1.0     0.556584     0.871088     0.880537    Uiso  ? N
   N36        1.0     0.444351     0.762217     0.629935    Uiso  ? N
