
#======================================================================
# CRYSTAL DATA
#----------------------------------------------------------------------
data_VESTA_phase_1

_chemical_name_common                  'Al   Hf   Mg   N'
_cell_length_a                         9.449526
_cell_length_b                         9.464789
_cell_length_c                         10.045688
_cell_angle_alpha                      89.971489
_cell_angle_beta                       89.995285
_cell_angle_gamma                      60.046890
_cell_volume                           778.459857
_space_group_name_H-M_alt              'P 1'
_space_group_IT_number                 1

loop_
_space_group_symop_operation_xyz
   'x, y, z'

loop_
   _atom_site_label
   _atom_site_occupancy
   _atom_site_fract_x
   _atom_site_fract_y
   _atom_site_fract_z
   _atom_site_adp_type
   _atom_site_U_iso_or_equiv
   _atom_site_type_symbol
   Al1        1.0     0.115152     0.092185     0.319132    Uiso  ? Al
   Al2        1.0     0.222939     0.206276     0.074103    Uiso  ? Al
   Al3        1.0     0.776023     0.090348     0.830360    Uiso  ? Al
   Al4        1.0     0.445799     0.094148     0.322526    Uiso  ? Al
   Al5        1.0     0.553601     0.206606     0.075402    Uiso  ? Al
   Al6        1.0     0.117035     0.091484     0.829337    Uiso  ? Al
   Al7        1.0     0.228584     0.203154     0.574413    Uiso  ? Al
   Al8        1.0     0.775151     0.092551     0.316736    Uiso  ? Al
   Al9        1.0     0.889262     0.205747     0.071372    Uiso  ? Al
   Al10       1.0     0.444230     0.093404     0.824043    Uiso  ? Al
   Al11       1.0     0.112025     0.427333     0.324777    Uiso  ? Al
   Al12       1.0     0.221947     0.539056     0.074037    Uiso  ? Al
   Al13       1.0     0.773898     0.435147     0.830260    Uiso  ? Al
   Al14       1.0     0.888716     0.544289     0.574027    Uiso  ? Al
   Al15       1.0     0.444880     0.426654     0.322657    Uiso  ? Al
   Al16       1.0     0.553390     0.540546     0.074409    Uiso  ? Al
   Al17       1.0     0.111650     0.427605     0.824385    Uiso  ? Al
   Al18       1.0     0.223667     0.538945     0.574957    Uiso  ? Al
   Al19       1.0     0.775686     0.431437     0.319079    Uiso  ? Al
   Al20       1.0     0.890046     0.539850     0.074511    Uiso  ? Al
   Al21       1.0     0.443340     0.429694     0.823988    Uiso  ? Al
   Al22       1.0     0.548044     0.546148     0.574464    Uiso  ? Al
   Al23       1.0     0.111676     0.760000     0.324485    Uiso  ? Al
   Al24       1.0     0.223190     0.870189     0.074226    Uiso  ? Al
   Al25       1.0     0.777728     0.761336     0.824452    Uiso  ? Al
   Al26       1.0     0.890010     0.867030     0.573947    Uiso  ? Al
   Al27       1.0     0.444982     0.761475     0.324363    Uiso  ? Al
   Al28       1.0     0.555675     0.871795     0.074211    Uiso  ? Al
   Al29       1.0     0.111269     0.759983     0.823751    Uiso  ? Al
   Al30       1.0     0.227016     0.866617     0.574479    Uiso  ? Al
   Al31       1.0     0.777059     0.761514     0.324458    Uiso  ? Al
   Al32       1.0     0.890496     0.869593     0.074294    Uiso  ? Al
   Al33       1.0     0.444852     0.761292     0.823944    Uiso  ? Al
   Al34       1.0     0.554084     0.873469     0.575212    Uiso  ? Al
   Hf1        1.0     0.887230     0.206745     0.580281    Uiso  ? Hf
   Mg1        1.0     0.549746     0.206370     0.574241    Uiso  ? Mg
   N1         1.0     0.222079     0.204774     0.382454    Uiso  ? N
   N2         1.0     0.111732     0.093701     0.129338    Uiso  ? N
   N3         1.0     0.888969     0.207096     0.876863    Uiso  ? N
   N4         1.0     0.783719     0.077534     0.642970    Uiso  ? N
   N5         1.0     0.556608     0.205219     0.368765    Uiso  ? N
   N6         1.0     0.443805     0.093012     0.131494    Uiso  ? N
   N7         1.0     0.221961     0.207050     0.884761    Uiso  ? N
   N8         1.0     0.127003     0.085071     0.638184    Uiso  ? N
   N9         1.0     0.889019     0.205124     0.371810    Uiso  ? N
   N10        1.0     0.779713     0.092980     0.126563    Uiso  ? N
   N11        1.0     0.553529     0.206847     0.883888    Uiso  ? N
   N12        1.0     0.438765     0.086069     0.637924    Uiso  ? N
   N13        1.0     0.222435     0.538577     0.383244    Uiso  ? N
   N14        1.0     0.111372     0.427572     0.134002    Uiso  ? N
   N15        1.0     0.890090     0.540120     0.884366    Uiso  ? N
   N16        1.0     0.767211     0.448228     0.639361    Uiso  ? N
   N17        1.0     0.556128     0.538930     0.382318    Uiso  ? N
   N18        1.0     0.443237     0.429715     0.131522    Uiso  ? N
   N19        1.0     0.220957     0.539229     0.883661    Uiso  ? N
   N20        1.0     0.110777     0.426630     0.632368    Uiso  ? N
   N21        1.0     0.888744     0.538333     0.382830    Uiso  ? N
   N22        1.0     0.777751     0.428209     0.129448    Uiso  ? N
   N23        1.0     0.553729     0.541132     0.885433    Uiso  ? N
   N24        1.0     0.438255     0.442288     0.636848    Uiso  ? N
   N25        1.0     0.221946     0.872584     0.382944    Uiso  ? N
   N26        1.0     0.111719     0.760443     0.133879    Uiso  ? N
   N27        1.0     0.890695     0.868760     0.885185    Uiso  ? N
   N28        1.0     0.777467     0.761170     0.633225    Uiso  ? N
   N29        1.0     0.555676     0.872167     0.383092    Uiso  ? N
   N30        1.0     0.444302     0.761433     0.133986    Uiso  ? N
   N31        1.0     0.222958     0.870282     0.883862    Uiso  ? N
   N32        1.0     0.110777     0.760770     0.632299    Uiso  ? N
   N33        1.0     0.888936     0.872479     0.382092    Uiso  ? N
   N34        1.0     0.777822     0.760760     0.134059    Uiso  ? N
   N35        1.0     0.556540     0.870903     0.884109    Uiso  ? N
   N36        1.0     0.444448     0.762375     0.633321    Uiso  ? N
