
#======================================================================
# CRYSTAL DATA
#----------------------------------------------------------------------
data_VESTA_phase_1

_chemical_name_common                  'Al   Hf   Mg   N'
_cell_length_a                         9.501396
_cell_length_b                         9.518172
_cell_length_c                         9.903628
_cell_angle_alpha                      90.025749
_cell_angle_beta                       90.011353
_cell_angle_gamma                      60.062355
_cell_volume                           776.137107
_space_group_name_H-M_alt              'P 1'
_space_group_IT_number                 1

loop_
_space_group_symop_operation_xyz
   'x, y, z'

loop_
   _atom_site_label
   _atom_site_occupancy
   _atom_site_fract_x
   _atom_site_fract_y
   _atom_site_fract_z
   _atom_site_adp_type
   _atom_site_U_iso_or_equiv
   _atom_site_type_symbol
   Al1        1.0     0.118656     0.090668     0.377293    Uiso  ? Al
   Al2        1.0     0.223114     0.206339     0.132521    Uiso  ? Al
   Al3        1.0     0.775494     0.093068     0.889391    Uiso  ? Al
   Al4        1.0     0.444290     0.093433     0.383459    Uiso  ? Al
   Al5        1.0     0.553375     0.206820     0.130525    Uiso  ? Al
   Al6        1.0     0.114231     0.092587     0.887585    Uiso  ? Al
   Al7        1.0     0.228546     0.202940     0.633256    Uiso  ? Al
   Al8        1.0     0.775378     0.089455     0.376336    Uiso  ? Al
   Al9        1.0     0.889169     0.205871     0.137201    Uiso  ? Al
   Al10       1.0     0.445936     0.093992     0.884015    Uiso  ? Al
   Al11       1.0     0.111691     0.427484     0.382870    Uiso  ? Al
   Al12       1.0     0.221997     0.538972     0.133142    Uiso  ? Al
   Al13       1.0     0.776052     0.430784     0.887531    Uiso  ? Al
   Al14       1.0     0.888568     0.544291     0.633410    Uiso  ? Al
   Al15       1.0     0.443314     0.429799     0.383364    Uiso  ? Al
   Al16       1.0     0.553077     0.540601     0.132094    Uiso  ? Al
   Al17       1.0     0.111897     0.427382     0.882342    Uiso  ? Al
   Al18       1.0     0.223429     0.539027     0.632250    Uiso  ? Al
   Al19       1.0     0.772977     0.436838     0.376565    Uiso  ? Al
   Al20       1.0     0.890198     0.539862     0.132367    Uiso  ? Al
   Al21       1.0     0.444718     0.426720     0.883813    Uiso  ? Al
   Al22       1.0     0.548096     0.546492     0.633358    Uiso  ? Al
   Al23       1.0     0.111223     0.759875     0.383461    Uiso  ? Al
   Al24       1.0     0.223134     0.870002     0.132662    Uiso  ? Al
   Al25       1.0     0.776929     0.761485     0.882859    Uiso  ? Al
   Al26       1.0     0.890196     0.866688     0.633771    Uiso  ? Al
   Al27       1.0     0.444859     0.761208     0.383240    Uiso  ? Al
   Al28       1.0     0.555615     0.871943     0.133015    Uiso  ? Al
   Al29       1.0     0.111738     0.759895     0.882659    Uiso  ? Al
   Al30       1.0     0.227158     0.866505     0.632954    Uiso  ? Al
   Al31       1.0     0.777870     0.761271     0.382814    Uiso  ? Al
   Al32       1.0     0.890643     0.869462     0.132244    Uiso  ? Al
   Al33       1.0     0.444904     0.761747     0.883042    Uiso  ? Al
   Al34       1.0     0.554258     0.873176     0.632113    Uiso  ? Al
   Hf1        1.0     0.887615     0.206687     0.621774    Uiso  ? Hf
   Mg1        1.0     0.550055     0.206454     0.631947    Uiso  ? Mg
   N1         1.0     0.222295     0.207121     0.324171    Uiso  ? N
   N2         1.0     0.111030     0.093985     0.080251    Uiso  ? N
   N3         1.0     0.888981     0.205417     0.833834    Uiso  ? N
   N4         1.0     0.783402     0.076456     0.566315    Uiso  ? N
   N5         1.0     0.553237     0.207033     0.324973    Uiso  ? N
   N6         1.0     0.443839     0.092802     0.077336    Uiso  ? N
   N7         1.0     0.221879     0.204814     0.827261    Uiso  ? N
   N8         1.0     0.128662     0.084041     0.570809    Uiso  ? N
   N9         1.0     0.888945     0.207342     0.335174    Uiso  ? N
   N10        1.0     0.780146     0.093295     0.082659    Uiso  ? N
   N11        1.0     0.556640     0.205262     0.840433    Uiso  ? N
   N12        1.0     0.438822     0.086014     0.572087    Uiso  ? N
   N13        1.0     0.220946     0.539151     0.325803    Uiso  ? N
   N14        1.0     0.111410     0.427630     0.075226    Uiso  ? N
   N15        1.0     0.888671     0.538448     0.826783    Uiso  ? N
   N16        1.0     0.766219     0.449804     0.569854    Uiso  ? N
   N17        1.0     0.553343     0.541370     0.323348    Uiso  ? N
   N18        1.0     0.442880     0.429943     0.077246    Uiso  ? N
   N19        1.0     0.222137     0.538653     0.825972    Uiso  ? N
   N20        1.0     0.110704     0.426363     0.577065    Uiso  ? N
   N21        1.0     0.890246     0.540298     0.324700    Uiso  ? N
   N22        1.0     0.778047     0.427623     0.080014    Uiso  ? N
   N23        1.0     0.556055     0.539275     0.827558    Uiso  ? N
   N24        1.0     0.438220     0.442641     0.573013    Uiso  ? N
   N25        1.0     0.223109     0.869904     0.325171    Uiso  ? N
   N26        1.0     0.111876     0.760170     0.075337    Uiso  ? N
   N27        1.0     0.888932     0.872387     0.827707    Uiso  ? N
   N28        1.0     0.777679     0.761015     0.576249    Uiso  ? N
   N29        1.0     0.556598     0.870928     0.325389    Uiso  ? N
   N30        1.0     0.444207     0.761668     0.075434    Uiso  ? N
   N31        1.0     0.221892     0.872655     0.826675    Uiso  ? N
   N32        1.0     0.110777     0.760741     0.577119    Uiso  ? N
   N33        1.0     0.890870     0.868369     0.323598    Uiso  ? N
   N34        1.0     0.777670     0.760751     0.075288    Uiso  ? N
   N35        1.0     0.555807     0.871976     0.826268    Uiso  ? N
   N36        1.0     0.444405     0.762338     0.576088    Uiso  ? N
