
#======================================================================
# CRYSTAL DATA
#----------------------------------------------------------------------
data_VESTA_phase_1

_chemical_name_common                  'Al   Hf   Mg   N'
_cell_length_a                         9.439889
_cell_length_b                         9.454527
_cell_length_c                         10.072117
_cell_angle_alpha                      90.029114
_cell_angle_beta                       90.001190
_cell_angle_gamma                      60.040466
_cell_volume                           778.816150
_space_group_name_H-M_alt              'P 1'
_space_group_IT_number                 1

loop_
_space_group_symop_operation_xyz
   'x, y, z'

loop_
   _atom_site_label
   _atom_site_occupancy
   _atom_site_fract_x
   _atom_site_fract_y
   _atom_site_fract_z
   _atom_site_adp_type
   _atom_site_U_iso_or_equiv
   _atom_site_type_symbol
   Al1        1.0     0.116643     0.091678     0.387490    Uiso  ? Al
   Al2        1.0     0.222928     0.206262     0.142802    Uiso  ? Al
   Al3        1.0     0.775082     0.092401     0.900334    Uiso  ? Al
   Al4        1.0     0.444209     0.093387     0.392684    Uiso  ? Al
   Al5        1.0     0.553625     0.206553     0.141614    Uiso  ? Al
   Al6        1.0     0.115398     0.092067     0.897816    Uiso  ? Al
   Al7        1.0     0.228538     0.203213     0.642242    Uiso  ? Al
   Al8        1.0     0.776167     0.090555     0.386476    Uiso  ? Al
   Al9        1.0     0.889292     0.205699     0.145027    Uiso  ? Al
   Al10       1.0     0.445767     0.094163     0.894342    Uiso  ? Al
   Al11       1.0     0.111646     0.427639     0.392375    Uiso  ? Al
   Al12       1.0     0.221951     0.539062     0.142720    Uiso  ? Al
   Al13       1.0     0.775615     0.431590     0.897893    Uiso  ? Al
   Al14       1.0     0.888739     0.544264     0.642665    Uiso  ? Al
   Al15       1.0     0.443342     0.429658     0.392774    Uiso  ? Al
   Al16       1.0     0.553442     0.540526     0.142518    Uiso  ? Al
   Al17       1.0     0.112053     0.427314     0.891995    Uiso  ? Al
   Al18       1.0     0.223704     0.538942     0.641813    Uiso  ? Al
   Al19       1.0     0.774122     0.434726     0.386533    Uiso  ? Al
   Al20       1.0     0.890034     0.539850     0.142343    Uiso  ? Al
   Al21       1.0     0.444931     0.426625     0.894234    Uiso  ? Al
   Al22       1.0     0.548071     0.546036     0.642159    Uiso  ? Al
   Al23       1.0     0.111281     0.759995     0.393018    Uiso  ? Al
   Al24       1.0     0.223230     0.870185     0.142626    Uiso  ? Al
   Al25       1.0     0.777102     0.761499     0.892267    Uiso  ? Al
   Al26       1.0     0.889959     0.867125     0.642693    Uiso  ? Al
   Al27       1.0     0.444859     0.761294     0.392819    Uiso  ? Al
   Al28       1.0     0.555689     0.871754     0.142528    Uiso  ? Al
   Al29       1.0     0.111668     0.760025     0.892279    Uiso  ? Al
   Al30       1.0     0.226966     0.866673     0.642210    Uiso  ? Al
   Al31       1.0     0.777684     0.761347     0.392299    Uiso  ? Al
   Al32       1.0     0.890483     0.869578     0.142632    Uiso  ? Al
   Al33       1.0     0.445010     0.761390     0.892345    Uiso  ? Al
   Al34       1.0     0.554041     0.873508     0.641533    Uiso  ? Al
   Hf1        1.0     0.887150     0.206747     0.637696    Uiso  ? Hf
   Mg1        1.0     0.549701     0.206326     0.642708    Uiso  ? Mg
   N1         1.0     0.221891     0.207036     0.331743    Uiso  ? N
   N2         1.0     0.111946     0.093602     0.087076    Uiso  ? N
   N3         1.0     0.889049     0.205038     0.845580    Uiso  ? N
   N4         1.0     0.783825     0.077819     0.573451    Uiso  ? N
   N5         1.0     0.553576     0.206796     0.332626    Uiso  ? N
   N6         1.0     0.443798     0.093046     0.084992    Uiso  ? N
   N7         1.0     0.222109     0.204752     0.833868    Uiso  ? N
   N8         1.0     0.126557     0.085349     0.578275    Uiso  ? N
   N9         1.0     0.888976     0.207023     0.338874    Uiso  ? N
   N10        1.0     0.779610     0.092872     0.089927    Uiso  ? N
   N11        1.0     0.556631     0.205173     0.847687    Uiso  ? N
   N12        1.0     0.438736     0.086075     0.578371    Uiso  ? N
   N13        1.0     0.220969     0.539235     0.332709    Uiso  ? N
   N14        1.0     0.111374     0.427554     0.082420    Uiso  ? N
   N15        1.0     0.888763     0.538281     0.833504    Uiso  ? N
   N16        1.0     0.767481     0.447783     0.577057    Uiso  ? N
   N17        1.0     0.553811     0.541055     0.331100    Uiso  ? N
   N18        1.0     0.443323     0.429657     0.084983    Uiso  ? N
   N19        1.0     0.222502     0.538552     0.833187    Uiso  ? N
   N20        1.0     0.110793     0.426708     0.584014    Uiso  ? N
   N21        1.0     0.890064     0.540071     0.332109    Uiso  ? N
   N22        1.0     0.777682     0.428367     0.086991    Uiso  ? N
   N23        1.0     0.556190     0.538817     0.833971    Uiso  ? N
   N24        1.0     0.438261     0.442199     0.579477    Uiso  ? N
   N25        1.0     0.222932     0.870342     0.332622    Uiso  ? N
   N26        1.0     0.111695     0.760497     0.082544    Uiso  ? N
   N27        1.0     0.888939     0.872494     0.834210    Uiso  ? N
   N28        1.0     0.777410     0.761209     0.583148    Uiso  ? N
   N29        1.0     0.556522     0.870889     0.332244    Uiso  ? N
   N30        1.0     0.444332     0.761362     0.082392    Uiso  ? N
   N31        1.0     0.221965     0.872568     0.833387    Uiso  ? N
   N32        1.0     0.110772     0.760787     0.584087    Uiso  ? N
   N33        1.0     0.890662     0.868822     0.331353    Uiso  ? N
   N34        1.0     0.777868     0.760748     0.082334    Uiso  ? N
   N35        1.0     0.555662     0.872174     0.833307    Uiso  ? N
   N36        1.0     0.444462     0.762366     0.583061    Uiso  ? N
