
#======================================================================
# CRYSTAL DATA
#----------------------------------------------------------------------
data_VESTA_phase_1

_chemical_name_common                  'Al   Hf   Mg   N'
_cell_length_a                         9.883165
_cell_length_b                         9.901204
_cell_length_c                         8.750015
_cell_angle_alpha                      89.989326
_cell_angle_beta                       89.990639
_cell_angle_gamma                      60.077396
_cell_volume                           742.098725
_space_group_name_H-M_alt              'P 1'
_space_group_IT_number                 1

loop_
_space_group_symop_operation_xyz
   'x, y, z'

loop_
   _atom_site_label
   _atom_site_occupancy
   _atom_site_fract_x
   _atom_site_fract_y
   _atom_site_fract_z
   _atom_site_adp_type
   _atom_site_U_iso_or_equiv
   _atom_site_type_symbol
   Al1        1.0     0.115779     0.091692     0.333471    Uiso  ? Al
   Al2        1.0     0.225340     0.206555     0.093505    Uiso  ? Al
   Al3        1.0     0.774353     0.089813     0.853656    Uiso  ? Al
   Al4        1.0     0.445840     0.093064     0.346980    Uiso  ? Al
   Al5        1.0     0.551430     0.207823     0.100525    Uiso  ? Al
   Al6        1.0     0.118708     0.090670     0.855258    Uiso  ? Al
   Al7        1.0     0.225741     0.203586     0.591028    Uiso  ? Al
   Al8        1.0     0.775363     0.091853     0.336751    Uiso  ? Al
   Al9        1.0     0.888580     0.205632     0.094500    Uiso  ? Al
   Al10       1.0     0.444870     0.093773     0.838534    Uiso  ? Al
   Al11       1.0     0.111218     0.427623     0.342415    Uiso  ? Al
   Al12       1.0     0.223043     0.538213     0.092224    Uiso  ? Al
   Al13       1.0     0.772731     0.436630     0.855213    Uiso  ? Al
   Al14       1.0     0.888254     0.543315     0.592224    Uiso  ? Al
   Al15       1.0     0.443916     0.427765     0.347004    Uiso  ? Al
   Al16       1.0     0.550622     0.541026     0.094476    Uiso  ? Al
   Al17       1.0     0.111877     0.427203     0.842257    Uiso  ? Al
   Al18       1.0     0.221555     0.540080     0.592243    Uiso  ? Al
   Al19       1.0     0.775377     0.433140     0.333806    Uiso  ? Al
   Al20       1.0     0.891217     0.540541     0.092276    Uiso  ? Al
   Al21       1.0     0.443899     0.428874     0.839136    Uiso  ? Al
   Al22       1.0     0.549882     0.546503     0.589799    Uiso  ? Al
   Al23       1.0     0.111857     0.759676     0.342052    Uiso  ? Al
   Al24       1.0     0.223821     0.868153     0.091925    Uiso  ? Al
   Al25       1.0     0.777667     0.761372     0.842999    Uiso  ? Al
   Al26       1.0     0.891001     0.866156     0.590389    Uiso  ? Al
   Al27       1.0     0.444767     0.762439     0.340360    Uiso  ? Al
   Al28       1.0     0.555000     0.873352     0.092498    Uiso  ? Al
   Al29       1.0     0.111107     0.759728     0.842022    Uiso  ? Al
   Al30       1.0     0.226282     0.867667     0.592651    Uiso  ? Al
   Al31       1.0     0.776839     0.760998     0.340789    Uiso  ? Al
   Al32       1.0     0.891152     0.868643     0.093824    Uiso  ? Al
   Al33       1.0     0.445059     0.761079     0.843001    Uiso  ? Al
   Al34       1.0     0.555164     0.871174     0.591664    Uiso  ? Al
   Hf1        1.0     0.889311     0.206608     0.604889    Uiso  ? Hf
   Mg1        1.0     0.551985     0.206478     0.597695    Uiso  ? Mg
   N1         1.0     0.220570     0.205580     0.363680    Uiso  ? N
   N2         1.0     0.112488     0.092973     0.109323    Uiso  ? N
   N3         1.0     0.888805     0.207534     0.864396    Uiso  ? N
   N4         1.0     0.784134     0.077967     0.620617    Uiso  ? N
   N5         1.0     0.556490     0.205374     0.350737    Uiso  ? N
   N6         1.0     0.443939     0.092316     0.118355    Uiso  ? N
   N7         1.0     0.223232     0.206900     0.868668    Uiso  ? N
   N8         1.0     0.127557     0.084624     0.621456    Uiso  ? N
   N9         1.0     0.889329     0.206664     0.354722    Uiso  ? N
   N10        1.0     0.780060     0.092332     0.109411    Uiso  ? N
   N11        1.0     0.552768     0.207314     0.870113    Uiso  ? N
   N12        1.0     0.439167     0.086612     0.613701    Uiso  ? N
   N13        1.0     0.220431     0.539159     0.366683    Uiso  ? N
   N14        1.0     0.111651     0.427751     0.117129    Uiso  ? N
   N15        1.0     0.890395     0.540284     0.867754    Uiso  ? N
   N16        1.0     0.766802     0.447719     0.621151    Uiso  ? N
   N17        1.0     0.556286     0.540537     0.362253    Uiso  ? N
   N18        1.0     0.441880     0.430542     0.118323    Uiso  ? N
   N19        1.0     0.221413     0.538719     0.865797    Uiso  ? N
   N20        1.0     0.110512     0.426318     0.615278    Uiso  ? N
   N21        1.0     0.888660     0.538921     0.364828    Uiso  ? N
   N22        1.0     0.777484     0.429174     0.109999    Uiso  ? N
   N23        1.0     0.552781     0.541194     0.870519    Uiso  ? N
   N24        1.0     0.438524     0.442099     0.613501    Uiso  ? N
   N25        1.0     0.221959     0.872642     0.364989    Uiso  ? N
   N26        1.0     0.112428     0.759335     0.117215    Uiso  ? N
   N27        1.0     0.890738     0.868399     0.869755    Uiso  ? N
   N28        1.0     0.777917     0.760855     0.616114    Uiso  ? N
   N29        1.0     0.556857     0.870399     0.365494    Uiso  ? N
   N30        1.0     0.443909     0.762394     0.116434    Uiso  ? N
   N31        1.0     0.223168     0.869440     0.867412    Uiso  ? N
   N32        1.0     0.110880     0.760930     0.615300    Uiso  ? N
   N33        1.0     0.889195     0.871168     0.362793    Uiso  ? N
   N34        1.0     0.777409     0.760670     0.116708    Uiso  ? N
   N35        1.0     0.556365     0.871614     0.867079    Uiso  ? N
   N36        1.0     0.444181     0.762165     0.616543    Uiso  ? N
