
#======================================================================
# CRYSTAL DATA
#----------------------------------------------------------------------
data_VESTA_phase_1

_chemical_name_common                  'Al   Hf   Mg   N'
_cell_length_a                         9.841887
_cell_length_b                         9.859921
_cell_length_c                         8.880874
_cell_angle_alpha                      89.987564
_cell_angle_beta                       89.989388
_cell_angle_gamma                      60.077213
_cell_volume                           746.922427
_space_group_name_H-M_alt              'P 1'
_space_group_IT_number                 1

loop_
_space_group_symop_operation_xyz
   'x, y, z'

loop_
   _atom_site_label
   _atom_site_occupancy
   _atom_site_fract_x
   _atom_site_fract_y
   _atom_site_fract_z
   _atom_site_adp_type
   _atom_site_U_iso_or_equiv
   _atom_site_type_symbol
   Al1        1.0     0.115241     0.091929     0.330757    Uiso  ? Al
   Al2        1.0     0.225267     0.206654     0.090521    Uiso  ? Al
   Al3        1.0     0.774351     0.089468     0.850706    Uiso  ? Al
   Al4        1.0     0.445880     0.093017     0.343561    Uiso  ? Al
   Al5        1.0     0.551376     0.207855     0.098209    Uiso  ? Al
   Al6        1.0     0.119131     0.090486     0.852098    Uiso  ? Al
   Al7        1.0     0.225867     0.203406     0.587755    Uiso  ? Al
   Al8        1.0     0.775670     0.092183     0.333301    Uiso  ? Al
   Al9        1.0     0.888647     0.205709     0.090267    Uiso  ? Al
   Al10       1.0     0.444708     0.093793     0.835476    Uiso  ? Al
   Al11       1.0     0.111222     0.427655     0.339555    Uiso  ? Al
   Al12       1.0     0.222952     0.538296     0.089012    Uiso  ? Al
   Al13       1.0     0.772457     0.437141     0.852005    Uiso  ? Al
   Al14       1.0     0.888144     0.543364     0.589004    Uiso  ? Al
   Al15       1.0     0.443905     0.427724     0.343629    Uiso  ? Al
   Al16       1.0     0.550608     0.541081     0.091611    Uiso  ? Al
   Al17       1.0     0.111902     0.427206     0.838991    Uiso  ? Al
   Al18       1.0     0.221644     0.540034     0.589265    Uiso  ? Al
   Al19       1.0     0.775719     0.432516     0.331117    Uiso  ? Al
   Al20       1.0     0.891259     0.540578     0.089297    Uiso  ? Al
   Al21       1.0     0.443799     0.429105     0.836080    Uiso  ? Al
   Al22       1.0     0.549883     0.546565     0.586566    Uiso  ? Al
   Al23       1.0     0.111917     0.759674     0.339226    Uiso  ? Al
   Al24       1.0     0.223847     0.868066     0.088926    Uiso  ? Al
   Al25       1.0     0.777788     0.761353     0.839641    Uiso  ? Al
   Al26       1.0     0.890867     0.866288     0.587066    Uiso  ? Al
   Al27       1.0     0.444750     0.762494     0.337544    Uiso  ? Al
   Al28       1.0     0.555036     0.873249     0.089345    Uiso  ? Al
   Al29       1.0     0.111057     0.759723     0.838669    Uiso  ? Al
   Al30       1.0     0.226361     0.867687     0.589494    Uiso  ? Al
   Al31       1.0     0.776771     0.761014     0.338020    Uiso  ? Al
   Al32       1.0     0.891276     0.868427     0.090905    Uiso  ? Al
   Al33       1.0     0.445049     0.760974     0.839667    Uiso  ? Al
   Al34       1.0     0.555113     0.871243     0.588720    Uiso  ? Al
   Hf1        1.0     0.889214     0.206575     0.604255    Uiso  ? Hf
   Mg1        1.0     0.552030     0.206393     0.594972    Uiso  ? Mg
   N1         1.0     0.220463     0.205429     0.366708    Uiso  ? N
   N2         1.0     0.112229     0.093104     0.111629    Uiso  ? N
   N3         1.0     0.888797     0.207634     0.864868    Uiso  ? N
   N4         1.0     0.784157     0.077440     0.625296    Uiso  ? N
   N5         1.0     0.556771     0.205227     0.353019    Uiso  ? N
   N6         1.0     0.443887     0.092202     0.121466    Uiso  ? N
   N7         1.0     0.223369     0.207092     0.871842    Uiso  ? N
   N8         1.0     0.128091     0.084338     0.625357    Uiso  ? N
   N9         1.0     0.889322     0.206534     0.358634    Uiso  ? N
   N10        1.0     0.780210     0.092457     0.111536    Uiso  ? N
   N11        1.0     0.552436     0.207489     0.872424    Uiso  ? N
   N12        1.0     0.439042     0.086506     0.617053    Uiso  ? N
   N13        1.0     0.220468     0.539166     0.369827    Uiso  ? N
   N14        1.0     0.111648     0.427809     0.120351    Uiso  ? N
   N15        1.0     0.890568     0.540435     0.870834    Uiso  ? N
   N16        1.0     0.766442     0.448378     0.625131    Uiso  ? N
   N17        1.0     0.556513     0.540413     0.365306    Uiso  ? N
   N18        1.0     0.441762     0.430684     0.121462    Uiso  ? N
   N19        1.0     0.221402     0.538741     0.868821    Uiso  ? N
   N20        1.0     0.110502     0.426252     0.618165    Uiso  ? N
   N21        1.0     0.888532     0.538786     0.367930    Uiso  ? N
   N22        1.0     0.777631     0.428909     0.112387    Uiso  ? N
   N23        1.0     0.552472     0.541324     0.873661    Uiso  ? N
   N24        1.0     0.438475     0.442363     0.616801    Uiso  ? N
   N25        1.0     0.221865     0.872876     0.368084    Uiso  ? N
   N26        1.0     0.112459     0.759320     0.120435    Uiso  ? N
   N27        1.0     0.890955     0.868011     0.872962    Uiso  ? N
   N28        1.0     0.777969     0.760856     0.619037    Uiso  ? N
   N29        1.0     0.556813     0.870409     0.368694    Uiso  ? N
   N30        1.0     0.443912     0.762416     0.119547    Uiso  ? N
   N31        1.0     0.223290     0.869131     0.870447    Uiso  ? N
   N32        1.0     0.110803     0.760959     0.618161    Uiso  ? N
   N33        1.0     0.889054     0.871500     0.365834    Uiso  ? N
   N34        1.0     0.777359     0.760673     0.119900    Uiso  ? N
   N35        1.0     0.556378     0.871602     0.869987    Uiso  ? N
   N36        1.0     0.444216     0.762119     0.619516    Uiso  ? N
