
#======================================================================
# CRYSTAL DATA
#----------------------------------------------------------------------
data_VESTA_phase_1

_chemical_name_common                  'Al   Hf   Mg   N'
_cell_length_a                         9.439852
_cell_length_b                         9.454486
_cell_length_c                         10.072227
_cell_angle_alpha                      90.029205
_cell_angle_beta                       90.001160
_cell_angle_gamma                      60.040459
_cell_volume                           778.818197
_space_group_name_H-M_alt              'P 1'
_space_group_IT_number                 1

loop_
_space_group_symop_operation_xyz
   'x, y, z'

loop_
   _atom_site_label
   _atom_site_occupancy
   _atom_site_fract_x
   _atom_site_fract_y
   _atom_site_fract_z
   _atom_site_adp_type
   _atom_site_U_iso_or_equiv
   _atom_site_type_symbol
   Al1        1.0     0.116648     0.091665     0.398261    Uiso  ? Al
   Al2        1.0     0.222933     0.206250     0.153567    Uiso  ? Al
   Al3        1.0     0.775088     0.092387     0.911100    Uiso  ? Al
   Al4        1.0     0.444214     0.093374     0.403446    Uiso  ? Al
   Al5        1.0     0.553630     0.206540     0.152378    Uiso  ? Al
   Al6        1.0     0.115403     0.092054     0.908585    Uiso  ? Al
   Al7        1.0     0.228543     0.203201     0.653006    Uiso  ? Al
   Al8        1.0     0.776172     0.090543     0.397243    Uiso  ? Al
   Al9        1.0     0.889297     0.205686     0.155797    Uiso  ? Al
   Al10       1.0     0.445772     0.094151     0.905109    Uiso  ? Al
   Al11       1.0     0.111650     0.427627     0.403138    Uiso  ? Al
   Al12       1.0     0.221955     0.539050     0.153482    Uiso  ? Al
   Al13       1.0     0.775620     0.431577     0.908662    Uiso  ? Al
   Al14       1.0     0.888744     0.544252     0.653428    Uiso  ? Al
   Al15       1.0     0.443347     0.429645     0.403536    Uiso  ? Al
   Al16       1.0     0.553447     0.540514     0.153282    Uiso  ? Al
   Al17       1.0     0.112058     0.427301     0.902757    Uiso  ? Al
   Al18       1.0     0.223710     0.538929     0.652575    Uiso  ? Al
   Al19       1.0     0.774128     0.434713     0.397301    Uiso  ? Al
   Al20       1.0     0.890039     0.539837     0.153107    Uiso  ? Al
   Al21       1.0     0.444936     0.426613     0.905000    Uiso  ? Al
   Al22       1.0     0.548075     0.546023     0.652922    Uiso  ? Al
   Al23       1.0     0.111286     0.759983     0.403781    Uiso  ? Al
   Al24       1.0     0.223235     0.870173     0.153390    Uiso  ? Al
   Al25       1.0     0.777107     0.761486     0.903029    Uiso  ? Al
   Al26       1.0     0.889964     0.867113     0.653456    Uiso  ? Al
   Al27       1.0     0.444864     0.761282     0.403581    Uiso  ? Al
   Al28       1.0     0.555695     0.871741     0.153290    Uiso  ? Al
   Al29       1.0     0.111673     0.760012     0.903041    Uiso  ? Al
   Al30       1.0     0.226971     0.866660     0.652974    Uiso  ? Al
   Al31       1.0     0.777689     0.761334     0.403061    Uiso  ? Al
   Al32       1.0     0.890488     0.869566     0.153395    Uiso  ? Al
   Al33       1.0     0.445015     0.761377     0.903107    Uiso  ? Al
   Al34       1.0     0.554046     0.873496     0.652295    Uiso  ? Al
   Hf1        1.0     0.887154     0.206735     0.648469    Uiso  ? Hf
   Mg1        1.0     0.549704     0.206313     0.653476    Uiso  ? Mg
   N1         1.0     0.221895     0.207023     0.342507    Uiso  ? N
   N2         1.0     0.111951     0.093589     0.097843    Uiso  ? N
   N3         1.0     0.889054     0.205025     0.856350    Uiso  ? N
   N4         1.0     0.783829     0.077809     0.584216    Uiso  ? N
   N5         1.0     0.553581     0.206783     0.343388    Uiso  ? N
   N6         1.0     0.443802     0.093034     0.095757    Uiso  ? N
   N7         1.0     0.222114     0.204738     0.844632    Uiso  ? N
   N8         1.0     0.126559     0.085337     0.589042    Uiso  ? N
   N9         1.0     0.888981     0.207011     0.349640    Uiso  ? N
   N10        1.0     0.779616     0.092859     0.100691    Uiso  ? N
   N11        1.0     0.556636     0.205160     0.858454    Uiso  ? N
   N12        1.0     0.438741     0.086063     0.589133    Uiso  ? N
   N13        1.0     0.220973     0.539223     0.343470    Uiso  ? N
   N14        1.0     0.111379     0.427541     0.093182    Uiso  ? N
   N15        1.0     0.888768     0.538268     0.844267    Uiso  ? N
   N16        1.0     0.767487     0.447769     0.587823    Uiso  ? N
   N17        1.0     0.553817     0.541042     0.341863    Uiso  ? N
   N18        1.0     0.443328     0.429644     0.095748    Uiso  ? N
   N19        1.0     0.222508     0.538539     0.843948    Uiso  ? N
   N20        1.0     0.110798     0.426696     0.594777    Uiso  ? N
   N21        1.0     0.890068     0.540058     0.342872    Uiso  ? N
   N22        1.0     0.777687     0.428354     0.097758    Uiso  ? N
   N23        1.0     0.556195     0.538803     0.844734    Uiso  ? N
   N24        1.0     0.438266     0.442186     0.590239    Uiso  ? N
   N25        1.0     0.222936     0.870330     0.343385    Uiso  ? N
   N26        1.0     0.111700     0.760485     0.093306    Uiso  ? N
   N27        1.0     0.888944     0.872482     0.844972    Uiso  ? N
   N28        1.0     0.777415     0.761197     0.593910    Uiso  ? N
   N29        1.0     0.556526     0.870877     0.343006    Uiso  ? N
   N30        1.0     0.444337     0.761349     0.093154    Uiso  ? N
   N31        1.0     0.221969     0.872556     0.844150    Uiso  ? N
   N32        1.0     0.110777     0.760775     0.594849    Uiso  ? N
   N33        1.0     0.890666     0.868811     0.342115    Uiso  ? N
   N34        1.0     0.777873     0.760736     0.093095    Uiso  ? N
   N35        1.0     0.555667     0.872162     0.844069    Uiso  ? N
   N36        1.0     0.000000     0.000000     0.000000    Uiso  ? N
