
#======================================================================
# CRYSTAL DATA
#----------------------------------------------------------------------
data_VESTA_phase_1

_chemical_name_common                  'Al   Hf   Mg   N'
_cell_length_a                         9.842047
_cell_length_b                         9.860081
_cell_length_c                         8.880393
_cell_angle_alpha                      90.012436
_cell_angle_beta                       90.010605
_cell_angle_gamma                      60.077164
_cell_volume                           746.905852
_space_group_name_H-M_alt              'P 1'
_space_group_IT_number                 1

loop_
_space_group_symop_operation_xyz
   'x, y, z'

loop_
   _atom_site_label
   _atom_site_occupancy
   _atom_site_fract_x
   _atom_site_fract_y
   _atom_site_fract_z
   _atom_site_adp_type
   _atom_site_U_iso_or_equiv
   _atom_site_type_symbol
   Al1        1.0     0.119130     0.090485     0.356842    Uiso  ? Al
   Al2        1.0     0.225266     0.206654     0.118419    Uiso  ? Al
   Al3        1.0     0.775671     0.092180     0.875638    Uiso  ? Al
   Al4        1.0     0.444710     0.093793     0.373457    Uiso  ? Al
   Al5        1.0     0.551377     0.207854     0.110723    Uiso  ? Al
   Al6        1.0     0.115243     0.091929     0.878180    Uiso  ? Al
   Al7        1.0     0.225867     0.203406     0.621174    Uiso  ? Al
   Al8        1.0     0.774350     0.089470     0.358231    Uiso  ? Al
   Al9        1.0     0.888648     0.205709     0.118667    Uiso  ? Al
   Al10       1.0     0.445879     0.093017     0.865377    Uiso  ? Al
   Al11       1.0     0.111901     0.427208     0.369941    Uiso  ? Al
   Al12       1.0     0.222951     0.538296     0.119918    Uiso  ? Al
   Al13       1.0     0.775717     0.432518     0.877822    Uiso  ? Al
   Al14       1.0     0.888145     0.543363     0.619929    Uiso  ? Al
   Al15       1.0     0.443798     0.429103     0.372853    Uiso  ? Al
   Al16       1.0     0.550608     0.541082     0.117332    Uiso  ? Al
   Al17       1.0     0.111222     0.427654     0.869378    Uiso  ? Al
   Al18       1.0     0.221644     0.540034     0.619669    Uiso  ? Al
   Al19       1.0     0.772458     0.437140     0.356934    Uiso  ? Al
   Al20       1.0     0.891258     0.540578     0.119636    Uiso  ? Al
   Al21       1.0     0.443906     0.427725     0.865309    Uiso  ? Al
   Al22       1.0     0.549883     0.546564     0.622365    Uiso  ? Al
   Al23       1.0     0.111059     0.759722     0.370261    Uiso  ? Al
   Al24       1.0     0.223848     0.868067     0.120006    Uiso  ? Al
   Al25       1.0     0.776772     0.761015     0.870910    Uiso  ? Al
   Al26       1.0     0.890867     0.866288     0.621863    Uiso  ? Al
   Al27       1.0     0.445048     0.760976     0.369269    Uiso  ? Al
   Al28       1.0     0.555037     0.873248     0.119586    Uiso  ? Al
   Al29       1.0     0.111915     0.759675     0.869708    Uiso  ? Al
   Al30       1.0     0.226360     0.867687     0.619441    Uiso  ? Al
   Al31       1.0     0.777787     0.761353     0.369294    Uiso  ? Al
   Al32       1.0     0.891276     0.868427     0.118036    Uiso  ? Al
   Al33       1.0     0.444751     0.762492     0.871385    Uiso  ? Al
   Al34       1.0     0.555112     0.871244     0.620212    Uiso  ? Al
   Hf1        1.0     0.889214     0.206575     0.604690    Uiso  ? Hf
   Mg1        1.0     0.552029     0.206394     0.613967    Uiso  ? Mg
   N1         1.0     0.223368     0.207092     0.337115    Uiso  ? N
   N2         1.0     0.112231     0.093104     0.097322    Uiso  ? N
   N3         1.0     0.889321     0.206535     0.850324    Uiso  ? N
   N4         1.0     0.784155     0.077443     0.583661    Uiso  ? N
   N5         1.0     0.552437     0.207488     0.336524    Uiso  ? N
   N6         1.0     0.443886     0.092202     0.087490    Uiso  ? N
   N7         1.0     0.220463     0.205429     0.842242    Uiso  ? N
   N8         1.0     0.128089     0.084339     0.583598    Uiso  ? N
   N9         1.0     0.888798     0.207634     0.344079    Uiso  ? N
   N10        1.0     0.780211     0.092455     0.097417    Uiso  ? N
   N11        1.0     0.556770     0.205227     0.855938    Uiso  ? N
   N12        1.0     0.439043     0.086507     0.591899    Uiso  ? N
   N13        1.0     0.221402     0.538741     0.340129    Uiso  ? N
   N14        1.0     0.111648     0.427807     0.088602    Uiso  ? N
   N15        1.0     0.888533     0.538786     0.841023    Uiso  ? N
   N16        1.0     0.766444     0.448375     0.583823    Uiso  ? N
   N17        1.0     0.552472     0.541324     0.335297    Uiso  ? N
   N18        1.0     0.441763     0.430685     0.087494    Uiso  ? N
   N19        1.0     0.220468     0.539166     0.839127    Uiso  ? N
   N20        1.0     0.110502     0.426253     0.590787    Uiso  ? N
   N21        1.0     0.890567     0.540435     0.338118    Uiso  ? N
   N22        1.0     0.777629     0.428910     0.096567    Uiso  ? N
   N23        1.0     0.556513     0.540411     0.843643    Uiso  ? N
   N24        1.0     0.438475     0.442361     0.592151    Uiso  ? N
   N25        1.0     0.223290     0.869132     0.338504    Uiso  ? N
   N26        1.0     0.112458     0.759321     0.088518    Uiso  ? N
   N27        1.0     0.889054     0.871499     0.843115    Uiso  ? N
   N28        1.0     0.777969     0.760855     0.589916    Uiso  ? N
   N29        1.0     0.556379     0.871601     0.338965    Uiso  ? N
   N30        1.0     0.443913     0.762414     0.089403    Uiso  ? N
   N31        1.0     0.221865     0.872876     0.840869    Uiso  ? N
   N32        1.0     0.110805     0.760958     0.590790    Uiso  ? N
   N33        1.0     0.890954     0.868012     0.335995    Uiso  ? N
   N34        1.0     0.777360     0.760673     0.089051    Uiso  ? N
   N35        1.0     0.556813     0.870410     0.840258    Uiso  ? N
   N36        1.0     0.444215     0.762119     0.589438    Uiso  ? N
