
#======================================================================
# CRYSTAL DATA
#----------------------------------------------------------------------
data_VESTA_phase_1

_chemical_name_common                  'Al   Hf   Mg   N'
_cell_length_a                         9.440244
_cell_length_b                         9.454926
_cell_length_c                         10.071115
_cell_angle_alpha                      90.029221
_cell_angle_beta                       90.001556
_cell_angle_gamma                      60.041012
_cell_volume                           778.805024
_space_group_name_H-M_alt              'P 1'
_space_group_IT_number                 1

loop_
_space_group_symop_operation_xyz
   'x, y, z'

loop_
   _atom_site_label
   _atom_site_occupancy
   _atom_site_fract_x
   _atom_site_fract_y
   _atom_site_fract_z
   _atom_site_adp_type
   _atom_site_U_iso_or_equiv
   _atom_site_type_symbol
   Al1        1.0     0.116665     0.091670     0.383713    Uiso  ? Al
   Al2        1.0     0.222925     0.206267     0.139013    Uiso  ? Al
   Al3        1.0     0.775086     0.092414     0.896534    Uiso  ? Al
   Al4        1.0     0.444210     0.093392     0.388901    Uiso  ? Al
   Al5        1.0     0.553624     0.206560     0.137818    Uiso  ? Al
   Al6        1.0     0.115380     0.092079     0.894024    Uiso  ? Al
   Al7        1.0     0.228543     0.203212     0.638467    Uiso  ? Al
   Al8        1.0     0.776158     0.090547     0.382696    Uiso  ? Al
   Al9        1.0     0.889289     0.205706     0.141274    Uiso  ? Al
   Al10       1.0     0.445767     0.094166     0.890561    Uiso  ? Al
   Al11       1.0     0.111644     0.427640     0.388593    Uiso  ? Al
   Al12       1.0     0.221948     0.539066     0.138939    Uiso  ? Al
   Al13       1.0     0.775617     0.431584     0.894099    Uiso  ? Al
   Al14       1.0     0.888737     0.544270     0.638888    Uiso  ? Al
   Al15       1.0     0.443342     0.429663     0.388990    Uiso  ? Al
   Al16       1.0     0.553439     0.540532     0.138727    Uiso  ? Al
   Al17       1.0     0.112050     0.427319     0.888211    Uiso  ? Al
   Al18       1.0     0.223703     0.538944     0.638028    Uiso  ? Al
   Al19       1.0     0.774108     0.434755     0.382756    Uiso  ? Al
   Al20       1.0     0.890032     0.539853     0.138555    Uiso  ? Al
   Al21       1.0     0.444925     0.426632     0.890451    Uiso  ? Al
   Al22       1.0     0.548066     0.546046     0.638385    Uiso  ? Al
   Al23       1.0     0.111279     0.759999     0.389236    Uiso  ? Al
   Al24       1.0     0.223225     0.870191     0.138839    Uiso  ? Al
   Al25       1.0     0.777097     0.761504     0.888487    Uiso  ? Al
   Al26       1.0     0.889962     0.867122     0.638919    Uiso  ? Al
   Al27       1.0     0.444857     0.761298     0.389037    Uiso  ? Al
   Al28       1.0     0.555688     0.871759     0.138748    Uiso  ? Al
   Al29       1.0     0.111667     0.760026     0.888496    Uiso  ? Al
   Al30       1.0     0.226968     0.866672     0.638434    Uiso  ? Al
   Al31       1.0     0.777686     0.761349     0.388516    Uiso  ? Al
   Al32       1.0     0.890481     0.869585     0.138840    Uiso  ? Al
   Al33       1.0     0.445007     0.761399     0.888565    Uiso  ? Al
   Al34       1.0     0.554043     0.873511     0.637750    Uiso  ? Al
   Hf1        1.0     0.887153     0.206751     0.633850    Uiso  ? Hf
   Mg1        1.0     0.549700     0.206333     0.638922    Uiso  ? Mg
   N1         1.0     0.221893     0.207040     0.327971    Uiso  ? N
   N2         1.0     0.111930     0.093612     0.083308    Uiso  ? N
   N3         1.0     0.889045     0.205047     0.841756    Uiso  ? N
   N4         1.0     0.783816     0.077807     0.569686    Uiso  ? N
   N5         1.0     0.553574     0.206802     0.328851    Uiso  ? N
   N6         1.0     0.443797     0.093048     0.081225    Uiso  ? N
   N7         1.0     0.222107     0.204756     0.830107    Uiso  ? N
   N8         1.0     0.126582     0.085335     0.574510    Uiso  ? N
   N9         1.0     0.888974     0.207031     0.335151    Uiso  ? N
   N10        1.0     0.779615     0.092883     0.086154    Uiso  ? N
   N11        1.0     0.556626     0.205181     0.843923    Uiso  ? N
   N12        1.0     0.438738     0.086079     0.574606    Uiso  ? N
   N13        1.0     0.220966     0.539239     0.328944    Uiso  ? N
   N14        1.0     0.111372     0.427558     0.078652    Uiso  ? N
   N15        1.0     0.888760     0.538289     0.829742    Uiso  ? N
   N16        1.0     0.767463     0.447813     0.573293    Uiso  ? N
   N17        1.0     0.553806     0.541063     0.327326    Uiso  ? N
   N18        1.0     0.443316     0.429665     0.081214    Uiso  ? N
   N19        1.0     0.222498     0.538556     0.829417    Uiso  ? N
   N20        1.0     0.110791     0.426706     0.580249    Uiso  ? N
   N21        1.0     0.890064     0.540077     0.328338    Uiso  ? N
   N22        1.0     0.777684     0.428360     0.083222    Uiso  ? N
   N23        1.0     0.556183     0.538828     0.830211    Uiso  ? N
   N24        1.0     0.438260     0.442206     0.575712    Uiso  ? N
   N25        1.0     0.222932     0.870344     0.328851    Uiso  ? N
   N26        1.0     0.111694     0.760498     0.078776    Uiso  ? N
   N27        1.0     0.888937     0.872497     0.830449    Uiso  ? N
   N28        1.0     0.777413     0.761210     0.579382    Uiso  ? N
   N29        1.0     0.556522     0.870894     0.328480    Uiso  ? N
   N30        1.0     0.444328     0.761371     0.078626    Uiso  ? N
   N31        1.0     0.221961     0.872573     0.829625    Uiso  ? N
   N32        1.0     0.110772     0.760789     0.580322    Uiso  ? N
   N33        1.0     0.890662     0.868824     0.327578    Uiso  ? N
   N34        1.0     0.777863     0.760753     0.078567    Uiso  ? N
   N35        1.0     0.555660     0.872180     0.829539    Uiso  ? N
   N36        1.0     0.444460     0.762370     0.579295    Uiso  ? N
