
#======================================================================
# CRYSTAL DATA
#----------------------------------------------------------------------
data_VESTA_phase_1

_chemical_name_common                  'Al   Hf   Mg   N'
_cell_length_a                         9.439862
_cell_length_b                         9.454502
_cell_length_c                         10.072183
_cell_angle_alpha                      89.970741
_cell_angle_beta                       89.998787
_cell_angle_gamma                      60.040520
_cell_volume                           778.817410
_space_group_name_H-M_alt              'P 1'
_space_group_IT_number                 1

loop_
_space_group_symop_operation_xyz
   'x, y, z'

loop_
   _atom_site_label
   _atom_site_occupancy
   _atom_site_fract_x
   _atom_site_fract_y
   _atom_site_fract_z
   _atom_site_adp_type
   _atom_site_U_iso_or_equiv
   _atom_site_type_symbol
   Al1        1.0     0.115385     0.092100     0.300375    Uiso  ? Al
   Al2        1.0     0.222914     0.206296     0.055389    Uiso  ? Al
   Al3        1.0     0.776154     0.090588     0.811712    Uiso  ? Al
   Al4        1.0     0.445754     0.094196     0.303846    Uiso  ? Al
   Al5        1.0     0.553613     0.206586     0.056579    Uiso  ? Al
   Al6        1.0     0.116631     0.091710     0.810696    Uiso  ? Al
   Al7        1.0     0.228526     0.203246     0.555950    Uiso  ? Al
   Al8        1.0     0.775070     0.092433     0.297857    Uiso  ? Al
   Al9        1.0     0.889279     0.205732     0.053160    Uiso  ? Al
   Al10       1.0     0.444196     0.093420     0.805511    Uiso  ? Al
   Al11       1.0     0.112040     0.427347     0.306199    Uiso  ? Al
   Al12       1.0     0.221937     0.539095     0.055472    Uiso  ? Al
   Al13       1.0     0.774109     0.434759     0.811654    Uiso  ? Al
   Al14       1.0     0.888726     0.544298     0.555527    Uiso  ? Al
   Al15       1.0     0.444918     0.426658     0.303954    Uiso  ? Al
   Al16       1.0     0.553430     0.540559     0.055674    Uiso  ? Al
   Al17       1.0     0.111633     0.427672     0.805817    Uiso  ? Al
   Al18       1.0     0.223693     0.538975     0.556381    Uiso  ? Al
   Al19       1.0     0.775602     0.431622     0.300298    Uiso  ? Al
   Al20       1.0     0.890021     0.539882     0.055850    Uiso  ? Al
   Al21       1.0     0.443330     0.429690     0.805420    Uiso  ? Al
   Al22       1.0     0.548057     0.546069     0.556033    Uiso  ? Al
   Al23       1.0     0.111656     0.760057     0.305915    Uiso  ? Al
   Al24       1.0     0.223217     0.870218     0.055566    Uiso  ? Al
   Al25       1.0     0.777671     0.761379     0.805895    Uiso  ? Al
   Al26       1.0     0.889947     0.867158     0.555498    Uiso  ? Al
   Al27       1.0     0.444997     0.761422     0.305849    Uiso  ? Al
   Al28       1.0     0.555677     0.871786     0.055665    Uiso  ? Al
   Al29       1.0     0.111268     0.760028     0.805174    Uiso  ? Al
   Al30       1.0     0.226953     0.866705     0.555982    Uiso  ? Al
   Al31       1.0     0.777089     0.761532     0.305926    Uiso  ? Al
   Al32       1.0     0.890470     0.869612     0.055561    Uiso  ? Al
   Al33       1.0     0.444846     0.761327     0.805374    Uiso  ? Al
   Al34       1.0     0.554028     0.873542     0.556662    Uiso  ? Al
   Hf1        1.0     0.887137     0.206780     0.560492    Uiso  ? Hf
   Mg1        1.0     0.549686     0.206359     0.555481    Uiso  ? Mg
   N1         1.0     0.222097     0.204784     0.364324    Uiso  ? N
   N2         1.0     0.111933     0.093634     0.111116    Uiso  ? N
   N3         1.0     0.888963     0.207056     0.859315    Uiso  ? N
   N4         1.0     0.783811     0.077853     0.624738    Uiso  ? N
   N5         1.0     0.556618     0.205206     0.350502    Uiso  ? N
   N6         1.0     0.443785     0.093079     0.113198    Uiso  ? N
   N7         1.0     0.221877     0.207069     0.866449    Uiso  ? N
   N8         1.0     0.126543     0.085382     0.619914    Uiso  ? N
   N9         1.0     0.889036     0.205071     0.352610    Uiso  ? N
   N10        1.0     0.779598     0.092905     0.108265    Uiso  ? N
   N11        1.0     0.553564     0.206828     0.865568    Uiso  ? N
   N12        1.0     0.438723     0.086108     0.619824    Uiso  ? N
   N13        1.0     0.222491     0.538584     0.365007    Uiso  ? N
   N14        1.0     0.111361     0.427586     0.115773    Uiso  ? N
   N15        1.0     0.890051     0.540103     0.866084    Uiso  ? N
   N16        1.0     0.767468     0.447816     0.621132    Uiso  ? N
   N17        1.0     0.556177     0.538849     0.364221    Uiso  ? N
   N18        1.0     0.443310     0.429690     0.113207    Uiso  ? N
   N19        1.0     0.220955     0.539269     0.865484    Uiso  ? N
   N20        1.0     0.110780     0.426741     0.614179    Uiso  ? N
   N21        1.0     0.888750     0.538314     0.364689    Uiso  ? N
   N22        1.0     0.777669     0.428399     0.111201    Uiso  ? N
   N23        1.0     0.553799     0.541087     0.867093    Uiso  ? N
   N24        1.0     0.438249     0.442231     0.618717    Uiso  ? N
   N25        1.0     0.221952     0.872601     0.364806    Uiso  ? N
   N26        1.0     0.111682     0.760530     0.115649    Uiso  ? N
   N27        1.0     0.890649     0.868856     0.866840    Uiso  ? N
   N28        1.0     0.777397     0.761242     0.615045    Uiso  ? N
   N29        1.0     0.555649     0.872208     0.364887    Uiso  ? N
   N30        1.0     0.444319     0.761395     0.115801    Uiso  ? N
   N31        1.0     0.222919     0.870376     0.865570    Uiso  ? N
   N32        1.0     0.110759     0.760820     0.614105    Uiso  ? N
   N33        1.0     0.888927     0.872527     0.363982    Uiso  ? N
   N34        1.0     0.777855     0.760781     0.115860    Uiso  ? N
   N35        1.0     0.556509     0.870922     0.865949    Uiso  ? N
   N36        1.0     0.444450     0.762398     0.615132    Uiso  ? N
