# generated using pymatgen
data_NbZn2N3
_symmetry_space_group_name_H-M   'P 1'
_cell_length_a   5.57466162
_cell_length_b   5.84483340
_cell_length_c   9.90711910
_cell_angle_alpha   90.00001833
_cell_angle_beta   89.99988075
_cell_angle_gamma   90.00057793
_symmetry_Int_Tables_number   1
_chemical_formula_structural   NbZn2N3
_chemical_formula_sum   'Nb4 Zn8 N12'
_cell_volume   322.80334896
_cell_formula_units_Z   4
loop_
 _symmetry_equiv_pos_site_id
 _symmetry_equiv_pos_as_xyz
  1  'x, y, z'
loop_
 _atom_site_type_symbol
 _atom_site_label
 _atom_site_symmetry_multiplicity
 _atom_site_fract_x
 _atom_site_fract_y
 _atom_site_fract_z
 _atom_site_occupancy
  Nb  Nb0  1  0.97068725  0.66956790  -0.00000015  1
  Nb  Nb1  1  0.47068627  0.33043238  -0.00000016  1
  Nb  Nb2  1  0.08977785  0.16956992  0.50000005  1
  Nb  Nb3  1  0.58977685  0.83043248  0.50000019  1
  Zn  Zn4  1  0.96510084  0.15771177  0.16505051  1
  Zn  Zn5  1  0.96510150  0.15771172  0.83494917  1
  Zn  Zn6  1  0.46510204  0.84228868  0.83494956  1
  Zn  Zn7  1  0.46510138  0.84228864  0.16505045  1
  Zn  Zn8  1  0.09534852  0.65771263  0.33494739  1
  Zn  Zn9  1  0.09534925  0.65771268  0.66505268  1
  Zn  Zn10  1  0.59534948  0.34228966  0.33494718  1
  Zn  Zn11  1  0.59534979  0.34228962  0.66505291  1
  N  N12  1  0.08460811  0.83407482  0.15739856  1
  N  N13  1  0.08460840  0.83407468  0.84260189  1
  N  N14  1  0.10358634  0.34460415  0.00000005  1
  N  N15  1  0.58460816  0.16592748  0.15739823  1
  N  N16  1  0.58460849  0.16592773  0.84260211  1
  N  N17  1  0.60358692  0.65539773  0.00000010  1
  N  N18  1  0.97585371  0.33407115  0.34260102  1
  N  N19  1  0.97585391  0.33407118  0.65739859  1
  N  N20  1  0.47585370  0.66592908  0.34260078  1
  N  N21  1  0.47585399  0.66592918  0.65739892  1
  N  N22  1  0.95687950  0.84460406  0.50000001  1
  N  N23  1  0.45688012  0.15539676  0.49999994  1
