# generated using pymatgen
data_NbZn2N3
_symmetry_space_group_name_H-M   'P 1'
_cell_length_a   5.58235182
_cell_length_b   5.84175732
_cell_length_c   9.90323811
_cell_angle_alpha   90.00002058
_cell_angle_beta   89.99898718
_cell_angle_gamma   90.00020979
_symmetry_Int_Tables_number   1
_chemical_formula_structural   NbZn2N3
_chemical_formula_sum   'Nb4 Zn8 N12'
_cell_volume   322.95196871
_cell_formula_units_Z   4
loop_
 _symmetry_equiv_pos_site_id
 _symmetry_equiv_pos_as_xyz
  1  'x, y, z'
loop_
 _atom_site_type_symbol
 _atom_site_label
 _atom_site_symmetry_multiplicity
 _atom_site_fract_x
 _atom_site_fract_y
 _atom_site_fract_z
 _atom_site_occupancy
  Nb  Nb0  1  0.95133343  0.66932362  0.00000454  1
  Nb  Nb1  1  0.45132317  0.33053272  0.00000460  1
  Nb  Nb2  1  0.07093315  0.16947420  0.49999491  1
  Nb  Nb3  1  0.57092383  0.83067068  0.49999591  1
  Zn  Zn4  1  0.94563353  0.15750037  0.16498280  1
  Zn  Zn5  1  0.94563678  0.15750443  0.83501807  1
  Zn  Zn6  1  0.44565037  0.84239964  0.83504103  1
  Zn  Zn7  1  0.44565081  0.84240348  0.16496265  1
  Zn  Zn8  1  0.07660754  0.65759736  0.33503578  1
  Zn  Zn9  1  0.07660837  0.65760060  0.66496220  1
  Zn  Zn10  1  0.57660110  0.34249950  0.33500548  1
  Zn  Zn11  1  0.57660467  0.34249406  0.66499199  1
  N  N12  1  0.06559126  0.83387344  0.15736683  1
  N  N13  1  0.06559340  0.83387629  0.84263112  1
  N  N14  1  0.08457385  0.34442958  0.00000070  1
  N  N15  1  0.56560028  0.16603715  0.15738474  1
  N  N16  1  0.56560258  0.16603313  0.84261392  1
  N  N17  1  0.58457273  0.65541932  0.00000104  1
  N  N18  1  0.95665769  0.33395900  0.34260968  1
  N  N19  1  0.95665556  0.33396359  0.65739080  1
  N  N20  1  0.45664923  0.66613029  0.34263181  1
  N  N21  1  0.45664971  0.66612596  0.65737061  1
  N  N22  1  0.93768359  0.84458737  0.49999940  1
  N  N23  1  0.43769084  0.15556405  0.49999940  1
