# generated using pymatgen
data_NbZn2N3
_symmetry_space_group_name_H-M   'P 1'
_cell_length_a   9.96771174
_cell_length_b   5.88049465
_cell_length_c   5.53108357
_cell_angle_alpha   89.97894564
_cell_angle_beta   90.29546608
_cell_angle_gamma   89.84139176
_symmetry_Int_Tables_number   1
_chemical_formula_structural   NbZn2N3
_chemical_formula_sum   'Nb4 Zn8 N12'
_cell_volume   324.19930477
_cell_formula_units_Z   4
loop_
 _symmetry_equiv_pos_site_id
 _symmetry_equiv_pos_as_xyz
  1  'x, y, z'
loop_
 _atom_site_type_symbol
 _atom_site_label
 _atom_site_symmetry_multiplicity
 _atom_site_fract_x
 _atom_site_fract_y
 _atom_site_fract_z
 _atom_site_occupancy
  Nb  Nb0  1  -0.00016274  0.66960778  0.97876924  1
  Nb  Nb1  1  -0.00033227  0.32824118  0.47956544  1
  Nb  Nb2  1  -0.50247901  0.17322049  0.12281587  1
  Nb  Nb3  1  -0.50003961  0.83346821  0.62584772  1
  Zn  Zn4  1  -0.17225049  0.16128444  0.96415814  1
  Zn  Zn5  1  -0.83514101  0.15951343  0.97707564  1
  Zn  Zn6  1  -0.83069599  0.83585041  0.46977298  1
  Zn  Zn7  1  -0.17111562  0.83887285  0.46517151  1
  Zn  Zn8  1  -0.31916457  0.65702296  0.97492147  1
  Zn  Zn9  1  -0.67727234  0.66566467  0.99796460  1
  Zn  Zn10  1  -0.32006389  0.34438795  0.47232292  1
  Zn  Zn11  1  -0.67078821  0.33324191  0.58458124  1
  N  N12  1  -0.15792248  0.83481801  0.09136598  1
  N  N13  1  -0.84231647  0.83384549  0.09591503  1
  N  N14  1  -0.00054645  0.34609373  0.11099614  1
  N  N15  1  -0.15941820  0.16533513  0.59112205  1
  N  N16  1  -0.84472242  0.16051768  0.59442670  1
  N  N17  1  -0.99988921  0.65219563  0.61155974  1
  N  N18  1  -0.33436169  0.33664845  0.08049426  1
  N  N19  1  -0.66108878  0.33210307  0.01696702  1
  N  N20  1  -0.33395975  0.66478119  0.58002638  1
  N  N21  1  -0.66362828  0.66784317  0.57115102  1
  N  N22  1  -0.49912951  0.85146975  0.99730941  1
  N  N23  1  -0.50351101  0.15397227  0.49253817  1
