# generated using pymatgen
data_NbZn2N3
_symmetry_space_group_name_H-M   'P 1'
_cell_length_a   9.92062370
_cell_length_b   5.87123453
_cell_length_c   5.55158997
_cell_angle_alpha   89.99181077
_cell_angle_beta   89.14155949
_cell_angle_gamma   89.85319682
_symmetry_Int_Tables_number   1
_chemical_formula_structural   NbZn2N3
_chemical_formula_sum   'Nb4 Zn8 N12'
_cell_volume   323.32226541
_cell_formula_units_Z   4
loop_
 _symmetry_equiv_pos_site_id
 _symmetry_equiv_pos_as_xyz
  1  'x, y, z'
loop_
 _atom_site_type_symbol
 _atom_site_label
 _atom_site_symmetry_multiplicity
 _atom_site_fract_x
 _atom_site_fract_y
 _atom_site_fract_z
 _atom_site_occupancy
  Nb  Nb0  1  0.99974947  0.66918799  0.97944908  1
  Nb  Nb1  1  0.99965277  0.32878893  0.47955943  1
  Nb  Nb2  1  0.50206132  0.17263152  0.11008421  1
  Nb  Nb3  1  0.50353898  0.83297844  0.61284661  1
  Zn  Zn4  1  0.16836806  0.15810077  0.96702540  1
  Zn  Zn5  1  0.83445205  0.15941868  0.97921030  1
  Zn  Zn6  1  0.83557935  0.84075199  0.47896623  1
  Zn  Zn7  1  0.17052320  0.83754869  0.46165725  1
  Zn  Zn8  1  0.32311411  0.66043896  0.97444788  1
  Zn  Zn9  1  0.66585948  0.65956290  0.11343316  1
  Zn  Zn10  1  0.32707358  0.33706892  0.52236228  1
  Zn  Zn11  1  0.66567201  0.34307101  0.61352023  1
  N  N12  1  0.15953978  0.83192729  0.09025271  1
  N  N13  1  0.84417387  0.83620502  0.09684109  1
  N  N14  1  0.99905739  0.34508596  0.11199840  1
  N  N15  1  0.15836031  0.16277317  0.58997355  1
  N  N16  1  0.84331585  0.16398303  0.59628397  1
  N  N17  1  0.99949066  0.65281004  0.61202425  1
  N  N18  1  0.33813499  0.33055965  0.04127315  1
  N  N19  1  0.65860055  0.33993281  0.99217170  1
  N  N20  1  0.33638699  0.66889995  0.57009103  1
  N  N21  1  0.65840001  0.66359959  0.49268208  1
  N  N22  1  0.50575448  0.84929283  0.98029927  1
  N  N23  1  0.50314073  0.15538172  0.48037699  1
