# generated using pymatgen
data_NbZn2N3
_symmetry_space_group_name_H-M   'P 1'
_cell_length_a   9.91235388
_cell_length_b   5.86078660
_cell_length_c   5.56697035
_cell_angle_alpha   89.99620010
_cell_angle_beta   90.37582457
_cell_angle_gamma   90.00173834
_symmetry_Int_Tables_number   1
_chemical_formula_structural   NbZn2N3
_chemical_formula_sum   'Nb4 Zn8 N12'
_cell_volume   323.40167962
_cell_formula_units_Z   4
loop_
 _symmetry_equiv_pos_site_id
 _symmetry_equiv_pos_as_xyz
  1  'x, y, z'
loop_
 _atom_site_type_symbol
 _atom_site_label
 _atom_site_symmetry_multiplicity
 _atom_site_fract_x
 _atom_site_fract_y
 _atom_site_fract_z
 _atom_site_occupancy
  Nb  Nb0  1  -0.99976097  0.66878095  0.97939582  1
  Nb  Nb1  1  -0.99964106  0.32911743  0.47997682  1
  Nb  Nb2  1  -0.49997072  0.17201808  0.10215562  1
  Nb  Nb3  1  -0.50143112  0.83191743  0.60182679  1
  Zn  Zn4  1  -0.16391574  0.15763432  0.97265311  1
  Zn  Zn5  1  -0.83418906  0.15761526  0.97584414  1
  Zn  Zn6  1  -0.83527032  0.84086942  0.47737797  1
  Zn  Zn7  1  -0.16769812  0.84009043  0.47033239  1
  Zn  Zn8  1  -0.33134136  0.66275524  0.06028149  1
  Zn  Zn9  1  -0.66546573  0.65800314  0.10931912  1
  Zn  Zn10  1  -0.33372720  0.33919078  0.59787885  1
  Zn  Zn11  1  -0.66519279  0.34222017  0.60655948  1
  N  N12  1  -0.15809708  0.83363707  0.09258125  1
  N  N13  1  -0.84355631  0.83444741  0.09463385  1
  N  N14  1  -0.99914260  0.34463372  0.11210048  1
  N  N15  1  -0.15666092  0.16386434  0.59159611  1
  N  N16  1  -0.84239264  0.16441283  0.59490099  1
  N  N17  1  -0.00002347  0.65370947  0.61269318  1
  N  N18  1  -0.34133108  0.33163101  0.98846525  1
  N  N19  1  -0.65755612  0.33595439  0.98764695  1
  N  N20  1  -0.34219901  0.66890734  0.50994250  1
  N  N21  1  -0.65846151  0.66419521  0.48773255  1
  N  N22  1  -0.50266728  0.84741892  0.97189242  1
  N  N23  1  -0.50030778  0.15697546  0.46904315  1
