# generated using pymatgen
data_NbZn2N3
_symmetry_space_group_name_H-M   'P 1'
_cell_length_a   5.56953507
_cell_length_b   5.85499363
_cell_length_c   9.90989499
_cell_angle_alpha   90.01283113
_cell_angle_beta   89.69596535
_cell_angle_gamma   90.00160073
_symmetry_Int_Tables_number   1
_chemical_formula_structural   NbZn2N3
_chemical_formula_sum   'Nb4 Zn8 N12'
_cell_volume   323.15307817
_cell_formula_units_Z   4
loop_
 _symmetry_equiv_pos_site_id
 _symmetry_equiv_pos_as_xyz
  1  'x, y, z'
loop_
 _atom_site_type_symbol
 _atom_site_label
 _atom_site_symmetry_multiplicity
 _atom_site_fract_x
 _atom_site_fract_y
 _atom_site_fract_z
 _atom_site_occupancy
  Nb  Nb0  1  0.97960471  0.66908731  0.99985170  1
  Nb  Nb1  1  0.47989430  0.32947894  0.99976761  1
  Nb  Nb2  1  0.10075937  0.17111490  0.49977963  1
  Nb  Nb3  1  0.60033283  0.83104337  0.50068315  1
  Zn  Zn4  1  0.97292333  0.15771062  0.16424742  1
  Zn  Zn5  1  0.97567027  0.15764301  0.83434449  1
  Zn  Zn6  1  0.47660204  0.84126474  0.83530335  1
  Zn  Zn7  1  0.47194965  0.84100003  0.16658973  1
  Zn  Zn8  1  0.08471814  0.66061815  0.33322123  1
  Zn  Zn9  1  0.10780682  0.65813665  0.66530441  1
  Zn  Zn10  1  0.60051921  0.34102957  0.33414610  1
  Zn  Zn11  1  0.60612452  0.34210084  0.66512000  1
  N  N12  1  0.09245084  0.83397048  0.15759026  1
  N  N13  1  0.09457981  0.83438824  0.84313485  1
  N  N14  1  0.11236423  0.34459961  0.99936611  1
  N  N15  1  0.59209098  0.16465070  0.15698521  1
  N  N16  1  0.59480148  0.16486975  0.84242651  1
  N  N17  1  0.61257874  0.65419694  0.00011506  1
  N  N18  1  0.98649675  0.33280825  0.34179941  1
  N  N19  1  0.98698152  0.33545255  0.65740800  1
  N  N20  1  0.49350329  0.66742479  0.34285632  1
  N  N21  1  0.48712997  0.66493887  0.65811767  1
  N  N22  1  0.96901901  0.84636245  0.50153337  1
  N  N23  1  0.46792846  0.15610906  0.50030840  1
