# generated using pymatgen
data_NbZn2N3
_symmetry_space_group_name_H-M   'P 1'
_cell_length_a   9.95558661
_cell_length_b   5.85661525
_cell_length_c   5.48525775
_cell_angle_alpha   90.56509127
_cell_angle_beta   89.99999355
_cell_angle_gamma   90.00001400
_symmetry_Int_Tables_number   1
_chemical_formula_structural   NbZn2N3
_chemical_formula_sum   'Nb4 Zn8 N12'
_cell_volume   319.80810517
_cell_formula_units_Z   4
loop_
 _symmetry_equiv_pos_site_id
 _symmetry_equiv_pos_as_xyz
  1  'x, y, z'
loop_
 _atom_site_type_symbol
 _atom_site_label
 _atom_site_symmetry_multiplicity
 _atom_site_fract_x
 _atom_site_fract_y
 _atom_site_fract_z
 _atom_site_occupancy
  Nb  Nb0  1  -1.00000084  0.67234696  0.98525424  1
  Nb  Nb1  1  -1.00000077  0.33025212  0.48405682  1
  Nb  Nb2  1  -0.49999880  0.17174492  0.04022259  1
  Nb  Nb3  1  -0.49999847  0.81618894  0.47910175  1
  Zn  Zn4  1  -0.16878352  0.16199693  0.97431084  1
  Zn  Zn5  1  -0.83121656  0.16199692  0.97431075  1
  Zn  Zn6  1  -0.82943291  0.83795301  0.47425364  1
  Zn  Zn7  1  -0.17056730  0.83795311  0.47425364  1
  Zn  Zn8  1  -0.32607255  0.66601375  0.96984576  1
  Zn  Zn9  1  -0.67392742  0.66601373  0.96984582  1
  Zn  Zn10  1  -0.32602471  0.33710444  0.48710553  1
  Zn  Zn11  1  -0.67397524  0.33710421  0.48710477  1
  N  N12  1  -0.15939475  0.83505706  0.09756912  1
  N  N13  1  -0.84060452  0.83505771  0.09756956  1
  N  N14  1  -0.99999982  0.34623896  0.11424597  1
  N  N15  1  -0.15894325  0.16853364  0.59777337  1
  N  N16  1  -0.84105609  0.16853301  0.59777374  1
  N  N17  1  -0.99999986  0.65694598  0.61491456  1
  N  N18  1  -0.33556182  0.33799451  0.08763068  1
  N  N19  1  -0.66443919  0.33799541  0.08763091  1
  N  N20  1  -0.33562125  0.66817906  0.59655991  1
  N  N21  1  -0.66437992  0.66817805  0.59656053  1
  N  N22  1  -0.50000024  0.83040909  0.10687645  1
  N  N23  1  -0.50000021  0.15020848  0.55424991  1
