# generated using pymatgen
data_NbZn2N3
_symmetry_space_group_name_H-M   'P 1'
_cell_length_a   9.95573052
_cell_length_b   5.87853168
_cell_length_c   5.53621451
_cell_angle_alpha   90.00905438
_cell_angle_beta   89.49834596
_cell_angle_gamma   90.04207573
_symmetry_Int_Tables_number   1
_chemical_formula_structural   NbZn2N3
_chemical_formula_sum   'Nb4 Zn8 N12'
_cell_volume   323.99487146
_cell_formula_units_Z   4
loop_
 _symmetry_equiv_pos_site_id
 _symmetry_equiv_pos_as_xyz
  1  'x, y, z'
loop_
 _atom_site_type_symbol
 _atom_site_label
 _atom_site_symmetry_multiplicity
 _atom_site_fract_x
 _atom_site_fract_y
 _atom_site_fract_z
 _atom_site_occupancy
  Nb  Nb0  1  0.00016390  0.66934902  0.97904212  1
  Nb  Nb1  1  0.00029433  0.32812540  0.48005077  1
  Nb  Nb2  1  0.50299832  0.17301276  0.12056936  1
  Nb  Nb3  1  0.50102080  0.83298174  0.62098522  1
  Zn  Zn4  1  0.17232953  0.16017421  0.96280151  1
  Zn  Zn5  1  0.83676495  0.15963891  0.97885622  1
  Zn  Zn6  1  0.83160843  0.83696133  0.47392794  1
  Zn  Zn7  1  0.17138226  0.83849515  0.46424994  1
  Zn  Zn8  1  0.31955252  0.65618243  0.97109844  1
  Zn  Zn9  1  0.67367783  0.66645814  0.03285747  1
  Zn  Zn10  1  0.32046166  0.34401187  0.47091869  1
  Zn  Zn11  1  0.66816935  0.33505911  0.60647976  1
  N  N12  1  0.15830215  0.83391149  0.09056836  1
  N  N13  1  0.84268348  0.83495344  0.09711898  1
  N  N14  1  0.00053877  0.34597830  0.11126468  1
  N  N15  1  0.15989814  0.16499450  0.59040246  1
  N  N16  1  0.84511062  0.16115869  0.59554601  1
  N  N17  1  0.99974137  0.65234301  0.61226166  1
  N  N18  1  0.33470196  0.33533800  0.07829124  1
  N  N19  1  0.66027316  0.33375752  0.00255812  1
  N  N20  1  0.33416811  0.66425380  0.57847411  1
  N  N21  1  0.66102645  0.66699659  0.54705132  1
  N  N22  1  0.50029192  0.85142476  0.99359631  1
  N  N23  1  0.50483997  0.15443966  0.48786799  1
