# generated using pymatgen
data_NbZn2N3
_symmetry_space_group_name_H-M   'P 1'
_cell_length_a   9.96825697
_cell_length_b   5.86432955
_cell_length_c   5.49296810
_cell_angle_alpha   90.57681304
_cell_angle_beta   90.00003104
_cell_angle_gamma   89.99997356
_symmetry_Int_Tables_number   1
_chemical_formula_structural   NbZn2N3
_chemical_formula_sum   'Nb4 Zn8 N12'
_cell_volume   321.08695463
_cell_formula_units_Z   4
loop_
 _symmetry_equiv_pos_site_id
 _symmetry_equiv_pos_as_xyz
  1  'x, y, z'
loop_
 _atom_site_type_symbol
 _atom_site_label
 _atom_site_symmetry_multiplicity
 _atom_site_fract_x
 _atom_site_fract_y
 _atom_site_fract_z
 _atom_site_occupancy
  Nb  Nb0  1  0.00000092  0.67242223  0.98537654  1
  Nb  Nb1  1  0.00000123  0.33048149  0.48356983  1
  Nb  Nb2  1  -0.50000282  0.17556862  0.09462974  1
  Nb  Nb3  1  -0.50000175  0.80920087  0.47687769  1
  Zn  Zn4  1  -0.16880265  0.16206725  0.97419540  1
  Zn  Zn5  1  -0.83119679  0.16206682  0.97419525  1
  Zn  Zn6  1  -0.82972191  0.83791851  0.47374342  1
  Zn  Zn7  1  -0.17027777  0.83791818  0.47374364  1
  Zn  Zn8  1  -0.32585916  0.66612768  0.96948593  1
  Zn  Zn9  1  -0.67414105  0.66612641  0.96948530  1
  Zn  Zn10  1  -0.32397901  0.33817523  0.48917353  1
  Zn  Zn11  1  -0.67602060  0.33817468  0.48917127  1
  N  N12  1  -0.15919212  0.83535296  0.09729042  1
  N  N13  1  -0.84080872  0.83535219  0.09729012  1
  N  N14  1  -0.00000015  0.34676495  0.11474879  1
  N  N15  1  -0.15887299  0.16826486  0.59727030  1
  N  N16  1  -0.84112815  0.16826571  0.59726957  1
  N  N17  1  -0.00000016  0.65657430  0.61496403  1
  N  N18  1  -0.33348604  0.33990193  0.08227036  1
  N  N19  1  -0.66651186  0.33990035  0.08227064  1
  N  N20  1  -0.33492778  0.66791263  0.59634623  1
  N  N21  1  -0.66507106  0.66791369  0.59634540  1
  N  N22  1  -0.49999975  0.82826017  0.10565536  1
  N  N23  1  -0.49999987  0.14928831  0.51365210  1
