# generated using pymatgen
data_NbZn2N3
_symmetry_space_group_name_H-M   'P 1'
_cell_length_a   9.97820930
_cell_length_b   5.86786159
_cell_length_c   5.49558250
_cell_angle_alpha   90.62112106
_cell_angle_beta   89.99994604
_cell_angle_gamma   89.99998934
_symmetry_Int_Tables_number   1
_chemical_formula_structural   NbZn2N3
_chemical_formula_sum   'Nb4 Zn8 N12'
_cell_volume   321.75157640
_cell_formula_units_Z   4
loop_
 _symmetry_equiv_pos_site_id
 _symmetry_equiv_pos_as_xyz
  1  'x, y, z'
loop_
 _atom_site_type_symbol
 _atom_site_label
 _atom_site_symmetry_multiplicity
 _atom_site_fract_x
 _atom_site_fract_y
 _atom_site_fract_z
 _atom_site_occupancy
  Nb  Nb0  1  0.99999890  0.67238295  0.98537943  1
  Nb  Nb1  1  0.99999926  0.33028337  0.48319645  1
  Nb  Nb2  1  0.50000178  0.17832441  0.11229714  1
  Nb  Nb3  1  0.50000109  0.80570540  0.47682363  1
  Zn  Zn4  1  0.16919239  0.16214909  0.97399483  1
  Zn  Zn5  1  0.83080745  0.16214923  0.97399486  1
  Zn  Zn6  1  0.83005777  0.83761899  0.47299318  1
  Zn  Zn7  1  0.16994186  0.83761894  0.47299319  1
  Zn  Zn8  1  0.32587274  0.66609343  0.96962997  1
  Zn  Zn9  1  0.67412787  0.66609321  0.96962985  1
  Zn  Zn10  1  0.32140213  0.33925759  0.48851950  1
  Zn  Zn11  1  0.67859864  0.33925814  0.48851806  1
  N  N12  1  0.15906634  0.83552631  0.09689135  1
  N  N13  1  0.84093427  0.83552572  0.09689089  1
  N  N14  1  0.99999995  0.34706958  0.11490551  1
  N  N15  1  0.15852595  0.16742676  0.59702585  1
  N  N16  1  0.84147433  0.16742714  0.59702548  1
  N  N17  1  0.99999996  0.65609281  0.61493099  1
  N  N18  1  0.33276892  0.34053109  0.08154477  1
  N  N19  1  0.66722964  0.34053014  0.08154524  1
  N  N20  1  0.33450909  0.66759021  0.59630865  1
  N  N21  1  0.66549007  0.66759068  0.59630806  1
  N  N22  1  0.49999983  0.82954376  0.10635228  1
  N  N23  1  0.49999979  0.14821101  0.50132172  1
