# generated using pymatgen
data_NbZn2N3
_symmetry_space_group_name_H-M   'P 1'
_cell_length_a   5.53108357
_cell_length_b   5.88049465
_cell_length_c   9.96771174
_cell_angle_alpha   90.15860824
_cell_angle_beta   89.70453392
_cell_angle_gamma   89.97894564
_symmetry_Int_Tables_number   1
_chemical_formula_structural   NbZn2N3
_chemical_formula_sum   'Nb4 Zn8 N12'
_cell_volume   324.19930477
_cell_formula_units_Z   4
loop_
 _symmetry_equiv_pos_site_id
 _symmetry_equiv_pos_as_xyz
  1  'x, y, z'
loop_
 _atom_site_type_symbol
 _atom_site_label
 _atom_site_symmetry_multiplicity
 _atom_site_fract_x
 _atom_site_fract_y
 _atom_site_fract_z
 _atom_site_occupancy
  Nb  Nb0  1  0.97876924  0.66960778  0.00016274  1
  Nb  Nb1  1  0.47956544  0.32824118  0.00033227  1
  Nb  Nb2  1  0.12281587  0.17322049  0.50247901  1
  Nb  Nb3  1  0.62584772  0.83346821  0.50003961  1
  Zn  Zn4  1  0.96415814  0.16128444  0.17225049  1
  Zn  Zn5  1  0.97707564  0.15951343  0.83514101  1
  Zn  Zn6  1  0.46977298  0.83585041  0.83069599  1
  Zn  Zn7  1  0.46517151  0.83887285  0.17111562  1
  Zn  Zn8  1  0.97492147  0.65702296  0.31916457  1
  Zn  Zn9  1  0.99796460  0.66566467  0.67727234  1
  Zn  Zn10  1  0.47232292  0.34438795  0.32006389  1
  Zn  Zn11  1  0.58458124  0.33324191  0.67078821  1
  N  N12  1  0.09136598  0.83481801  0.15792248  1
  N  N13  1  0.09591503  0.83384549  0.84231647  1
  N  N14  1  0.11099614  0.34609373  0.00054645  1
  N  N15  1  0.59112205  0.16533513  0.15941820  1
  N  N16  1  0.59442670  0.16051768  0.84472242  1
  N  N17  1  0.61155974  0.65219563  0.99988921  1
  N  N18  1  0.08049426  0.33664845  0.33436169  1
  N  N19  1  0.01696702  0.33210307  0.66108878  1
  N  N20  1  0.58002638  0.66478119  0.33395975  1
  N  N21  1  0.57115102  0.66784317  0.66362828  1
  N  N22  1  0.99730941  0.85146975  0.49912951  1
  N  N23  1  0.49253817  0.15397227  0.50351101  1
