# generated using pymatgen
data_NbZn2N3
_symmetry_space_group_name_H-M   'P 1'
_cell_length_a   9.91568273
_cell_length_b   5.81593875
_cell_length_c   5.46445459
_cell_angle_alpha   90.00004768
_cell_angle_beta   90.00000578
_cell_angle_gamma   90.00000141
_symmetry_Int_Tables_number   1
_chemical_formula_structural   NbZn2N3
_chemical_formula_sum   'Nb4 Zn8 N12'
_cell_volume   315.12965033
_cell_formula_units_Z   4
loop_
 _symmetry_equiv_pos_site_id
 _symmetry_equiv_pos_as_xyz
  1  'x, y, z'
loop_
 _atom_site_type_symbol
 _atom_site_label
 _atom_site_symmetry_multiplicity
 _atom_site_fract_x
 _atom_site_fract_y
 _atom_site_fract_z
 _atom_site_occupancy
  Nb  Nb0  1  -0.00000087  0.67146347  0.99821246  1
  Nb  Nb1  1  -0.00000078  0.32853869  0.49821233  1
  Nb  Nb2  1  -0.49999912  0.17146304  0.99821218  1
  Nb  Nb3  1  -0.49999908  0.82853899  0.49821206  1
  Zn  Zn4  1  -0.17150275  0.16260028  0.98808732  1
  Zn  Zn5  1  -0.82849739  0.16260014  0.98808736  1
  Zn  Zn6  1  -0.82849741  0.83740164  0.48808739  1
  Zn  Zn7  1  -0.17150279  0.83740181  0.48808712  1
  Zn  Zn8  1  -0.32849725  0.66260006  0.98808723  1
  Zn  Zn9  1  -0.67150257  0.66260041  0.98808744  1
  Zn  Zn10  1  -0.32849730  0.33740167  0.48808735  1
  Zn  Zn11  1  -0.67150258  0.33740155  0.48808735  1
  N  N12  1  -0.16077760  0.83162739  0.11155568  1
  N  N13  1  -0.83922185  0.83162787  0.11155628  1
  N  N14  1  0.00000000  0.34276794  0.12675361  1
  N  N15  1  -0.16077766  0.16837459  0.61155583  1
  N  N16  1  -0.83922182  0.16837409  0.61155626  1
  N  N17  1  -0.00000001  0.65723390  0.62675357  1
  N  N18  1  -0.33922228  0.33162742  0.11155583  1
  N  N19  1  -0.66077830  0.33162810  0.11155634  1
  N  N20  1  -0.33922226  0.66837453  0.61155579  1
  N  N21  1  -0.66077831  0.66837388  0.61155638  1
  N  N22  1  -0.50000001  0.84276800  0.12675362  1
  N  N23  1  -0.50000003  0.15723385  0.62675360  1
