# generated using pymatgen
data_NbZn2N3
_symmetry_space_group_name_H-M   'P 1'
_cell_length_a   9.92032424
_cell_length_b   5.87222122
_cell_length_c   5.55415020
_cell_angle_alpha   89.97665465
_cell_angle_beta   90.80449067
_cell_angle_gamma   90.16618155
_symmetry_Int_Tables_number   1
_chemical_formula_structural   NbZn2N3
_chemical_formula_sum   'Nb4 Zn8 N12'
_cell_volume   323.52006932
_cell_formula_units_Z   4
loop_
 _symmetry_equiv_pos_site_id
 _symmetry_equiv_pos_as_xyz
  1  'x, y, z'
loop_
 _atom_site_type_symbol
 _atom_site_label
 _atom_site_symmetry_multiplicity
 _atom_site_fract_x
 _atom_site_fract_y
 _atom_site_fract_z
 _atom_site_occupancy
  Nb  Nb0  1  -0.99973007  0.66889217  0.97933109  1
  Nb  Nb1  1  -0.99952572  0.32868479  0.47959594  1
  Nb  Nb2  1  -0.50158560  0.17336961  0.10814681  1
  Nb  Nb3  1  -0.50353922  0.83377233  0.61174758  1
  Zn  Zn4  1  -0.16713687  0.15745523  0.96872812  1
  Zn  Zn5  1  -0.83430493  0.15915888  0.97881747  1
  Zn  Zn6  1  -0.83553857  0.84076198  0.47883032  1
  Zn  Zn7  1  -0.17034139  0.83734163  0.46195535  1
  Zn  Zn8  1  -0.32365945  0.66215253  0.97699003  1
  Zn  Zn9  1  -0.66585737  0.65944732  0.11301788  1
  Zn  Zn10  1  -0.32873412  0.33564184  0.54560731  1
  Zn  Zn11  1  -0.66557772  0.34320829  0.61258152  1
  N  N12  1  -0.15953902  0.83153331  0.09067044  1
  N  N13  1  -0.84428374  0.83595303  0.09662631  1
  N  N14  1  -0.99904858  0.34487820  0.11188205  1
  N  N15  1  -0.15762938  0.16207595  0.58982024  1
  N  N16  1  -0.84305874  0.16395015  0.59593751  1
  N  N17  1  -0.99952761  0.65268017  0.61213506  1
  N  N18  1  -0.33929514  0.32938542  0.02478177  1
  N  N19  1  -0.65867102  0.33978549  0.99143561  1
  N  N20  1  -0.33680214  0.67001737  0.56818094  1
  N  N21  1  -0.65834144  0.66387242  0.49205377  1
  N  N22  1  -0.50598971  0.84960710  0.97960480  1
  N  N23  1  -0.50228244  0.15637460  0.47835235  1
