# generated using pymatgen
data_NbZn2N3
_symmetry_space_group_name_H-M   'P 1'
_cell_length_a   9.94462327
_cell_length_b   5.84880430
_cell_length_c   5.48012184
_cell_angle_alpha   90.56116906
_cell_angle_beta   90.00003008
_cell_angle_gamma   89.99999272
_symmetry_Int_Tables_number   1
_chemical_formula_structural   NbZn2N3
_chemical_formula_sum   'Nb4 Zn8 N12'
_cell_volume   318.73136990
_cell_formula_units_Z   4
loop_
 _symmetry_equiv_pos_site_id
 _symmetry_equiv_pos_as_xyz
  1  'x, y, z'
loop_
 _atom_site_type_symbol
 _atom_site_label
 _atom_site_symmetry_multiplicity
 _atom_site_fract_x
 _atom_site_fract_y
 _atom_site_fract_z
 _atom_site_occupancy
  Nb  Nb0  1  -0.00000582  0.67222066  0.98520973  1
  Nb  Nb1  1  -0.00000647  0.32999147  0.48422138  1
  Nb  Nb2  1  0.50000627  0.17047861  0.00714503  1
  Nb  Nb3  1  0.50000840  0.81969746  0.48052985  1
  Zn  Zn4  1  0.16918064  0.16226817  0.97436974  1
  Zn  Zn5  1  0.83081791  0.16226660  0.97436897  1
  Zn  Zn6  1  0.82935214  0.83796454  0.47433946  1
  Zn  Zn7  1  0.17064617  0.83796405  0.47433978  1
  Zn  Zn8  1  0.32632641  0.66541095  0.97046312  1
  Zn  Zn9  1  0.67367491  0.66541039  0.97046232  1
  Zn  Zn10  1  0.32686346  0.33644239  0.48434761  1
  Zn  Zn11  1  0.67313761  0.33644219  0.48434566  1
  N  N12  1  0.15960726  0.83476259  0.09770966  1
  N  N13  1  0.84039747  0.83475790  0.09770684  1
  N  N14  1  1.00000071  0.34586762  0.11396656  1
  N  N15  1  0.15908384  0.16850727  0.59787553  1
  N  N16  1  0.84092128  0.16851225  0.59787230  1
  N  N17  1  1.00000073  0.65721835  0.61477843  1
  N  N18  1  0.33742909  0.33566422  0.09091218  1
  N  N19  1  0.66256572  0.33565960  0.09091018  1
  N  N20  1  0.33640136  0.66829392  0.59644760  1
  N  N21  1  0.66359259  0.66829963  0.59644390  1
  N  N22  1  0.49999909  0.83489399  0.10822184  1
  N  N23  1  0.49999923  0.15100518  0.58203320  1
