# generated using pymatgen
data_NbZn2N3
_symmetry_space_group_name_H-M   'P 1'
_cell_length_a   9.90607531
_cell_length_b   5.84376749
_cell_length_c   5.57722500
_cell_angle_alpha   90.00042775
_cell_angle_beta   90.00000573
_cell_angle_gamma   89.99998354
_symmetry_Int_Tables_number   1
_chemical_formula_structural   NbZn2N3
_chemical_formula_sum   'Nb4 Zn8 N12'
_cell_volume   322.85886673
_cell_formula_units_Z   4
loop_
 _symmetry_equiv_pos_site_id
 _symmetry_equiv_pos_as_xyz
  1  'x, y, z'
loop_
 _atom_site_type_symbol
 _atom_site_label
 _atom_site_symmetry_multiplicity
 _atom_site_fract_x
 _atom_site_fract_y
 _atom_site_fract_z
 _atom_site_occupancy
  Nb  Nb0  1  0.00000008  0.66953477  0.96429788  1
  Nb  Nb1  1  0.00000004  0.33046579  0.46429719  1
  Nb  Nb2  1  -0.50000008  0.16953419  0.08342709  1
  Nb  Nb3  1  -0.50000009  0.83046787  0.58342633  1
  Zn  Zn4  1  -0.16502988  0.15769914  0.95867008  1
  Zn  Zn5  1  -0.83497007  0.15769903  0.95866991  1
  Zn  Zn6  1  -0.83497030  0.84230157  0.45867027  1
  Zn  Zn7  1  -0.16502971  0.84230147  0.45867056  1
  Zn  Zn8  1  -0.33497209  0.65769779  0.08907717  1
  Zn  Zn9  1  -0.66502790  0.65769769  0.08907690  1
  Zn  Zn10  1  -0.33497193  0.34230422  0.58907756  1
  Zn  Zn11  1  -0.66502814  0.34230438  0.58907721  1
  N  N12  1  -0.15738933  0.83405427  0.07831470  1
  N  N13  1  -0.84261077  0.83405411  0.07831453  1
  N  N14  1  -0.00000003  0.34459114  0.09731413  1
  N  N15  1  -0.15738907  0.16594784  0.57831476  1
  N  N16  1  -0.84261097  0.16594797  0.57831462  1
  N  N17  1  -0.00000000  0.65541054  0.59731459  1
  N  N18  1  -0.34261187  0.33405650  0.96941004  1
  N  N19  1  -0.65738806  0.33405635  0.96940998  1
  N  N20  1  -0.34261162  0.66594404  0.46941015  1
  N  N21  1  -0.65738824  0.66594423  0.46941001  1
  N  N22  1  -0.49999999  0.84459056  0.95040664  1
  N  N23  1  -0.49999994  0.15541036  0.45040709  1
