# generated using pymatgen
data_NbZn2N3
_symmetry_space_group_name_H-M   'P 1'
_cell_length_a   9.91694354
_cell_length_b   5.81704330
_cell_length_c   5.46189208
_cell_angle_alpha   90.00005362
_cell_angle_beta   89.99997824
_cell_angle_gamma   90.00000270
_symmetry_Int_Tables_number   1
_chemical_formula_structural   NbZn2N3
_chemical_formula_sum   'Nb4 Zn8 N12'
_cell_volume   315.08175231
_cell_formula_units_Z   4
loop_
 _symmetry_equiv_pos_site_id
 _symmetry_equiv_pos_as_xyz
  1  'x, y, z'
loop_
 _atom_site_type_symbol
 _atom_site_label
 _atom_site_symmetry_multiplicity
 _atom_site_fract_x
 _atom_site_fract_y
 _atom_site_fract_z
 _atom_site_occupancy
  Nb  Nb0  1  -0.00000001  0.67149509  0.00251425  1
  Nb  Nb1  1  0.00000002  0.32850552  0.50251413  1
  Nb  Nb2  1  -0.50000000  0.17149505  0.00251425  1
  Nb  Nb3  1  -0.50000000  0.82850555  0.50251413  1
  Zn  Zn4  1  -0.17151511  0.16260229  0.99245005  1
  Zn  Zn5  1  -0.82848491  0.16260261  0.99245021  1
  Zn  Zn6  1  -0.82848491  0.83739805  0.49245023  1
  Zn  Zn7  1  -0.17151513  0.83739843  0.49245007  1
  Zn  Zn8  1  -0.32848486  0.66260228  0.99245006  1
  Zn  Zn9  1  -0.67151504  0.66260273  0.99245029  1
  Zn  Zn10  1  -0.32848485  0.33739839  0.49245007  1
  Zn  Zn11  1  -0.67151507  0.33739810  0.49245023  1
  N  N12  1  -0.16077891  0.83165490  0.11576547  1
  N  N13  1  -0.83922131  0.83165492  0.11576548  1
  N  N14  1  -0.00000016  0.34278953  0.13091970  1
  N  N15  1  -0.16077890  0.16834598  0.61576547  1
  N  N16  1  -0.83922128  0.16834594  0.61576542  1
  N  N17  1  -0.00000015  0.65721132  0.63091974  1
  N  N18  1  -0.33922112  0.33165491  0.11576550  1
  N  N19  1  -0.66077873  0.33165496  0.11576549  1
  N  N20  1  -0.33922110  0.66834595  0.61576547  1
  N  N21  1  -0.66077873  0.66834595  0.61576546  1
  N  N22  1  -0.49999985  0.84278954  0.13091971  1
  N  N23  1  -0.49999987  0.15721133  0.63091976  1
