# generated using pymatgen
data_NbZn2N3
_symmetry_space_group_name_H-M   'P 1'
_cell_length_a   5.53364814
_cell_length_b   5.88023588
_cell_length_c   9.96148036
_cell_angle_alpha   90.09939200
_cell_angle_beta   89.58493955
_cell_angle_gamma   89.99020390
_symmetry_Int_Tables_number   1
_chemical_formula_structural   NbZn2N3
_chemical_formula_sum   'Nb4 Zn8 N12'
_cell_volume   324.12916881
_cell_formula_units_Z   4
loop_
 _symmetry_equiv_pos_site_id
 _symmetry_equiv_pos_as_xyz
  1  'x, y, z'
loop_
 _atom_site_type_symbol
 _atom_site_label
 _atom_site_symmetry_multiplicity
 _atom_site_fract_x
 _atom_site_fract_y
 _atom_site_fract_z
 _atom_site_occupancy
  Nb  Nb0  1  0.97889132  0.66934559  0.00014021  1
  Nb  Nb1  1  0.47992920  0.32806303  0.00034995  1
  Nb  Nb2  1  0.12145250  0.17345092  0.50283710  1
  Nb  Nb3  1  0.62330671  0.83363437  0.50042288  1
  Zn  Zn4  1  0.96329971  0.16057486  0.17233782  1
  Zn  Zn5  1  0.97852878  0.15940001  0.83643935  1
  Zn  Zn6  1  0.47178443  0.83629047  0.83100643  1
  Zn  Zn7  1  0.46471955  0.83859771  0.17125418  1
  Zn  Zn8  1  0.97279272  0.65652601  0.31927749  1
  Zn  Zn9  1  0.01142104  0.66696116  0.67558376  1
  Zn  Zn10  1  0.47145801  0.34418024  0.32031103  1
  Zn  Zn11  1  0.60159949  0.33347305  0.66892906  1
  N  N12  1  0.09091243  0.83425473  0.15802357  1
  N  N13  1  0.09672692  0.83419196  0.84232890  1
  N  N14  1  0.11110109  0.34596253  0.00060100  1
  N  N15  1  0.59067920  0.16504098  0.15979891  1
  N  N16  1  0.59490280  0.16066082  0.84514455  1
  N  N17  1  0.61204417  0.65219951  0.99982362  1
  N  N18  1  0.07917426  0.33590815  0.33455737  1
  N  N19  1  0.00590913  0.33270093  0.66055527  1
  N  N20  1  0.57906588  0.66440153  0.33411431  1
  N  N21  1  0.56192006  0.66781331  0.66240801  1
  N  N22  1  0.99573011  0.85187905  0.49929890  1
  N  N23  1  0.48948917  0.15448895  0.50445634  1
