# generated using pymatgen
data_NbZn2N3
_symmetry_space_group_name_H-M   'P 1'
_cell_length_a   5.54646640
_cell_length_b   5.86651940
_cell_length_c   9.92028199
_cell_angle_alpha   89.93842516
_cell_angle_beta   88.92861711
_cell_angle_gamma   90.00515242
_symmetry_Int_Tables_number   1
_chemical_formula_structural   NbZn2N3
_chemical_formula_sum   'Nb4 Zn8 N12'
_cell_volume   322.73400659
_cell_formula_units_Z   4
loop_
 _symmetry_equiv_pos_site_id
 _symmetry_equiv_pos_as_xyz
  1  'x, y, z'
loop_
 _atom_site_type_symbol
 _atom_site_label
 _atom_site_symmetry_multiplicity
 _atom_site_fract_x
 _atom_site_fract_y
 _atom_site_fract_z
 _atom_site_occupancy
  Nb  Nb0  1  0.98008917  0.67000651  0.99977320  1
  Nb  Nb1  1  0.48012618  0.32917889  0.99993260  1
  Nb  Nb2  1  0.11399940  0.17028887  0.50315689  1
  Nb  Nb3  1  0.61453348  0.83126855  0.50364818  1
  Zn  Zn4  1  0.96288441  0.15937717  0.17064022  1
  Zn  Zn5  1  0.98039078  0.15989557  0.83492552  1
  Zn  Zn6  1  0.48019864  0.84066961  0.83596454  1
  Zn  Zn7  1  0.46121772  0.83888357  0.17145555  1
  Zn  Zn8  1  0.96844974  0.65640434  0.32172731  1
  Zn  Zn9  1  0.11647796  0.65933055  0.66565324  1
  Zn  Zn10  1  0.47678227  0.34191625  0.32273575  1
  Zn  Zn11  1  0.61545840  0.34210305  0.66574628  1
  N  N12  1  0.08949276  0.83277220  0.15982447  1
  N  N13  1  0.09807846  0.83669390  0.84386028  1
  N  N14  1  0.11254214  0.34562548  0.99908005  1
  N  N15  1  0.58978907  0.16515227  0.15971254  1
  N  N16  1  0.59809297  0.16389457  0.84366242  1
  N  N17  1  0.61242809  0.65354268  0.99957097  1
  N  N18  1  0.07046145  0.33295565  0.33545563  1
  N  N19  1  0.99396732  0.33977402  0.65816624  1
  N  N20  1  0.57349551  0.66660454  0.33586182  1
  N  N21  1  0.49415545  0.66217587  0.65872924  1
  N  N22  1  0.98162522  0.84848722  0.50559124  1
  N  N23  1  0.48208634  0.15299850  0.50512584  1
