# generated using pymatgen
data_NbZn2N3
_symmetry_space_group_name_H-M   'P 1'
_cell_length_a   5.48012184
_cell_length_b   5.84880430
_cell_length_c   9.94462327
_cell_angle_alpha   89.99999272
_cell_angle_beta   90.00003008
_cell_angle_gamma   90.56116906
_symmetry_Int_Tables_number   1
_chemical_formula_structural   NbZn2N3
_chemical_formula_sum   'Nb4 Zn8 N12'
_cell_volume   318.73136990
_cell_formula_units_Z   4
loop_
 _symmetry_equiv_pos_site_id
 _symmetry_equiv_pos_as_xyz
  1  'x, y, z'
loop_
 _atom_site_type_symbol
 _atom_site_label
 _atom_site_symmetry_multiplicity
 _atom_site_fract_x
 _atom_site_fract_y
 _atom_site_fract_z
 _atom_site_occupancy
  Nb  Nb0  1  0.98520973  0.67222066  -0.00000582  1
  Nb  Nb1  1  0.48422138  0.32999147  -0.00000647  1
  Nb  Nb2  1  0.00714503  0.17047861  0.50000627  1
  Nb  Nb3  1  0.48052985  0.81969746  0.50000840  1
  Zn  Zn4  1  0.97436974  0.16226817  0.16918064  1
  Zn  Zn5  1  0.97436897  0.16226660  0.83081791  1
  Zn  Zn6  1  0.47433946  0.83796454  0.82935214  1
  Zn  Zn7  1  0.47433978  0.83796405  0.17064617  1
  Zn  Zn8  1  0.97046312  0.66541095  0.32632641  1
  Zn  Zn9  1  0.97046232  0.66541039  0.67367491  1
  Zn  Zn10  1  0.48434761  0.33644239  0.32686346  1
  Zn  Zn11  1  0.48434566  0.33644219  0.67313761  1
  N  N12  1  0.09770966  0.83476259  0.15960726  1
  N  N13  1  0.09770684  0.83475790  0.84039747  1
  N  N14  1  0.11396656  0.34586762  1.00000071  1
  N  N15  1  0.59787553  0.16850727  0.15908384  1
  N  N16  1  0.59787230  0.16851225  0.84092128  1
  N  N17  1  0.61477843  0.65721835  1.00000073  1
  N  N18  1  0.09091218  0.33566422  0.33742909  1
  N  N19  1  0.09091018  0.33565960  0.66256572  1
  N  N20  1  0.59644760  0.66829392  0.33640136  1
  N  N21  1  0.59644390  0.66829963  0.66359259  1
  N  N22  1  0.10822184  0.83489399  0.49999909  1
  N  N23  1  0.58203320  0.15100518  0.49999923  1
