# generated using pymatgen
data_NbZn2N3
_symmetry_space_group_name_H-M   'P 1'
_cell_length_a   10.00022180
_cell_length_b   5.87766796
_cell_length_c   5.51324126
_cell_angle_alpha   90.26998415
_cell_angle_beta   89.99997711
_cell_angle_gamma   89.99997075
_symmetry_Int_Tables_number   1
_chemical_formula_structural   NbZn2N3
_chemical_formula_sum   'Nb4 Zn8 N12'
_cell_volume   324.05360498
_cell_formula_units_Z   4
loop_
 _symmetry_equiv_pos_site_id
 _symmetry_equiv_pos_as_xyz
  1  'x, y, z'
loop_
 _atom_site_type_symbol
 _atom_site_label
 _atom_site_symmetry_multiplicity
 _atom_site_fract_x
 _atom_site_fract_y
 _atom_site_fract_z
 _atom_site_occupancy
  Nb  Nb0  1  0.00000016  0.66944322  0.97943570  1
  Nb  Nb1  1  -0.00000017  0.32804301  0.47830676  1
  Nb  Nb2  1  -0.50000089  0.17335872  0.12961207  1
  Nb  Nb3  1  -0.49999982  0.82939473  0.59991068  1
  Zn  Zn4  1  -0.17053660  0.16039069  0.96827361  1
  Zn  Zn5  1  -0.82946325  0.16039055  0.96827345  1
  Zn  Zn6  1  -0.83147147  0.83716138  0.46673511  1
  Zn  Zn7  1  -0.16852852  0.83716143  0.46673555  1
  Zn  Zn8  1  -0.32580591  0.66273428  0.98494659  1
  Zn  Zn9  1  -0.67419378  0.66273476  0.98494583  1
  Zn  Zn10  1  -0.31714102  0.34179532  0.47923483  1
  Zn  Zn11  1  -0.68285873  0.34179514  0.47923462  1
  N  N12  1  -0.15830106  0.83312855  0.09204149  1
  N  N13  1  -0.84169917  0.83312827  0.09204117  1
  N  N14  1  -0.00000001  0.34542721  0.11056646  1
  N  N15  1  -0.15750112  0.16386772  0.59298051  1
  N  N16  1  -0.84249895  0.16386742  0.59298065  1
  N  N17  1  -0.00000000  0.65269598  0.61026157  1
  N  N18  1  -0.33230391  0.33655351  0.08148123  1
  N  N19  1  -0.66769562  0.33655296  0.08148126  1
  N  N20  1  -0.33356790  0.66489667  0.58269244  1
  N  N21  1  -0.66643226  0.66489687  0.58269243  1
  N  N22  1  -0.50000000  0.84206392  0.04030528  1
  N  N23  1  -0.50000001  0.15851768  0.50385161  1
