# generated using pymatgen
data_NbZn2N3
_symmetry_space_group_name_H-M   'P 1'
_cell_length_a   5.57978837
_cell_length_b   5.84271545
_cell_length_c   9.90504059
_cell_angle_alpha   90.00001590
_cell_angle_beta   89.99999944
_cell_angle_gamma   90.00023069
_symmetry_Int_Tables_number   1
_chemical_formula_structural   NbZn2N3
_chemical_formula_sum   'Nb4 Zn8 N12'
_cell_volume   322.91537503
_cell_formula_units_Z   4
loop_
 _symmetry_equiv_pos_site_id
 _symmetry_equiv_pos_as_xyz
  1  'x, y, z'
loop_
 _atom_site_type_symbol
 _atom_site_label
 _atom_site_symmetry_multiplicity
 _atom_site_fract_x
 _atom_site_fract_y
 _atom_site_fract_z
 _atom_site_occupancy
  Nb  Nb0  1  0.95793712  0.66950441  0.99999999  1
  Nb  Nb1  1  0.45793671  0.33049600  1.00000001  1
  Nb  Nb2  1  0.07706019  0.16950609  0.49999998  1
  Nb  Nb3  1  0.57705983  0.83049513  0.50000000  1
  Zn  Zn4  1  0.95223776  0.15769377  0.16500729  1
  Zn  Zn5  1  0.95223799  0.15769366  0.83499267  1
  Zn  Zn6  1  0.45223809  0.84230666  0.83499283  1
  Zn  Zn7  1  0.45223794  0.84230654  0.16500719  1
  Zn  Zn8  1  0.08273812  0.65769532  0.33499070  1
  Zn  Zn9  1  0.08273839  0.65769518  0.66500925  1
  Zn  Zn10  1  0.58273845  0.34230587  0.33499065  1
  Zn  Zn11  1  0.58273866  0.34230598  0.66500936  1
  N  N12  1  0.07204348  0.83404661  0.15737722  1
  N  N13  1  0.07204356  0.83404652  0.84262279  1
  N  N14  1  0.09107540  0.34458209  1.00000001  1
  N  N15  1  0.57204354  0.16595465  0.15737708  1
  N  N16  1  0.57204362  0.16595475  0.84262285  1
  N  N17  1  0.59107563  0.65541893  0.99999998  1
  N  N18  1  0.96295163  0.33404307  0.34262208  1
  N  N19  1  0.96295173  0.33404303  0.65737800  1
  N  N20  1  0.46295169  0.66595727  0.34262190  1
  N  N21  1  0.46295180  0.66595729  0.65737810  1
  N  N22  1  0.94392379  0.84458226  0.50000004  1
  N  N23  1  0.44392403  0.15541833  0.50000001  1
