# generated using pymatgen
data_NbZn2N3
_symmetry_space_group_name_H-M   'P 1'
_cell_length_a   5.49558250
_cell_length_b   5.86786159
_cell_length_c   9.97820930
_cell_angle_alpha   89.99998934
_cell_angle_beta   89.99994604
_cell_angle_gamma   90.62112106
_symmetry_Int_Tables_number   1
_chemical_formula_structural   NbZn2N3
_chemical_formula_sum   'Nb4 Zn8 N12'
_cell_volume   321.75157640
_cell_formula_units_Z   4
loop_
 _symmetry_equiv_pos_site_id
 _symmetry_equiv_pos_as_xyz
  1  'x, y, z'
loop_
 _atom_site_type_symbol
 _atom_site_label
 _atom_site_symmetry_multiplicity
 _atom_site_fract_x
 _atom_site_fract_y
 _atom_site_fract_z
 _atom_site_occupancy
  Nb  Nb0  1  0.98537943  0.67238295  0.99999890  1
  Nb  Nb1  1  0.48319645  0.33028337  0.99999926  1
  Nb  Nb2  1  0.11229714  0.17832441  0.50000178  1
  Nb  Nb3  1  0.47682363  0.80570540  0.50000109  1
  Zn  Zn4  1  0.97399483  0.16214909  0.16919239  1
  Zn  Zn5  1  0.97399486  0.16214923  0.83080745  1
  Zn  Zn6  1  0.47299318  0.83761899  0.83005777  1
  Zn  Zn7  1  0.47299319  0.83761894  0.16994186  1
  Zn  Zn8  1  0.96962997  0.66609343  0.32587274  1
  Zn  Zn9  1  0.96962985  0.66609321  0.67412787  1
  Zn  Zn10  1  0.48851950  0.33925759  0.32140213  1
  Zn  Zn11  1  0.48851806  0.33925814  0.67859864  1
  N  N12  1  0.09689135  0.83552631  0.15906634  1
  N  N13  1  0.09689089  0.83552572  0.84093427  1
  N  N14  1  0.11490551  0.34706958  0.99999995  1
  N  N15  1  0.59702585  0.16742676  0.15852595  1
  N  N16  1  0.59702548  0.16742714  0.84147433  1
  N  N17  1  0.61493099  0.65609281  0.99999996  1
  N  N18  1  0.08154477  0.34053109  0.33276892  1
  N  N19  1  0.08154524  0.34053014  0.66722964  1
  N  N20  1  0.59630865  0.66759021  0.33450909  1
  N  N21  1  0.59630806  0.66759068  0.66549007  1
  N  N22  1  0.10635228  0.82954376  0.49999983  1
  N  N23  1  0.50132172  0.14821101  0.49999979  1
