# generated using pymatgen
data_NbZn2N3
_symmetry_space_group_name_H-M   'P 1'
_cell_length_a   9.93846087
_cell_length_b   5.86744013
_cell_length_c   5.54390806
_cell_angle_alpha   90.02683527
_cell_angle_beta   90.71114251
_cell_angle_gamma   90.02811298
_symmetry_Int_Tables_number   1
_chemical_formula_structural   NbZn2N3
_chemical_formula_sum   'Nb4 Zn8 N12'
_cell_volume   323.25873163
_cell_formula_units_Z   4
loop_
 _symmetry_equiv_pos_site_id
 _symmetry_equiv_pos_as_xyz
  1  'x, y, z'
loop_
 _atom_site_type_symbol
 _atom_site_label
 _atom_site_symmetry_multiplicity
 _atom_site_fract_x
 _atom_site_fract_y
 _atom_site_fract_z
 _atom_site_occupancy
  Nb  Nb0  1  0.00000543  0.66996065  0.97968107  1
  Nb  Nb1  1  -0.00002304  0.32876884  0.47997848  1
  Nb  Nb2  1  -0.50358026  0.17105489  0.11740561  1
  Nb  Nb3  1  -0.50284723  0.83077558  0.61674722  1
  Zn  Zn4  1  -0.17205957  0.15989549  0.96210694  1
  Zn  Zn5  1  -0.83629610  0.15989958  0.97939656  1
  Zn  Zn6  1  -0.83416349  0.83914883  0.47872582  1
  Zn  Zn7  1  -0.17134559  0.83904040  0.46260127  1
  Zn  Zn8  1  -0.32043269  0.65608540  0.96818614  1
  Zn  Zn9  1  -0.66796512  0.66164567  0.09976712  1
  Zn  Zn10  1  -0.32074301  0.34384287  0.46873848  1
  Zn  Zn11  1  -0.66676002  0.34013601  0.61333738  1
  N  N12  1  -0.15944277  0.83360692  0.08998779  1
  N  N13  1  -0.84391717  0.83624210  0.09726008  1
  N  N14  1  -0.00010393  0.34587603  0.11202602  1
  N  N15  1  -0.16003063  0.16570466  0.59000555  1
  N  N16  1  -0.84434195  0.16284509  0.59707659  1
  N  N17  1  -0.99947327  0.65319320  0.61222534  1
  N  N18  1  -0.33523873  0.33445762  0.07638037  1
  N  N19  1  -0.65913793  0.33717726  0.99675201  1
  N  N20  1  -0.33484982  0.66549646  0.57652633  1
  N  N21  1  -0.65826051  0.66307566  0.50156813  1
  N  N22  1  -0.50385125  0.84959315  0.98563269  1
  N  N23  1  -0.50514134  0.15247747  0.48472569  1
