# generated using pymatgen
data_NbZn2N3
_symmetry_space_group_name_H-M   'P 1'
_cell_length_a   5.47214611
_cell_length_b   5.81323615
_cell_length_c   9.91189698
_cell_angle_alpha   89.99999748
_cell_angle_beta   90.00004392
_cell_angle_gamma   90.05054055
_symmetry_Int_Tables_number   1
_chemical_formula_structural   NbZn2N3
_chemical_formula_sum   'Nb4 Zn8 N12'
_cell_volume   315.30601913
_cell_formula_units_Z   4
loop_
 _symmetry_equiv_pos_site_id
 _symmetry_equiv_pos_as_xyz
  1  'x, y, z'
loop_
 _atom_site_type_symbol
 _atom_site_label
 _atom_site_symmetry_multiplicity
 _atom_site_fract_x
 _atom_site_fract_y
 _atom_site_fract_z
 _atom_site_occupancy
  Nb  Nb0  1  0.98525440  0.67137530  -0.00000017  1
  Nb  Nb1  1  0.48516515  0.32864176  -0.00000009  1
  Nb  Nb2  1  0.98513038  0.17128491  0.50000018  1
  Nb  Nb3  1  0.48501868  0.82850123  0.50000006  1
  Zn  Zn4  1  0.97501801  0.16261033  0.17143689  1
  Zn  Zn5  1  0.97501857  0.16261054  0.82856300  1
  Zn  Zn6  1  0.47505618  0.83739226  0.82854854  1
  Zn  Zn7  1  0.47505586  0.83739229  0.17145139  1
  Zn  Zn8  1  0.97492083  0.66256473  0.32851502  1
  Zn  Zn9  1  0.97492069  0.66256474  0.67148497  1
  Zn  Zn10  1  0.47501104  0.33730992  0.32853333  1
  Zn  Zn11  1  0.47501112  0.33731000  0.67146668  1
  N  N12  1  0.09884932  0.83166498  0.16076589  1
  N  N13  1  0.09884928  0.83166477  0.83923450  1
  N  N14  1  0.11412443  0.34280988  0.00000015  1
  N  N15  1  0.59884311  0.16852349  0.16075792  1
  N  N16  1  0.59884328  0.16852366  0.83924239  1
  N  N17  1  0.61416870  0.65732716  0.00000016  1
  N  N18  1  0.09875839  0.33160090  0.33924388  1
  N  N19  1  0.09875821  0.33160054  0.66075580  1
  N  N20  1  0.59875069  0.66847220  0.33921422  1
  N  N21  1  0.59875056  0.66847247  0.66078551  1
  N  N22  1  0.11396394  0.84270774  0.49999986  1
  N  N23  1  0.61400312  0.15717889  0.49999982  1
