# generated using pymatgen
data_NbZn2N3
_symmetry_space_group_name_H-M   'P 1'
_cell_length_a   5.45932959
_cell_length_b   5.81812429
_cell_length_c   9.91814542
_cell_angle_alpha   89.99999593
_cell_angle_beta   89.99998706
_cell_angle_gamma   90.00003664
_symmetry_Int_Tables_number   1
_chemical_formula_structural   NbZn2N3
_chemical_formula_sum   'Nb4 Zn8 N12'
_cell_volume   315.03062918
_cell_formula_units_Z   4
loop_
 _symmetry_equiv_pos_site_id
 _symmetry_equiv_pos_as_xyz
  1  'x, y, z'
loop_
 _atom_site_type_symbol
 _atom_site_label
 _atom_site_symmetry_multiplicity
 _atom_site_fract_x
 _atom_site_fract_y
 _atom_site_fract_z
 _atom_site_occupancy
  Nb  Nb0  1  0.00683990  0.67152639  0.00000017  1
  Nb  Nb1  1  0.50683989  0.32847362  0.00000010  1
  Nb  Nb2  1  0.00683996  0.17152648  0.49999988  1
  Nb  Nb3  1  0.50683992  0.82847356  0.49999988  1
  Zn  Zn4  1  0.99675221  0.16260306  0.17153017  1
  Zn  Zn5  1  0.99675207  0.16260289  0.82846978  1
  Zn  Zn6  1  0.49675210  0.83739715  0.82846978  1
  Zn  Zn7  1  0.49675220  0.83739711  0.17153018  1
  Zn  Zn8  1  0.99675211  0.66260305  0.32846983  1
  Zn  Zn9  1  0.99675217  0.66260294  0.67153021  1
  Zn  Zn10  1  0.49675213  0.33739709  0.32846982  1
  Zn  Zn11  1  0.49675216  0.33739719  0.67153022  1
  N  N12  1  0.11996945  0.83168888  0.16078368  1
  N  N13  1  0.11996940  0.83168879  0.83921637  1
  N  N14  1  0.13511945  0.34280589  0.00000004  1
  N  N15  1  0.61996944  0.16831135  0.16078368  1
  N  N16  1  0.61996936  0.16831139  0.83921638  1
  N  N17  1  0.63511950  0.65719426  0.00000005  1
  N  N18  1  0.11996941  0.33168887  0.33921634  1
  N  N19  1  0.11996940  0.33168879  0.66078362  1
  N  N20  1  0.61996941  0.66831134  0.33921631  1
  N  N21  1  0.61996940  0.66831142  0.66078360  1
  N  N22  1  0.13511941  0.84280588  0.49999995  1
  N  N23  1  0.63511946  0.15719425  0.49999994  1
