# generated using pymatgen
data_NbZn2N3
_symmetry_space_group_name_H-M   'P 1'
_cell_length_a   9.95983746
_cell_length_b   5.85951007
_cell_length_c   5.48782378
_cell_angle_alpha   90.56506806
_cell_angle_beta   89.99999924
_cell_angle_gamma   90.00000249
_symmetry_Int_Tables_number   1
_chemical_formula_structural   NbZn2N3
_chemical_formula_sum   'Nb4 Zn8 N12'
_cell_volume   320.25254617
_cell_formula_units_Z   4
loop_
 _symmetry_equiv_pos_site_id
 _symmetry_equiv_pos_as_xyz
  1  'x, y, z'
loop_
 _atom_site_type_symbol
 _atom_site_label
 _atom_site_symmetry_multiplicity
 _atom_site_fract_x
 _atom_site_fract_y
 _atom_site_fract_z
 _atom_site_occupancy
  Nb  Nb0  1  0.99999955  0.67239062  0.98528709  1
  Nb  Nb1  1  0.99999954  0.33035866  0.48392883  1
  Nb  Nb2  1  0.50000103  0.17266779  0.05806522  1
  Nb  Nb3  1  0.50000067  0.81424131  0.47814565  1
  Zn  Zn4  1  0.16870103  0.16196773  0.97429917  1
  Zn  Zn5  1  0.83129875  0.16196770  0.97429910  1
  Zn  Zn6  1  0.82948837  0.83794028  0.47415882  1
  Zn  Zn7  1  0.17051145  0.83794021  0.47415883  1
  Zn  Zn8  1  0.32600143  0.66614679  0.96966119  1
  Zn  Zn9  1  0.67399877  0.66614645  0.96966104  1
  Zn  Zn10  1  0.32557351  0.33740176  0.48802917  1
  Zn  Zn11  1  0.67442661  0.33740178  0.48802812  1
  N  N12  1  0.15931915  0.83516361  0.09749304  1
  N  N13  1  0.84068120  0.83516325  0.09749285  1
  N  N14  1  1.00000000  0.34639799  0.11440022  1
  N  N15  1  0.15893006  0.16852160  0.59766102  1
  N  N16  1  0.84107027  0.16852190  0.59766076  1
  N  N17  1  1.00000001  0.65683155  0.61493716  1
  N  N18  1  0.33476985  0.33884426  0.08582605  1
  N  N19  1  0.66522926  0.33884356  0.08582597  1
  N  N20  1  0.33537082  0.66813778  0.59651268  1
  N  N21  1  0.66462877  0.66813809  0.59651232  1
  N  N22  1  0.49999992  0.82891997  0.10623875  1
  N  N23  1  0.49999998  0.14994539  0.54073785  1
