# generated using pymatgen
data_NbZn2N3
_symmetry_space_group_name_H-M   'P 1'
_cell_length_a   5.45676712
_cell_length_b   5.81971445
_cell_length_c   9.91747321
_cell_angle_alpha   89.99998002
_cell_angle_beta   89.99999460
_cell_angle_gamma   90.00000089
_symmetry_Int_Tables_number   1
_chemical_formula_structural   NbZn2N3
_chemical_formula_sum   'Nb4 Zn8 N12'
_cell_volume   314.94747530
_cell_formula_units_Z   4
loop_
 _symmetry_equiv_pos_site_id
 _symmetry_equiv_pos_as_xyz
  1  'x, y, z'
loop_
 _atom_site_type_symbol
 _atom_site_label
 _atom_site_symmetry_multiplicity
 _atom_site_fract_x
 _atom_site_fract_y
 _atom_site_fract_z
 _atom_site_occupancy
  Nb  Nb0  1  0.01112142  0.67147362  0.00000025  1
  Nb  Nb1  1  0.51112135  0.32852619  0.99999963  1
  Nb  Nb2  1  0.01112145  0.17147498  0.49999983  1
  Nb  Nb3  1  0.51112165  0.82852534  0.50000002  1
  Zn  Zn4  1  0.00106567  0.16244752  0.17152958  1
  Zn  Zn5  1  0.00106589  0.16244741  0.82847060  1
  Zn  Zn6  1  0.50106621  0.83755184  0.82847076  1
  Zn  Zn7  1  0.50106585  0.83755231  0.17152932  1
  Zn  Zn8  1  0.00106642  0.66244980  0.32847147  1
  Zn  Zn9  1  0.00106587  0.66244787  0.67152912  1
  Zn  Zn10  1  0.50106572  0.33755216  0.32847073  1
  Zn  Zn11  1  0.50106587  0.33755090  0.67152888  1
  N  N12  1  0.12420052  0.83163330  0.16080793  1
  N  N13  1  0.12420034  0.83163268  0.83919155  1
  N  N14  1  0.13927309  0.34276370  0.99999984  1
  N  N15  1  0.62419999  0.16836671  0.16080826  1
  N  N16  1  0.62420048  0.16836678  0.83919183  1
  N  N17  1  0.63927321  0.65723640  0.00000012  1
  N  N18  1  0.12419976  0.33163420  0.33919186  1
  N  N19  1  0.12419982  0.33163311  0.66080810  1
  N  N20  1  0.62420003  0.66836685  0.33919202  1
  N  N21  1  0.62420020  0.66836635  0.66080820  1
  N  N22  1  0.13927313  0.84276375  0.50000026  1
  N  N23  1  0.63927299  0.15723606  0.49999983  1
