# generated using pymatgen
data_NbZn2N3
_symmetry_space_group_name_H-M   'P 1'
_cell_length_a   9.97109526
_cell_length_b   5.88002026
_cell_length_c   5.52852124
_cell_angle_alpha   89.98338011
_cell_angle_beta   89.77336806
_cell_angle_gamma   90.16946309
_symmetry_Int_Tables_number   1
_chemical_formula_structural   NbZn2N3
_chemical_formula_sum   'Nb4 Zn8 N12'
_cell_volume   324.13457119
_cell_formula_units_Z   4
loop_
 _symmetry_equiv_pos_site_id
 _symmetry_equiv_pos_as_xyz
  1  'x, y, z'
loop_
 _atom_site_type_symbol
 _atom_site_label
 _atom_site_symmetry_multiplicity
 _atom_site_fract_x
 _atom_site_fract_y
 _atom_site_fract_z
 _atom_site_occupancy
  Nb  Nb0  1  0.00014502  0.66987626  0.97881571  1
  Nb  Nb1  1  0.00028737  0.32840970  0.47933382  1
  Nb  Nb2  1  0.50210665  0.17267390  0.12421173  1
  Nb  Nb3  1  0.49993693  0.83289137  0.62736444  1
  Zn  Zn4  1  0.17218374  0.16167787  0.96472746  1
  Zn  Zn5  1  0.83383750  0.15999160  0.97555222  1
  Zn  Zn6  1  0.83060095  0.83576718  0.46899737  1
  Zn  Zn7  1  0.17106002  0.83897116  0.46532891  1
  Zn  Zn8  1  0.31912052  0.65722847  0.97592545  1
  Zn  Zn9  1  0.67799718  0.66409204  0.99336154  1
  Zn  Zn10  1  0.31983607  0.34446972  0.47298082  1
  Zn  Zn11  1  0.67262717  0.33405836  0.56318657  1
  N  N12  1  0.15792231  0.83515030  0.09158832  1
  N  N13  1  0.84237534  0.83399194  0.09539865  1
  N  N14  1  0.00052667  0.34623343  0.11105499  1
  N  N15  1  0.15907393  0.16549226  0.59138876  1
  N  N16  1  0.84412429  0.16080059  0.59452321  1
  N  N17  1  0.99994929  0.65223695  0.61123998  1
  N  N18  1  0.33423347  0.33708446  0.08130345  1
  N  N19  1  0.66193526  0.33251256  0.03186847  1
  N  N20  1  0.33384545  0.66498178  0.58065227  1
  N  N21  1  0.66430048  0.66718513  0.57466758  1
  N  N22  1  0.49935692  0.85085134  0.99806294  1
  N  N23  1  0.50261747  0.15337145  0.49530403  1
