# generated using pymatgen
data_NbZn2N3
_symmetry_space_group_name_H-M   'P 1'
_cell_length_a   9.92000609
_cell_length_b   5.87224637
_cell_length_c   5.55671037
_cell_angle_alpha   89.95968233
_cell_angle_beta   89.26010653
_cell_angle_gamma   89.82951157
_symmetry_Int_Tables_number   1
_chemical_formula_structural   NbZn2N3
_chemical_formula_sum   'Nb4 Zn8 N12'
_cell_volume   323.66499836
_cell_formula_units_Z   4
loop_
 _symmetry_equiv_pos_site_id
 _symmetry_equiv_pos_as_xyz
  1  'x, y, z'
loop_
 _atom_site_type_symbol
 _atom_site_label
 _atom_site_symmetry_multiplicity
 _atom_site_fract_x
 _atom_site_fract_y
 _atom_site_fract_z
 _atom_site_occupancy
  Nb  Nb0  1  0.99971677  0.66857796  0.97924476  1
  Nb  Nb1  1  0.99945070  0.32851750  0.47977263  1
  Nb  Nb2  1  0.50107638  0.17404731  0.10645149  1
  Nb  Nb3  1  0.50353566  0.83453006  0.61040460  1
  Zn  Zn4  1  0.16570194  0.15685253  0.97043067  1
  Zn  Zn5  1  0.83419502  0.15877975  0.97823638  1
  Zn  Zn6  1  0.83552027  0.84069779  0.47878630  1
  Zn  Zn7  1  0.17027254  0.83727533  0.46255764  1
  Zn  Zn8  1  0.32427193  0.66405119  0.98005432  1
  Zn  Zn9  1  0.66588314  0.65925207  0.11270553  1
  Zn  Zn10  1  0.33051118  0.33438232  0.56894765  1
  Zn  Zn11  1  0.66553003  0.34317395  0.61125989  1
  N  N12  1  0.15958324  0.83118015  0.09122081  1
  N  N13  1  0.84436846  0.83560661  0.09640889  1
  N  N14  1  0.99899707  0.34464237  0.11177787  1
  N  N15  1  0.15689103  0.16162016  0.58960985  1
  N  N16  1  0.84273605  0.16383647  0.59574109  1
  N  N17  1  0.99959597  0.65261034  0.61238628  1
  N  N18  1  0.34014931  0.32855026  0.00814123  1
  N  N19  1  0.65854476  0.33934532  0.99069877  1
  N  N20  1  0.33738768  0.67103331  0.56592748  1
  N  N21  1  0.65830323  0.66395466  0.49133597  1
  N  N22  1  0.50626562  0.85020190  0.97898398  1
  N  N23  1  0.50151198  0.15728052  0.47574618  1
