# generated using pymatgen
data_NbZn2N3
_symmetry_space_group_name_H-M   'P 1'
_cell_length_a   9.97657088
_cell_length_b   5.87660269
_cell_length_c   5.52339772
_cell_angle_alpha   90.00007047
_cell_angle_beta   90.12771969
_cell_angle_gamma   89.86551858
_symmetry_Int_Tables_number   1
_chemical_formula_structural   NbZn2N3
_chemical_formula_sum   'Nb4 Zn8 N12'
_cell_volume   323.82596114
_cell_formula_units_Z   4
loop_
 _symmetry_equiv_pos_site_id
 _symmetry_equiv_pos_as_xyz
  1  'x, y, z'
loop_
 _atom_site_type_symbol
 _atom_site_label
 _atom_site_symmetry_multiplicity
 _atom_site_fract_x
 _atom_site_fract_y
 _atom_site_fract_z
 _atom_site_occupancy
  Nb  Nb0  1  -0.00008413  0.67032963  0.97902745  1
  Nb  Nb1  1  -0.00004967  0.32855359  0.47921649  1
  Nb  Nb2  1  -0.50131850  0.17143614  0.12772584  1
  Nb  Nb3  1  -0.49993200  0.83169060  0.62956831  1
  Zn  Zn4  1  -0.17188778  0.16205175  0.96558154  1
  Zn  Zn5  1  -0.83170179  0.16104386  0.97242363  1
  Zn  Zn6  1  -0.83020970  0.83606716  0.46842337  1
  Zn  Zn7  1  -0.17093244  0.83883708  0.46576958  1
  Zn  Zn8  1  -0.31898483  0.65741022  0.97700745  1
  Zn  Zn9  1  -0.67908063  0.66112372  0.98714386  1
  Zn  Zn10  1  -0.31931482  0.34425818  0.47466854  1
  Zn  Zn11  1  -0.67596325  0.33667866  0.51996384  1
  N  N12  1  -0.15801611  0.83545620  0.09208868  1
  N  N13  1  -0.84234855  0.83442265  0.09473632  1
  N  N14  1  -0.00054785  0.34639886  0.11116790  1
  N  N15  1  -0.15853619  0.16547721  0.59200137  1
  N  N16  1  -0.84289847  0.16207388  0.59477015  1
  N  N17  1  -0.00003714  0.65248482  0.61100508  1
  N  N18  1  -0.33425014  0.33721580  0.08231699  1
  N  N19  1  -0.66428472  0.33430153  0.06183737  1
  N  N20  1  -0.33373146  0.66490681  0.58180461  1
  N  N21  1  -0.66520652  0.66542724  0.57965904  1
  N  N22  1  -0.49972542  0.85030872  0.99951457  1
  N  N23  1  -0.50095791  0.15204555  0.49941672  1
