# generated using pymatgen
data_NbZn2N3
_symmetry_space_group_name_H-M   'P 1'
_cell_length_a   9.91444978
_cell_length_b   5.81484129
_cell_length_c   5.46701712
_cell_angle_alpha   90.00006823
_cell_angle_beta   89.99998033
_cell_angle_gamma   89.99999737
_symmetry_Int_Tables_number   1
_chemical_formula_structural   NbZn2N3
_chemical_formula_sum   'Nb4 Zn8 N12'
_cell_volume   315.17874098
_cell_formula_units_Z   4
loop_
 _symmetry_equiv_pos_site_id
 _symmetry_equiv_pos_as_xyz
  1  'x, y, z'
loop_
 _atom_site_type_symbol
 _atom_site_label
 _atom_site_symmetry_multiplicity
 _atom_site_fract_x
 _atom_site_fract_y
 _atom_site_fract_z
 _atom_site_occupancy
  Nb  Nb0  1  0.00000185  0.67143344  0.99387302  1
  Nb  Nb1  1  0.00000182  0.32857432  0.49387296  1
  Nb  Nb2  1  0.49999822  0.17143318  0.99387284  1
  Nb  Nb3  1  0.49999829  0.82857452  0.49387284  1
  Zn  Zn4  1  0.17148885  0.16260146  0.98373023  1
  Zn  Zn5  1  0.82851154  0.16260204  0.98373048  1
  Zn  Zn6  1  0.82851150  0.83740577  0.48373027  1
  Zn  Zn7  1  0.17148885  0.83740624  0.48373000  1
  Zn  Zn8  1  0.32851114  0.66260140  0.98373000  1
  Zn  Zn9  1  0.67148844  0.66260204  0.98373044  1
  Zn  Zn10  1  0.32851115  0.33740619  0.48372989  1
  Zn  Zn11  1  0.67148848  0.33740579  0.48373027  1
  N  N12  1  0.16077486  0.83159932  0.10732304  1
  N  N13  1  0.83922394  0.83160063  0.10732412  1
  N  N14  1  -0.00000003  0.34275188  0.12254468  1
  N  N15  1  0.16077486  0.16840843  0.60732300  1
  N  N16  1  0.83922395  0.16840717  0.60732411  1
  N  N17  1  -0.00000003  0.65725571  0.62254468  1
  N  N18  1  0.33922509  0.33159947  0.10732311  1
  N  N19  1  0.66077613  0.33160070  0.10732412  1
  N  N20  1  0.33922503  0.66840825  0.60732310  1
  N  N21  1  0.66077607  0.66840715  0.60732410  1
  N  N22  1  0.49999997  0.84275188  0.12254459  1
  N  N23  1  0.50000000  0.15725570  0.62254460  1
