# generated using pymatgen
data_NbZn2N3
_symmetry_space_group_name_H-M   'P 1'
_cell_length_a   9.90711910
_cell_length_b   5.84483340
_cell_length_c   5.57466162
_cell_angle_alpha   90.00057793
_cell_angle_beta   90.00011925
_cell_angle_gamma   89.99998167
_symmetry_Int_Tables_number   1
_chemical_formula_structural   NbZn2N3
_chemical_formula_sum   'Nb4 Zn8 N12'
_cell_volume   322.80334896
_cell_formula_units_Z   4
loop_
 _symmetry_equiv_pos_site_id
 _symmetry_equiv_pos_as_xyz
  1  'x, y, z'
loop_
 _atom_site_type_symbol
 _atom_site_label
 _atom_site_symmetry_multiplicity
 _atom_site_fract_x
 _atom_site_fract_y
 _atom_site_fract_z
 _atom_site_occupancy
  Nb  Nb0  1  0.00000015  0.66956790  0.97068725  1
  Nb  Nb1  1  0.00000016  0.33043238  0.47068627  1
  Nb  Nb2  1  -0.50000005  0.16956992  0.08977785  1
  Nb  Nb3  1  -0.50000019  0.83043248  0.58977685  1
  Zn  Zn4  1  -0.16505051  0.15771177  0.96510084  1
  Zn  Zn5  1  -0.83494917  0.15771172  0.96510150  1
  Zn  Zn6  1  -0.83494956  0.84228868  0.46510204  1
  Zn  Zn7  1  -0.16505045  0.84228864  0.46510138  1
  Zn  Zn8  1  -0.33494739  0.65771263  0.09534852  1
  Zn  Zn9  1  -0.66505268  0.65771268  0.09534925  1
  Zn  Zn10  1  -0.33494718  0.34228966  0.59534948  1
  Zn  Zn11  1  -0.66505291  0.34228962  0.59534979  1
  N  N12  1  -0.15739856  0.83407482  0.08460811  1
  N  N13  1  -0.84260189  0.83407468  0.08460840  1
  N  N14  1  -0.00000005  0.34460415  0.10358634  1
  N  N15  1  -0.15739823  0.16592748  0.58460816  1
  N  N16  1  -0.84260211  0.16592773  0.58460849  1
  N  N17  1  -0.00000010  0.65539773  0.60358692  1
  N  N18  1  -0.34260102  0.33407115  0.97585371  1
  N  N19  1  -0.65739859  0.33407118  0.97585391  1
  N  N20  1  -0.34260078  0.66592908  0.47585370  1
  N  N21  1  -0.65739892  0.66592918  0.47585399  1
  N  N22  1  -0.50000001  0.84460406  0.95687950  1
  N  N23  1  -0.49999994  0.15539676  0.45688012  1
