# generated using pymatgen
data_NbZn2N3
_symmetry_space_group_name_H-M   'P 1'
_cell_length_a   10.00400566
_cell_length_b   5.88124434
_cell_length_c   5.50812151
_cell_angle_alpha   90.28582126
_cell_angle_beta   89.99996848
_cell_angle_gamma   89.99999044
_symmetry_Int_Tables_number   1
_chemical_formula_structural   NbZn2N3
_chemical_formula_sum   'Nb4 Zn8 N12'
_cell_volume   324.07181387
_cell_formula_units_Z   4
loop_
 _symmetry_equiv_pos_site_id
 _symmetry_equiv_pos_as_xyz
  1  'x, y, z'
loop_
 _atom_site_type_symbol
 _atom_site_label
 _atom_site_symmetry_multiplicity
 _atom_site_fract_x
 _atom_site_fract_y
 _atom_site_fract_z
 _atom_site_occupancy
  Nb  Nb0  1  0.00000008  0.66951096  0.97977008  1
  Nb  Nb1  1  -0.00000002  0.32814709  0.47829543  1
  Nb  Nb2  1  -0.49999992  0.17571969  0.12956161  1
  Nb  Nb3  1  -0.50000015  0.82478631  0.55977689  1
  Zn  Zn4  1  -0.17049381  0.16029565  0.96859757  1
  Zn  Zn5  1  -0.82950604  0.16029534  0.96859724  1
  Zn  Zn6  1  -0.83177887  0.83723621  0.46703050  1
  Zn  Zn7  1  -0.16822105  0.83723623  0.46703077  1
  Zn  Zn8  1  -0.32693639  0.66383794  0.98396473  1
  Zn  Zn9  1  -0.67306347  0.66383815  0.98396430  1
  Zn  Zn10  1  -0.31690761  0.34154112  0.47991788  1
  Zn  Zn11  1  -0.68309255  0.34154155  0.47991872  1
  N  N12  1  -0.15831626  0.83301821  0.09206521  1
  N  N13  1  -0.84168387  0.83301802  0.09206498  1
  N  N14  1  -1.00000000  0.34543316  0.11058759  1
  N  N15  1  -0.15745252  0.16391639  0.59289225  1
  N  N16  1  -0.84254754  0.16391626  0.59289220  1
  N  N17  1  -1.00000000  0.65277685  0.61020454  1
  N  N18  1  -0.33167404  0.33685306  0.08145639  1
  N  N19  1  -0.66832602  0.33685282  0.08145630  1
  N  N20  1  -0.33295494  0.66491893  0.58599111  1
  N  N21  1  -0.66704493  0.66491903  0.58599101  1
  N  N22  1  -0.50000005  0.83931960  0.07143714  1
  N  N23  1  -0.50000003  0.16107142  0.50555643  1
