# generated using pymatgen
data_NbZn2N3
_symmetry_space_group_name_H-M   'P 1'
_cell_length_a   9.91189698
_cell_length_b   5.81323615
_cell_length_c   5.47214611
_cell_angle_alpha   90.05054055
_cell_angle_beta   89.99995608
_cell_angle_gamma   90.00000252
_symmetry_Int_Tables_number   1
_chemical_formula_structural   NbZn2N3
_chemical_formula_sum   'Nb4 Zn8 N12'
_cell_volume   315.30601913
_cell_formula_units_Z   4
loop_
 _symmetry_equiv_pos_site_id
 _symmetry_equiv_pos_as_xyz
  1  'x, y, z'
loop_
 _atom_site_type_symbol
 _atom_site_label
 _atom_site_symmetry_multiplicity
 _atom_site_fract_x
 _atom_site_fract_y
 _atom_site_fract_z
 _atom_site_occupancy
  Nb  Nb0  1  0.00000017  0.67137530  0.98525440  1
  Nb  Nb1  1  0.00000009  0.32864176  0.48516515  1
  Nb  Nb2  1  -0.50000018  0.17128491  0.98513038  1
  Nb  Nb3  1  -0.50000006  0.82850123  0.48501868  1
  Zn  Zn4  1  -0.17143689  0.16261033  0.97501801  1
  Zn  Zn5  1  -0.82856300  0.16261054  0.97501857  1
  Zn  Zn6  1  -0.82854854  0.83739226  0.47505618  1
  Zn  Zn7  1  -0.17145139  0.83739229  0.47505586  1
  Zn  Zn8  1  -0.32851502  0.66256473  0.97492083  1
  Zn  Zn9  1  -0.67148497  0.66256474  0.97492069  1
  Zn  Zn10  1  -0.32853333  0.33730992  0.47501104  1
  Zn  Zn11  1  -0.67146668  0.33731000  0.47501112  1
  N  N12  1  -0.16076589  0.83166498  0.09884932  1
  N  N13  1  -0.83923450  0.83166477  0.09884928  1
  N  N14  1  -0.00000015  0.34280988  0.11412443  1
  N  N15  1  -0.16075792  0.16852349  0.59884311  1
  N  N16  1  -0.83924239  0.16852366  0.59884328  1
  N  N17  1  -0.00000016  0.65732716  0.61416870  1
  N  N18  1  -0.33924388  0.33160090  0.09875839  1
  N  N19  1  -0.66075580  0.33160054  0.09875821  1
  N  N20  1  -0.33921422  0.66847220  0.59875069  1
  N  N21  1  -0.66078551  0.66847247  0.59875056  1
  N  N22  1  -0.49999986  0.84270774  0.11396394  1
  N  N23  1  -0.49999982  0.15717889  0.61400312  1
