# generated using pymatgen
data_NbZn2N3
_symmetry_space_group_name_H-M   'P 1'
_cell_length_a   9.91871743
_cell_length_b   5.87092077
_cell_length_c   5.55927031
_cell_angle_alpha   89.93854997
_cell_angle_beta   90.55902120
_cell_angle_gamma   90.12828731
_symmetry_Int_Tables_number   1
_chemical_formula_structural   NbZn2N3
_chemical_formula_sum   'Nb4 Zn8 N12'
_cell_volume   323.71105355
_cell_formula_units_Z   4
loop_
 _symmetry_equiv_pos_site_id
 _symmetry_equiv_pos_as_xyz
  1  'x, y, z'
loop_
 _atom_site_type_symbol
 _atom_site_label
 _atom_site_symmetry_multiplicity
 _atom_site_fract_x
 _atom_site_fract_y
 _atom_site_fract_z
 _atom_site_occupancy
  Nb  Nb0  1  -0.99982740  0.66820017  0.97935383  1
  Nb  Nb1  1  -0.99935429  0.32823103  0.48023879  1
  Nb  Nb2  1  -0.50048072  0.17467929  0.10471324  1
  Nb  Nb3  1  -0.50348429  0.83497781  0.60806132  1
  Zn  Zn4  1  -0.16388003  0.15664761  0.97277004  1
  Zn  Zn5  1  -0.83390725  0.15802229  0.97696586  1
  Zn  Zn6  1  -0.83553715  0.84041590  0.47851345  1
  Zn  Zn7  1  -0.17016701  0.83739767  0.46447790  1
  Zn  Zn8  1  -0.32574148  0.66652358  0.98820691  1
  Zn  Zn9  1  -0.66602742  0.65876783  0.11176597  1
  Zn  Zn10  1  -0.33251660  0.33344034  0.59075817  1
  Zn  Zn11  1  -0.66546747  0.34295977  0.60859584  1
  N  N12  1  -0.15974055  0.83112702  0.09236260  1
  N  N13  1  -0.84452781  0.83499094  0.09578354  1
  N  N14  1  -0.99876819  0.34431192  0.11192223  1
  N  N15  1  -0.15615736  0.16143226  0.59010904  1
  N  N16  1  -0.84223979  0.16356892  0.59533863  1
  N  N17  1  -0.99974106  0.65253258  0.61291954  1
  N  N18  1  -0.34050395  0.32877867  0.99412035  1
  N  N19  1  -0.65812436  0.33849946  0.98920893  1
  N  N20  1  -0.33848205  0.67147138  0.56059166  1
  N  N21  1  -0.65830548  0.66391753  0.48978039  1
  N  N22  1  -0.50644316  0.85100080  0.97781823  1
  N  N23  1  -0.50057513  0.15810506  0.47245383  1
