# generated using pymatgen
data_NbZn2N3
_symmetry_space_group_name_H-M   'P 1'
_cell_length_a   9.91324661
_cell_length_b   5.81379349
_cell_length_c   5.46957972
_cell_angle_alpha   90.00190378
_cell_angle_beta   90.00002127
_cell_angle_gamma   89.99999851
_symmetry_Int_Tables_number   1
_chemical_formula_structural   NbZn2N3
_chemical_formula_sum   'Nb4 Zn8 N12'
_cell_volume   315.23139815
_cell_formula_units_Z   4
loop_
 _symmetry_equiv_pos_site_id
 _symmetry_equiv_pos_as_xyz
  1  'x, y, z'
loop_
 _atom_site_type_symbol
 _atom_site_label
 _atom_site_symmetry_multiplicity
 _atom_site_fract_x
 _atom_site_fract_y
 _atom_site_fract_z
 _atom_site_occupancy
  Nb  Nb0  1  0.99999876  0.67140642  0.98950133  1
  Nb  Nb1  1  0.99999886  0.32861141  0.48949769  1
  Nb  Nb2  1  0.50000119  0.17140484  0.98949873  1
  Nb  Nb3  1  0.50000099  0.82860926  0.48949490  1
  Zn  Zn4  1  0.17147318  0.16260430  0.97938333  1
  Zn  Zn5  1  0.82852656  0.16260436  0.97938359  1
  Zn  Zn6  1  0.82852616  0.83741336  0.47938488  1
  Zn  Zn7  1  0.17147361  0.83741327  0.47938504  1
  Zn  Zn8  1  0.32852618  0.66260359  0.97938198  1
  Zn  Zn9  1  0.67147403  0.66260328  0.97938155  1
  Zn  Zn10  1  0.32852629  0.33741185  0.47938333  1
  Zn  Zn11  1  0.67147389  0.33741205  0.47938314  1
  N  N12  1  0.16077127  0.83157431  0.10307338  1
  N  N13  1  0.83922962  0.83157357  0.10307264  1
  N  N14  1  1.00000006  0.34274340  0.11829531  1
  N  N15  1  0.16077121  0.16845043  0.60307294  1
  N  N16  1  0.83922955  0.16845109  0.60307240  1
  N  N17  1  1.00000007  0.65727852  0.61829688  1
  N  N18  1  0.33922907  0.33157336  0.10307163  1
  N  N19  1  0.66077014  0.33157248  0.10307096  1
  N  N20  1  0.33922868  0.66844936  0.60307136  1
  N  N21  1  0.66077066  0.66845002  0.60307060  1
  N  N22  1  0.49999995  0.84274188  0.11829233  1
  N  N23  1  0.49999993  0.15727636  0.61829386  1
