# generated using pymatgen
data_NbZn2N3
_symmetry_space_group_name_H-M   'P 1'
_cell_length_a   10.00412439
_cell_length_b   5.88153709
_cell_length_c   5.50556362
_cell_angle_alpha   90.29693581
_cell_angle_beta   89.99996373
_cell_angle_gamma   89.99998464
_symmetry_Int_Tables_number   1
_chemical_formula_structural   NbZn2N3
_chemical_formula_sum   'Nb4 Zn8 N12'
_cell_volume   323.94096853
_cell_formula_units_Z   4
loop_
 _symmetry_equiv_pos_site_id
 _symmetry_equiv_pos_as_xyz
  1  'x, y, z'
loop_
 _atom_site_type_symbol
 _atom_site_label
 _atom_site_symmetry_multiplicity
 _atom_site_fract_x
 _atom_site_fract_y
 _atom_site_fract_z
 _atom_site_occupancy
  Nb  Nb0  1  -0.00000007  0.66960771  0.97995822  1
  Nb  Nb1  1  -0.00000013  0.32823886  0.47832150  1
  Nb  Nb2  1  -0.49999995  0.17711201  0.12922579  1
  Nb  Nb3  1  -0.49999992  0.82202023  0.53942091  1
  Zn  Zn4  1  -0.17043121  0.16024676  0.96873002  1
  Zn  Zn5  1  -0.82956865  0.16024655  0.96872972  1
  Zn  Zn6  1  -0.83175320  0.83718645  0.46729100  1
  Zn  Zn7  1  -0.16824677  0.83718667  0.46729128  1
  Zn  Zn8  1  -0.32716972  0.66419096  0.98298198  1
  Zn  Zn9  1  -0.67283011  0.66419127  0.98298135  1
  Zn  Zn10  1  -0.31690023  0.34166817  0.48046907  1
  Zn  Zn11  1  -0.68309988  0.34166821  0.48046920  1
  N  N12  1  -0.15833174  0.83303782  0.09218861  1
  N  N13  1  -0.84166826  0.83303772  0.09218845  1
  N  N14  1  0.00000003  0.34541068  0.11055481  1
  N  N15  1  -0.15746738  0.16406217  0.59290793  1
  N  N16  1  -0.84253260  0.16406196  0.59290789  1
  N  N17  1  0.00000002  0.65286433  0.61019441  1
  N  N18  1  -0.33152620  0.33705662  0.08167750  1
  N  N19  1  -0.66847388  0.33705639  0.08167744  1
  N  N20  1  -0.33297919  0.66544621  0.58844989  1
  N  N21  1  -0.66702085  0.66544620  0.58844985  1
  N  N22  1  -0.50000007  0.83813905  0.08556521  1
  N  N23  1  -0.50000005  0.16081701  0.50638886  1
