# generated using pymatgen
data_NbZn2N3
_symmetry_space_group_name_H-M   'P 1'
_cell_length_a   9.90323811
_cell_length_b   5.84175732
_cell_length_c   5.58235182
_cell_angle_alpha   90.00020979
_cell_angle_beta   90.00101282
_cell_angle_gamma   89.99997942
_symmetry_Int_Tables_number   1
_chemical_formula_structural   NbZn2N3
_chemical_formula_sum   'Nb4 Zn8 N12'
_cell_volume   322.95196871
_cell_formula_units_Z   4
loop_
 _symmetry_equiv_pos_site_id
 _symmetry_equiv_pos_as_xyz
  1  'x, y, z'
loop_
 _atom_site_type_symbol
 _atom_site_label
 _atom_site_symmetry_multiplicity
 _atom_site_fract_x
 _atom_site_fract_y
 _atom_site_fract_z
 _atom_site_occupancy
  Nb  Nb0  1  -0.00000454  0.66932362  0.95133343  1
  Nb  Nb1  1  -0.00000460  0.33053272  0.45132317  1
  Nb  Nb2  1  -0.49999491  0.16947420  0.07093315  1
  Nb  Nb3  1  -0.49999591  0.83067068  0.57092383  1
  Zn  Zn4  1  -0.16498280  0.15750037  0.94563353  1
  Zn  Zn5  1  -0.83501807  0.15750443  0.94563678  1
  Zn  Zn6  1  -0.83504103  0.84239964  0.44565037  1
  Zn  Zn7  1  -0.16496265  0.84240348  0.44565081  1
  Zn  Zn8  1  -0.33503578  0.65759736  0.07660754  1
  Zn  Zn9  1  -0.66496220  0.65760060  0.07660837  1
  Zn  Zn10  1  -0.33500548  0.34249950  0.57660110  1
  Zn  Zn11  1  -0.66499199  0.34249406  0.57660467  1
  N  N12  1  -0.15736683  0.83387344  0.06559126  1
  N  N13  1  -0.84263112  0.83387629  0.06559340  1
  N  N14  1  -0.00000070  0.34442958  0.08457385  1
  N  N15  1  -0.15738474  0.16603715  0.56560028  1
  N  N16  1  -0.84261392  0.16603313  0.56560258  1
  N  N17  1  -0.00000104  0.65541932  0.58457273  1
  N  N18  1  -0.34260968  0.33395900  0.95665769  1
  N  N19  1  -0.65739080  0.33396359  0.95665556  1
  N  N20  1  -0.34263181  0.66613029  0.45664923  1
  N  N21  1  -0.65737061  0.66612596  0.45664971  1
  N  N22  1  -0.49999940  0.84458737  0.93768359  1
  N  N23  1  -0.49999940  0.15556405  0.43769084  1
