# generated using pymatgen
data_NbZn2N3
_symmetry_space_group_name_H-M   'P 1'
_cell_length_a   9.98052710
_cell_length_b   5.87306045
_cell_length_c   5.52083564
_cell_angle_alpha   90.00592510
_cell_angle_beta   90.08164066
_cell_angle_gamma   89.90556983
_symmetry_Int_Tables_number   1
_chemical_formula_structural   NbZn2N3
_chemical_formula_sum   'Nb4 Zn8 N12'
_cell_volume   323.60985123
_cell_formula_units_Z   4
loop_
 _symmetry_equiv_pos_site_id
 _symmetry_equiv_pos_as_xyz
  1  'x, y, z'
loop_
 _atom_site_type_symbol
 _atom_site_label
 _atom_site_symmetry_multiplicity
 _atom_site_fract_x
 _atom_site_fract_y
 _atom_site_fract_z
 _atom_site_occupancy
  Nb  Nb0  1  -0.00003716  0.67059110  0.97920167  1
  Nb  Nb1  1  -0.99989685  0.32861705  0.47932110  1
  Nb  Nb2  1  -0.50075767  0.17063630  0.12980122  1
  Nb  Nb3  1  -0.49999839  0.83105177  0.63059355  1
  Zn  Zn4  1  -0.17155223  0.16215609  0.96609867  1
  Zn  Zn5  1  -0.83063681  0.16156748  0.97057093  1
  Zn  Zn6  1  -0.82983283  0.83654025  0.46831254  1
  Zn  Zn7  1  -0.17085024  0.83860984  0.46622277  1
  Zn  Zn8  1  -0.31888665  0.65745767  0.97749644  1
  Zn  Zn9  1  -0.67978120  0.65938314  0.98380697  1
  Zn  Zn10  1  -0.31901802  0.34391450  0.47599032  1
  Zn  Zn11  1  -0.67807092  0.33888687  0.49842162  1
  N  N12  1  -0.15807215  0.83547781  0.09254572  1
  N  N13  1  -0.84222065  0.83465412  0.09448951  1
  N  N14  1  -0.00046810  0.34645673  0.11121791  1
  N  N15  1  -0.15829181  0.16533017  0.59251353  1
  N  N16  1  -0.84231139  0.16312045  0.59475903  1
  N  N17  1  -0.00005506  0.65277079  0.61106237  1
  N  N18  1  -0.33424951  0.33694712  0.08280636  1
  N  N19  1  -0.66558632  0.33535257  0.07570643  1
  N  N20  1  -0.33372782  0.66465817  0.58257807  1
  N  N21  1  -0.66561476  0.66441064  0.58216003  1
  N  N22  1  -0.49985992  0.85017091  0.00042781  1
  N  N23  1  -0.50022354  0.15123832  0.50073071  1
