# generated using pymatgen
data_NbZn2N3
_symmetry_space_group_name_H-M   'P 1'
_cell_length_a   5.54134492
_cell_length_b   5.87239501
_cell_length_c   9.94555025
_cell_angle_alpha   89.98236873
_cell_angle_beta   89.37028051
_cell_angle_gamma   90.02755302
_symmetry_Int_Tables_number   1
_chemical_formula_structural   NbZn2N3
_chemical_formula_sum   'Nb4 Zn8 N12'
_cell_volume   323.61821530
_cell_formula_units_Z   4
loop_
 _symmetry_equiv_pos_site_id
 _symmetry_equiv_pos_as_xyz
  1  'x, y, z'
loop_
 _atom_site_type_symbol
 _atom_site_label
 _atom_site_symmetry_multiplicity
 _atom_site_fract_x
 _atom_site_fract_y
 _atom_site_fract_z
 _atom_site_occupancy
  Nb  Nb0  1  0.97939754  0.66966189  0.00011209  1
  Nb  Nb1  1  0.48002521  0.32845005  0.00013349  1
  Nb  Nb2  1  0.11874645  0.17187291  0.50333865  1
  Nb  Nb3  1  0.61789584  0.83147519  0.50218475  1
  Zn  Zn4  1  0.96233644  0.15989643  0.17219610  1
  Zn  Zn5  1  0.97908990  0.15989550  0.83663393  1
  Zn  Zn6  1  0.47719263  0.83830908  0.83311244  1
  Zn  Zn7  1  0.46332325  0.83870348  0.17139060  1
  Zn  Zn8  1  0.96911893  0.65604493  0.32009347  1
  Zn  Zn9  1  0.07722725  0.66380664  0.67009424  1
  Zn  Zn10  1  0.46979252  0.34383826  0.32064711  1
  Zn  Zn11  1  0.61101989  0.33841482  0.66728105  1
  N  N12  1  0.09019445  0.83365442  0.15898716  1
  N  N13  1  0.09719706  0.83599901  0.84357306  1
  N  N14  1  0.11169349  0.34594778  0.00030686  1
  N  N15  1  0.59014933  0.16532183  0.15997826  1
  N  N16  1  0.59652177  0.16218517  0.84470407  1
  N  N17  1  0.61227918  0.65278506  0.99955444  1
  N  N18  1  0.07711904  0.33472156  0.33502295  1
  N  N19  1  0.99872856  0.33586195  0.65962720  1
  N  N20  1  0.57738819  0.66482104  0.33449474  1
  N  N21  1  0.51596682  0.66463736  0.65894739  1
  N  N22  1  0.98859956  0.85032554  0.50251408  1
  N  N23  1  0.48583540  0.15336996  0.50507185  1
