# generated using pymatgen
data_NbZn2N3
_symmetry_space_group_name_H-M   'P 1'
_cell_length_a   5.47754429
_cell_length_b   5.84255570
_cell_length_c   9.93620811
_cell_angle_alpha   90.00002426
_cell_angle_beta   90.00004638
_cell_angle_gamma   90.54924099
_symmetry_Int_Tables_number   1
_chemical_formula_structural   NbZn2N3
_chemical_formula_sum   'Nb4 Zn8 N12'
_cell_volume   317.97244366
_cell_formula_units_Z   4
loop_
 _symmetry_equiv_pos_site_id
 _symmetry_equiv_pos_as_xyz
  1  'x, y, z'
loop_
 _atom_site_type_symbol
 _atom_site_label
 _atom_site_symmetry_multiplicity
 _atom_site_fract_x
 _atom_site_fract_y
 _atom_site_fract_z
 _atom_site_occupancy
  Nb  Nb0  1  0.98517565  0.67212869  1.00000529  1
  Nb  Nb1  1  0.48423598  0.32979423  1.00000583  1
  Nb  Nb2  1  0.99289411  0.17014049  0.49999651  1
  Nb  Nb3  1  0.48084473  0.82173786  0.49999188  1
  Zn  Zn4  1  0.97444819  0.16259365  0.16963474  1
  Zn  Zn5  1  0.97444885  0.16259509  0.83036587  1
  Zn  Zn6  1  0.47431307  0.83792063  0.82929710  1
  Zn  Zn7  1  0.47431287  0.83792137  0.17070430  1
  Zn  Zn8  1  0.97107768  0.66471312  0.32664623  1
  Zn  Zn9  1  0.97107863  0.66471305  0.67335281  1
  Zn  Zn10  1  0.48175601  0.33607930  0.32734546  1
  Zn  Zn11  1  0.48175545  0.33607891  0.67265370  1
  N  N12  1  0.09775948  0.83448240  0.15979431  1
  N  N13  1  0.09776211  0.83448645  0.84020143  1
  N  N14  1  0.11383283  0.34554998  0.99999929  1
  N  N15  1  0.59785941  0.16851377  0.15931604  1
  N  N16  1  0.59786221  0.16850937  0.84067938  1
  N  N17  1  0.61458524  0.65740257  0.99999921  1
  N  N18  1  0.09263501  0.33412991  0.33848429  1
  N  N19  1  0.09263626  0.33413259  0.66151877  1
  N  N20  1  0.59621420  0.66836589  0.33711597  1
  N  N21  1  0.59621753  0.66836052  0.66289003  1
  N  N22  1  0.10899719  0.83792300  0.50000084  1
  N  N23  1  0.59631819  0.15172717  0.50000074  1
