# generated using pymatgen
data_NbZn2N3
_symmetry_space_group_name_H-M   'P 1'
_cell_length_a   9.90504059
_cell_length_b   5.84271545
_cell_length_c   5.57978837
_cell_angle_alpha   90.00023069
_cell_angle_beta   89.99999944
_cell_angle_gamma   90.00001590
_symmetry_Int_Tables_number   1
_chemical_formula_structural   NbZn2N3
_chemical_formula_sum   'Nb4 Zn8 N12'
_cell_volume   322.91537503
_cell_formula_units_Z   4
loop_
 _symmetry_equiv_pos_site_id
 _symmetry_equiv_pos_as_xyz
  1  'x, y, z'
loop_
 _atom_site_type_symbol
 _atom_site_label
 _atom_site_symmetry_multiplicity
 _atom_site_fract_x
 _atom_site_fract_y
 _atom_site_fract_z
 _atom_site_occupancy
  Nb  Nb0  1  0.99999999  0.66950441  0.95793712  1
  Nb  Nb1  1  1.00000001  0.33049600  0.45793671  1
  Nb  Nb2  1  0.49999998  0.16950609  0.07706019  1
  Nb  Nb3  1  0.50000000  0.83049513  0.57705983  1
  Zn  Zn4  1  0.16500729  0.15769377  0.95223776  1
  Zn  Zn5  1  0.83499267  0.15769366  0.95223799  1
  Zn  Zn6  1  0.83499283  0.84230666  0.45223809  1
  Zn  Zn7  1  0.16500719  0.84230654  0.45223794  1
  Zn  Zn8  1  0.33499070  0.65769532  0.08273812  1
  Zn  Zn9  1  0.66500925  0.65769518  0.08273839  1
  Zn  Zn10  1  0.33499065  0.34230587  0.58273845  1
  Zn  Zn11  1  0.66500936  0.34230598  0.58273866  1
  N  N12  1  0.15737722  0.83404661  0.07204348  1
  N  N13  1  0.84262279  0.83404652  0.07204356  1
  N  N14  1  1.00000001  0.34458209  0.09107540  1
  N  N15  1  0.15737708  0.16595465  0.57204354  1
  N  N16  1  0.84262285  0.16595475  0.57204362  1
  N  N17  1  0.99999998  0.65541893  0.59107563  1
  N  N18  1  0.34262208  0.33404307  0.96295163  1
  N  N19  1  0.65737800  0.33404303  0.96295173  1
  N  N20  1  0.34262190  0.66595727  0.46295169  1
  N  N21  1  0.65737810  0.66595729  0.46295180  1
  N  N22  1  0.50000004  0.84458226  0.94392379  1
  N  N23  1  0.50000001  0.15541833  0.44392403  1
