# generated using pymatgen
data_NbZn2N3
_symmetry_space_group_name_H-M   'P 1'
_cell_length_a   5.49039165
_cell_length_b   5.86191615
_cell_length_c   9.96370211
_cell_angle_alpha   89.99997889
_cell_angle_beta   89.99998879
_cell_angle_gamma   90.56683761
_symmetry_Int_Tables_number   1
_chemical_formula_structural   NbZn2N3
_chemical_formula_sum   'Nb4 Zn8 N12'
_cell_volume   320.65824292
_cell_formula_units_Z   4
loop_
 _symmetry_equiv_pos_site_id
 _symmetry_equiv_pos_as_xyz
  1  'x, y, z'
loop_
 _atom_site_type_symbol
 _atom_site_label
 _atom_site_symmetry_multiplicity
 _atom_site_fract_x
 _atom_site_fract_y
 _atom_site_fract_z
 _atom_site_occupancy
  Nb  Nb0  1  0.98532654  0.67241561  0.00000031  1
  Nb  Nb1  1  0.48377116  0.33044307  1.00000035  1
  Nb  Nb2  1  0.07636390  0.17386657  0.49999912  1
  Nb  Nb3  1  0.47731786  0.81197045  0.49999950  1
  Zn  Zn4  1  0.97427022  0.16199665  0.16869230  1
  Zn  Zn5  1  0.97427026  0.16199689  0.83130789  1
  Zn  Zn6  1  0.47401574  0.83793598  0.82957078  1
  Zn  Zn7  1  0.47401559  0.83793617  0.17042927  1
  Zn  Zn8  1  0.96952557  0.66618196  0.32592697  1
  Zn  Zn9  1  0.96952574  0.66618213  0.67407316  1
  Zn  Zn10  1  0.48874615  0.33770581  0.32500542  1
  Zn  Zn11  1  0.48874596  0.33770599  0.67499466  1
  N  N12  1  0.09741165  0.83525522  0.15925680  1
  N  N13  1  0.09741174  0.83525548  0.84074285  1
  N  N14  1  0.11456555  0.34656279  0.99999987  1
  N  N15  1  0.59749385  0.16846866  0.15892598  1
  N  N16  1  0.59749403  0.16846835  0.84107365  1
  N  N17  1  0.61495164  0.65672644  0.99999991  1
  N  N18  1  0.08396491  0.33945511  0.33409325  1
  N  N19  1  0.08396494  0.33945569  0.66590736  1
  N  N20  1  0.59642762  0.66807322  0.33516643  1
  N  N21  1  0.59642781  0.66807282  0.66483395  1
  N  N22  1  0.10574335  0.82816255  0.50000012  1
  N  N23  1  0.52726908  0.14970638  0.50000009  1
