# generated using pymatgen
data_NbZn2N3
_symmetry_space_group_name_H-M   'P 1'
_cell_length_a   5.53878028
_cell_length_b   5.87591082
_cell_length_c   9.95076304
_cell_angle_alpha   90.00536422
_cell_angle_beta   89.43225730
_cell_angle_gamma   90.02153075
_symmetry_Int_Tables_number   1
_chemical_formula_structural   NbZn2N3
_chemical_formula_sum   'Nb4 Zn8 N12'
_cell_volume   323.83543118
_cell_formula_units_Z   4
loop_
 _symmetry_equiv_pos_site_id
 _symmetry_equiv_pos_as_xyz
  1  'x, y, z'
loop_
 _atom_site_type_symbol
 _atom_site_label
 _atom_site_symmetry_multiplicity
 _atom_site_fract_x
 _atom_site_fract_y
 _atom_site_fract_z
 _atom_site_occupancy
  Nb  Nb0  1  0.97920163  0.66946183  0.00016798  1
  Nb  Nb1  1  0.48006333  0.32826313  0.00022122  1
  Nb  Nb2  1  0.11972854  0.17246969  0.50314407  1
  Nb  Nb3  1  0.61922428  0.83222409  0.50159418  1
  Zn  Zn4  1  0.96252138  0.15998470  0.17227713  1
  Zn  Zn5  1  0.97896305  0.15980833  0.83677674  1
  Zn  Zn6  1  0.47567538  0.83761737  0.83230117  1
  Zn  Zn7  1  0.46381553  0.83854363  0.17141871  1
  Zn  Zn8  1  0.96997091  0.65605185  0.31982420  1
  Zn  Zn9  1  0.05494039  0.66532713  0.67192500  1
  Zn  Zn10  1  0.47041702  0.34390534  0.32056272  1
  Zn  Zn11  1  0.60896251  0.33674255  0.66769658  1
  N  N12  1  0.09035157  0.83373923  0.15862387  1
  N  N13  1  0.09723268  0.83556601  0.84312832  1
  N  N14  1  0.11145192  0.34598297  0.00043541  1
  N  N15  1  0.59024943  0.16510600  0.15993449  1
  N  N16  1  0.59606725  0.16165900  0.84494292  1
  N  N17  1  0.61231649  0.65253504  0.99964686  1
  N  N18  1  0.07767091  0.33497246  0.33485313  1
  N  N19  1  0.00055216  0.33478608  0.65998419  1
  N  N20  1  0.57796516  0.66440493  0.33427432  1
  N  N21  1  0.53152157  0.66592145  0.65987506  1
  N  N22  1  0.99121174  0.85088048  0.50138928  1
  N  N23  1  0.48676386  0.15404654  0.50500246  1
