# generated using pymatgen
data_NbZn2N3
_symmetry_space_group_name_H-M   'P 1'
_cell_length_a   5.50556362
_cell_length_b   5.88153709
_cell_length_c   10.00412439
_cell_angle_alpha   90.00001536
_cell_angle_beta   90.00003627
_cell_angle_gamma   90.29693581
_symmetry_Int_Tables_number   1
_chemical_formula_structural   NbZn2N3
_chemical_formula_sum   'Nb4 Zn8 N12'
_cell_volume   323.94096853
_cell_formula_units_Z   4
loop_
 _symmetry_equiv_pos_site_id
 _symmetry_equiv_pos_as_xyz
  1  'x, y, z'
loop_
 _atom_site_type_symbol
 _atom_site_label
 _atom_site_symmetry_multiplicity
 _atom_site_fract_x
 _atom_site_fract_y
 _atom_site_fract_z
 _atom_site_occupancy
  Nb  Nb0  1  0.97995822  0.66960771  0.00000007  1
  Nb  Nb1  1  0.47832150  0.32823886  0.00000013  1
  Nb  Nb2  1  0.12922579  0.17711201  0.49999995  1
  Nb  Nb3  1  0.53942091  0.82202023  0.49999992  1
  Zn  Zn4  1  0.96873002  0.16024676  0.17043121  1
  Zn  Zn5  1  0.96872972  0.16024655  0.82956865  1
  Zn  Zn6  1  0.46729100  0.83718645  0.83175320  1
  Zn  Zn7  1  0.46729128  0.83718667  0.16824677  1
  Zn  Zn8  1  0.98298198  0.66419096  0.32716972  1
  Zn  Zn9  1  0.98298135  0.66419127  0.67283011  1
  Zn  Zn10  1  0.48046907  0.34166817  0.31690023  1
  Zn  Zn11  1  0.48046920  0.34166821  0.68309988  1
  N  N12  1  0.09218861  0.83303782  0.15833174  1
  N  N13  1  0.09218845  0.83303772  0.84166826  1
  N  N14  1  0.11055481  0.34541068  -0.00000003  1
  N  N15  1  0.59290793  0.16406217  0.15746738  1
  N  N16  1  0.59290789  0.16406196  0.84253260  1
  N  N17  1  0.61019441  0.65286433  -0.00000002  1
  N  N18  1  0.08167750  0.33705662  0.33152620  1
  N  N19  1  0.08167744  0.33705639  0.66847388  1
  N  N20  1  0.58844989  0.66544621  0.33297919  1
  N  N21  1  0.58844985  0.66544620  0.66702085  1
  N  N22  1  0.08556521  0.83813905  0.50000007  1
  N  N23  1  0.50638886  0.16081701  0.50000005  1
