# generated using pymatgen
data_NbZn2N3
_symmetry_space_group_name_H-M   'P 1'
_cell_length_a   9.97373437
_cell_length_b   5.87875064
_cell_length_c   5.52595949
_cell_angle_alpha   89.99189461
_cell_angle_beta   89.82515743
_cell_angle_gamma   90.15825636
_symmetry_Int_Tables_number   1
_chemical_formula_structural   NbZn2N3
_chemical_formula_sum   'Nb4 Zn8 N12'
_cell_volume   324.00137193
_cell_formula_units_Z   4
loop_
 _symmetry_equiv_pos_site_id
 _symmetry_equiv_pos_as_xyz
  1  'x, y, z'
loop_
 _atom_site_type_symbol
 _atom_site_label
 _atom_site_symmetry_multiplicity
 _atom_site_fract_x
 _atom_site_fract_y
 _atom_site_fract_z
 _atom_site_occupancy
  Nb  Nb0  1  0.00011328  0.67010652  0.97891084  1
  Nb  Nb1  1  0.00018823  0.32850417  0.47922439  1
  Nb  Nb2  1  0.50175311  0.17209530  0.12584403  1
  Nb  Nb3  1  0.49991389  0.83229541  0.62853393  1
  Zn  Zn4  1  0.17207981  0.16189827  0.96516774  1
  Zn  Zn5  1  0.83272650  0.16051962  0.97403171  1
  Zn  Zn6  1  0.83045019  0.83584791  0.46862229  1
  Zn  Zn7  1  0.17100289  0.83894411  0.46550138  1
  Zn  Zn8  1  0.31906438  0.65732963  0.97653220  1
  Zn  Zn9  1  0.67852994  0.66263160  0.99016765  1
  Zn  Zn10  1  0.31959027  0.34441897  0.47372288  1
  Zn  Zn11  1  0.67426665  0.33518431  0.54157104  1
  N  N12  1  0.15796065  0.83534266  0.09180658  1
  N  N13  1  0.84239080  0.83420569  0.09503139  1
  N  N14  1  0.00054516  0.34632708  0.11112359  1
  N  N15  1  0.15879078  0.16552392  0.59166216  1
  N  N16  1  0.84350773  0.16133217  0.59466978  1
  N  N17  1  -0.00000109  0.65232680  0.61106963  1
  N  N18  1  0.33421224  0.33725533  0.08186132  1
  N  N19  1  0.66302199  0.33331120  0.04701041  1
  N  N20  1  0.33377068  0.66500810  0.58120302  1
  N  N21  1  0.66478866  0.66636055  0.57722855  1
  N  N22  1  0.49956145  0.85048413  0.99874360  1
  N  N23  1  0.50177179  0.15274639  0.49759855  1
