# generated using pymatgen
data_NbZn2N3
_symmetry_space_group_name_H-M   'P 1'
_cell_length_a   9.99115310
_cell_length_b   5.86739999
_cell_length_c   5.51833105
_cell_angle_alpha   90.19575197
_cell_angle_beta   90.00456326
_cell_angle_gamma   89.99474767
_symmetry_Int_Tables_number   1
_chemical_formula_structural   NbZn2N3
_chemical_formula_sum   'Nb4 Zn8 N12'
_cell_volume   323.49421794
_cell_formula_units_Z   4
loop_
 _symmetry_equiv_pos_site_id
 _symmetry_equiv_pos_as_xyz
  1  'x, y, z'
loop_
 _atom_site_type_symbol
 _atom_site_label
 _atom_site_symmetry_multiplicity
 _atom_site_fract_x
 _atom_site_fract_y
 _atom_site_fract_z
 _atom_site_occupancy
  Nb  Nb0  1  0.99999940  0.66996730  0.97910296  1
  Nb  Nb1  1  0.00001224  0.32820269  0.47863526  1
  Nb  Nb2  1  0.49996770  0.17040427  0.13253545  1
  Nb  Nb3  1  0.49999695  0.83180081  0.63133189  1
  Zn  Zn4  1  0.17069014  0.16111242  0.96753529  1
  Zn  Zn5  1  0.82920712  0.16114148  0.96730562  1
  Zn  Zn6  1  0.82971101  0.83728650  0.46715749  1
  Zn  Zn7  1  0.17026019  0.83717133  0.46728607  1
  Zn  Zn8  1  0.32094428  0.65847316  0.98224283  1
  Zn  Zn9  1  0.67912574  0.65840748  0.98192674  1
  Zn  Zn10  1  0.31840342  0.34303369  0.47969017  1
  Zn  Zn11  1  0.68172981  0.34328270  0.47886700  1
  N  N12  1  0.15812121  0.83419571  0.09316250  1
  N  N13  1  0.84186364  0.83424713  0.09305002  1
  N  N14  1  0.99997142  0.34570486  0.11047695  1
  N  N15  1  0.15790350  0.16453088  0.59351552  1
  N  N16  1  0.84208164  0.16464006  0.59337875  1
  N  N17  1  0.99999603  0.65290138  0.61065246  1
  N  N18  1  0.33366593  0.33597428  0.08362360  1
  N  N19  1  0.66630308  0.33603985  0.08371292  1
  N  N20  1  0.33424452  0.66513780  0.58321380  1
  N  N21  1  0.66578821  0.66518315  0.58318978  1
  N  N22  1  0.50000749  0.84889147  0.00502403  1
  N  N23  1  0.50000533  0.15226999  0.50257696  1
