# generated using pymatgen
data_NbZn2N3
_symmetry_space_group_name_H-M   'P 1'
_cell_length_a   5.49296810
_cell_length_b   5.86432955
_cell_length_c   9.96825697
_cell_angle_alpha   90.00002644
_cell_angle_beta   89.99996896
_cell_angle_gamma   90.57681304
_symmetry_Int_Tables_number   1
_chemical_formula_structural   NbZn2N3
_chemical_formula_sum   'Nb4 Zn8 N12'
_cell_volume   321.08695463
_cell_formula_units_Z   4
loop_
 _symmetry_equiv_pos_site_id
 _symmetry_equiv_pos_as_xyz
  1  'x, y, z'
loop_
 _atom_site_type_symbol
 _atom_site_label
 _atom_site_symmetry_multiplicity
 _atom_site_fract_x
 _atom_site_fract_y
 _atom_site_fract_z
 _atom_site_occupancy
  Nb  Nb0  1  0.98537654  0.67242223  -0.00000092  1
  Nb  Nb1  1  0.48356983  0.33048149  -0.00000123  1
  Nb  Nb2  1  0.09462974  0.17556862  0.50000282  1
  Nb  Nb3  1  0.47687769  0.80920087  0.50000175  1
  Zn  Zn4  1  0.97419540  0.16206725  0.16880265  1
  Zn  Zn5  1  0.97419525  0.16206682  0.83119679  1
  Zn  Zn6  1  0.47374342  0.83791851  0.82972191  1
  Zn  Zn7  1  0.47374364  0.83791818  0.17027777  1
  Zn  Zn8  1  0.96948593  0.66612768  0.32585916  1
  Zn  Zn9  1  0.96948530  0.66612641  0.67414105  1
  Zn  Zn10  1  0.48917353  0.33817523  0.32397901  1
  Zn  Zn11  1  0.48917127  0.33817468  0.67602060  1
  N  N12  1  0.09729042  0.83535296  0.15919212  1
  N  N13  1  0.09729012  0.83535219  0.84080872  1
  N  N14  1  0.11474879  0.34676495  0.00000015  1
  N  N15  1  0.59727030  0.16826486  0.15887299  1
  N  N16  1  0.59726957  0.16826571  0.84112815  1
  N  N17  1  0.61496403  0.65657430  0.00000016  1
  N  N18  1  0.08227036  0.33990193  0.33348604  1
  N  N19  1  0.08227064  0.33990035  0.66651186  1
  N  N20  1  0.59634623  0.66791263  0.33492778  1
  N  N21  1  0.59634540  0.66791369  0.66507106  1
  N  N22  1  0.10565536  0.82826017  0.49999975  1
  N  N23  1  0.51365210  0.14928831  0.49999987  1
