# generated using pymatgen
data_NbZn2N3
_symmetry_space_group_name_H-M   'P 1'
_cell_length_a   9.99647243
_cell_length_b   5.87422739
_cell_length_c   5.51579811
_cell_angle_alpha   90.25662638
_cell_angle_beta   89.99995972
_cell_angle_gamma   89.99997572
_symmetry_Int_Tables_number   1
_chemical_formula_structural   NbZn2N3
_chemical_formula_sum   'Nb4 Zn8 N12'
_cell_volume   323.89297718
_cell_formula_units_Z   4
loop_
 _symmetry_equiv_pos_site_id
 _symmetry_equiv_pos_as_xyz
  1  'x, y, z'
loop_
 _atom_site_type_symbol
 _atom_site_label
 _atom_site_symmetry_multiplicity
 _atom_site_fract_x
 _atom_site_fract_y
 _atom_site_fract_z
 _atom_site_occupancy
  Nb  Nb0  1  -0.00000126  0.66946158  0.97922976  1
  Nb  Nb1  1  -0.00000073  0.32800964  0.47835443  1
  Nb  Nb2  1  -0.49999831  0.17213703  0.13049390  1
  Nb  Nb3  1  -0.49999825  0.83124665  0.61836330  1
  Zn  Zn4  1  -0.17055335  0.16049536  0.96799940  1
  Zn  Zn5  1  -0.82944670  0.16049532  0.96799925  1
  Zn  Zn6  1  -0.83103366  0.83704465  0.46674217  1
  Zn  Zn7  1  -0.16896658  0.83704485  0.46674229  1
  Zn  Zn8  1  -0.32454135  0.66157096  0.98505197  1
  Zn  Zn9  1  -0.67545869  0.66156994  0.98505327  1
  Zn  Zn10  1  -0.31745045  0.34223563  0.47912571  1
  Zn  Zn11  1  -0.68254978  0.34223402  0.47912516  1
  N  N12  1  -0.15828656  0.83331565  0.09218528  1
  N  N13  1  -0.84171240  0.83331643  0.09218588  1
  N  N14  1  0.00000018  0.34541321  0.11048293  1
  N  N15  1  -0.15757719  0.16396754  0.59308562  1
  N  N16  1  -0.84242207  0.16396694  0.59308561  1
  N  N17  1  0.00000022  0.65268590  0.61033367  1
  N  N18  1  -0.33287197  0.33632081  0.08181913  1
  N  N19  1  -0.66712939  0.33632194  0.08181869  1
  N  N20  1  -0.33412590  0.66528806  0.58189675  1
  N  N21  1  -0.66587529  0.66528710  0.58189624  1
  N  N22  1  -0.50000027  0.84449803  0.02278028  1
  N  N23  1  -0.50000024  0.15607278  0.50317019  1
