# generated using pymatgen
data_NbZn2N3
_symmetry_space_group_name_H-M   'P 1'
_cell_length_a   9.90821853
_cell_length_b   5.84573234
_cell_length_c   5.57209824
_cell_angle_alpha   90.00061900
_cell_angle_beta   89.98673505
_cell_angle_gamma   90.00055749
_symmetry_Int_Tables_number   1
_chemical_formula_structural   NbZn2N3
_chemical_formula_sum   'Nb4 Zn8 N12'
_cell_volume   322.74034270
_cell_formula_units_Z   4
loop_
 _symmetry_equiv_pos_site_id
 _symmetry_equiv_pos_as_xyz
  1  'x, y, z'
loop_
 _atom_site_type_symbol
 _atom_site_label
 _atom_site_symmetry_multiplicity
 _atom_site_fract_x
 _atom_site_fract_y
 _atom_site_fract_z
 _atom_site_occupancy
  Nb  Nb0  1  -0.99999894  0.66960199  0.97699843  1
  Nb  Nb1  1  -0.00000115  0.33042411  0.47699512  1
  Nb  Nb2  1  -0.50001365  0.16956995  0.09613771  1
  Nb  Nb3  1  -0.49999703  0.83040243  0.59614260  1
  Zn  Zn4  1  -0.16508570  0.15771050  0.97150556  1
  Zn  Zn5  1  -0.83494412  0.15769406  0.97141986  1
  Zn  Zn6  1  -0.83491867  0.84232426  0.47141169  1
  Zn  Zn7  1  -0.16505132  0.84230876  0.47151186  1
  Zn  Zn8  1  -0.33494271  0.65767960  0.10186577  1
  Zn  Zn9  1  -0.66506720  0.65767440  0.10165184  1
  Zn  Zn10  1  -0.33494201  0.34229572  0.60176289  1
  Zn  Zn11  1  -0.66507001  0.34231565  0.60167381  1
  N  N12  1  -0.15740986  0.83408148  0.09087486  1
  N  N13  1  -0.84257991  0.83405393  0.09079632  1
  N  N14  1  -0.00001586  0.34460831  0.10977254  1
  N  N15  1  -0.15741413  0.16594304  0.59087652  1
  N  N16  1  -0.84259136  0.16595939  0.59079062  1
  N  N17  1  -0.99999792  0.65541783  0.60977372  1
  N  N18  1  -0.34260299  0.33409177  0.98231988  1
  N  N19  1  -0.65741515  0.33403166  0.98228740  1
  N  N20  1  -0.34257643  0.66590550  0.48230661  1
  N  N21  1  -0.65739950  0.66594964  0.48228109  1
  N  N22  1  -0.49997578  0.84457749  0.96335326  1
  N  N23  1  -0.49998859  0.15538961  0.46335759  1
