# generated using pymatgen
data_NbZn2N3
_symmetry_space_group_name_H-M   'P 1'
_cell_length_a   5.52339772
_cell_length_b   5.87660269
_cell_length_c   9.97657088
_cell_angle_alpha   90.13448142
_cell_angle_beta   89.87228031
_cell_angle_gamma   90.00007047
_symmetry_Int_Tables_number   1
_chemical_formula_structural   NbZn2N3
_chemical_formula_sum   'Nb4 Zn8 N12'
_cell_volume   323.82596114
_cell_formula_units_Z   4
loop_
 _symmetry_equiv_pos_site_id
 _symmetry_equiv_pos_as_xyz
  1  'x, y, z'
loop_
 _atom_site_type_symbol
 _atom_site_label
 _atom_site_symmetry_multiplicity
 _atom_site_fract_x
 _atom_site_fract_y
 _atom_site_fract_z
 _atom_site_occupancy
  Nb  Nb0  1  0.97902745  0.67032963  0.00008413  1
  Nb  Nb1  1  0.47921649  0.32855359  0.00004967  1
  Nb  Nb2  1  0.12772584  0.17143614  0.50131850  1
  Nb  Nb3  1  0.62956831  0.83169060  0.49993200  1
  Zn  Zn4  1  0.96558154  0.16205175  0.17188778  1
  Zn  Zn5  1  0.97242363  0.16104386  0.83170179  1
  Zn  Zn6  1  0.46842337  0.83606716  0.83020970  1
  Zn  Zn7  1  0.46576958  0.83883708  0.17093244  1
  Zn  Zn8  1  0.97700745  0.65741022  0.31898483  1
  Zn  Zn9  1  0.98714386  0.66112372  0.67908063  1
  Zn  Zn10  1  0.47466854  0.34425818  0.31931482  1
  Zn  Zn11  1  0.51996384  0.33667866  0.67596325  1
  N  N12  1  0.09208868  0.83545620  0.15801611  1
  N  N13  1  0.09473632  0.83442265  0.84234855  1
  N  N14  1  0.11116790  0.34639886  0.00054785  1
  N  N15  1  0.59200137  0.16547721  0.15853619  1
  N  N16  1  0.59477015  0.16207388  0.84289847  1
  N  N17  1  0.61100508  0.65248482  0.00003714  1
  N  N18  1  0.08231699  0.33721580  0.33425014  1
  N  N19  1  0.06183737  0.33430153  0.66428472  1
  N  N20  1  0.58180461  0.66490681  0.33373146  1
  N  N21  1  0.57965904  0.66542724  0.66520652  1
  N  N22  1  0.99951457  0.85030872  0.49972542  1
  N  N23  1  0.49941672  0.15204555  0.50095791  1
