# generated using pymatgen
data_NbZn2N3
_symmetry_space_group_name_H-M   'P 1'
_cell_length_a   9.90989499
_cell_length_b   5.85499363
_cell_length_c   5.56953507
_cell_angle_alpha   90.00160073
_cell_angle_beta   90.30403465
_cell_angle_gamma   89.98716887
_symmetry_Int_Tables_number   1
_chemical_formula_structural   NbZn2N3
_chemical_formula_sum   'Nb4 Zn8 N12'
_cell_volume   323.15307817
_cell_formula_units_Z   4
loop_
 _symmetry_equiv_pos_site_id
 _symmetry_equiv_pos_as_xyz
  1  'x, y, z'
loop_
 _atom_site_type_symbol
 _atom_site_label
 _atom_site_symmetry_multiplicity
 _atom_site_fract_x
 _atom_site_fract_y
 _atom_site_fract_z
 _atom_site_occupancy
  Nb  Nb0  1  -0.99985170  0.66908731  0.97960471  1
  Nb  Nb1  1  -0.99976761  0.32947894  0.47989430  1
  Nb  Nb2  1  -0.49977963  0.17111490  0.10075937  1
  Nb  Nb3  1  -0.50068315  0.83104337  0.60033283  1
  Zn  Zn4  1  -0.16424742  0.15771062  0.97292333  1
  Zn  Zn5  1  -0.83434449  0.15764301  0.97567027  1
  Zn  Zn6  1  -0.83530335  0.84126474  0.47660204  1
  Zn  Zn7  1  -0.16658973  0.84100003  0.47194965  1
  Zn  Zn8  1  -0.33322123  0.66061815  0.08471814  1
  Zn  Zn9  1  -0.66530441  0.65813665  0.10780682  1
  Zn  Zn10  1  -0.33414610  0.34102957  0.60051921  1
  Zn  Zn11  1  -0.66512000  0.34210084  0.60612452  1
  N  N12  1  -0.15759026  0.83397048  0.09245084  1
  N  N13  1  -0.84313485  0.83438824  0.09457981  1
  N  N14  1  -0.99936611  0.34459961  0.11236423  1
  N  N15  1  -0.15698521  0.16465070  0.59209098  1
  N  N16  1  -0.84242651  0.16486975  0.59480148  1
  N  N17  1  -0.00011506  0.65419694  0.61257874  1
  N  N18  1  -0.34179941  0.33280825  0.98649675  1
  N  N19  1  -0.65740800  0.33545255  0.98698152  1
  N  N20  1  -0.34285632  0.66742479  0.49350329  1
  N  N21  1  -0.65811767  0.66493887  0.48712997  1
  N  N22  1  -0.50153337  0.84636245  0.96901901  1
  N  N23  1  -0.50030840  0.15610906  0.46792846  1
