# generated using pymatgen
data_NbZn2N3
_symmetry_space_group_name_H-M   'P 1'
_cell_length_a   5.48525775
_cell_length_b   5.85661525
_cell_length_c   9.95558661
_cell_angle_alpha   89.99998600
_cell_angle_beta   90.00000645
_cell_angle_gamma   90.56509127
_symmetry_Int_Tables_number   1
_chemical_formula_structural   NbZn2N3
_chemical_formula_sum   'Nb4 Zn8 N12'
_cell_volume   319.80810517
_cell_formula_units_Z   4
loop_
 _symmetry_equiv_pos_site_id
 _symmetry_equiv_pos_as_xyz
  1  'x, y, z'
loop_
 _atom_site_type_symbol
 _atom_site_label
 _atom_site_symmetry_multiplicity
 _atom_site_fract_x
 _atom_site_fract_y
 _atom_site_fract_z
 _atom_site_occupancy
  Nb  Nb0  1  0.98525424  0.67234696  1.00000084  1
  Nb  Nb1  1  0.48405682  0.33025212  1.00000077  1
  Nb  Nb2  1  0.04022259  0.17174492  0.49999880  1
  Nb  Nb3  1  0.47910175  0.81618894  0.49999847  1
  Zn  Zn4  1  0.97431084  0.16199693  0.16878352  1
  Zn  Zn5  1  0.97431075  0.16199692  0.83121656  1
  Zn  Zn6  1  0.47425364  0.83795301  0.82943291  1
  Zn  Zn7  1  0.47425364  0.83795311  0.17056730  1
  Zn  Zn8  1  0.96984576  0.66601375  0.32607255  1
  Zn  Zn9  1  0.96984582  0.66601373  0.67392742  1
  Zn  Zn10  1  0.48710553  0.33710444  0.32602471  1
  Zn  Zn11  1  0.48710477  0.33710421  0.67397524  1
  N  N12  1  0.09756912  0.83505706  0.15939475  1
  N  N13  1  0.09756956  0.83505771  0.84060452  1
  N  N14  1  0.11424597  0.34623896  0.99999982  1
  N  N15  1  0.59777337  0.16853364  0.15894325  1
  N  N16  1  0.59777374  0.16853301  0.84105609  1
  N  N17  1  0.61491456  0.65694598  0.99999986  1
  N  N18  1  0.08763068  0.33799451  0.33556182  1
  N  N19  1  0.08763091  0.33799541  0.66443919  1
  N  N20  1  0.59655991  0.66817906  0.33562125  1
  N  N21  1  0.59656053  0.66817805  0.66437992  1
  N  N22  1  0.10687645  0.83040909  0.50000024  1
  N  N23  1  0.55424991  0.15020848  0.50000021  1
