# generated using pymatgen
data_NbZn2N3
_symmetry_space_group_name_H-M   'P 1'
_cell_length_a   9.93620811
_cell_length_b   5.84255570
_cell_length_c   5.47754429
_cell_angle_alpha   90.54924099
_cell_angle_beta   90.00004638
_cell_angle_gamma   90.00002426
_symmetry_Int_Tables_number   1
_chemical_formula_structural   NbZn2N3
_chemical_formula_sum   'Nb4 Zn8 N12'
_cell_volume   317.97244366
_cell_formula_units_Z   4
loop_
 _symmetry_equiv_pos_site_id
 _symmetry_equiv_pos_as_xyz
  1  'x, y, z'
loop_
 _atom_site_type_symbol
 _atom_site_label
 _atom_site_symmetry_multiplicity
 _atom_site_fract_x
 _atom_site_fract_y
 _atom_site_fract_z
 _atom_site_occupancy
  Nb  Nb0  1  1.00000529  0.67212869  0.98517565  1
  Nb  Nb1  1  1.00000583  0.32979423  0.48423598  1
  Nb  Nb2  1  0.49999651  0.17014049  0.99289411  1
  Nb  Nb3  1  0.49999188  0.82173786  0.48084473  1
  Zn  Zn4  1  0.16963474  0.16259365  0.97444819  1
  Zn  Zn5  1  0.83036587  0.16259509  0.97444885  1
  Zn  Zn6  1  0.82929710  0.83792063  0.47431307  1
  Zn  Zn7  1  0.17070430  0.83792137  0.47431287  1
  Zn  Zn8  1  0.32664623  0.66471312  0.97107768  1
  Zn  Zn9  1  0.67335281  0.66471305  0.97107863  1
  Zn  Zn10  1  0.32734546  0.33607930  0.48175601  1
  Zn  Zn11  1  0.67265370  0.33607891  0.48175545  1
  N  N12  1  0.15979431  0.83448240  0.09775948  1
  N  N13  1  0.84020143  0.83448645  0.09776211  1
  N  N14  1  0.99999929  0.34554998  0.11383283  1
  N  N15  1  0.15931604  0.16851377  0.59785941  1
  N  N16  1  0.84067938  0.16850937  0.59786221  1
  N  N17  1  0.99999921  0.65740257  0.61458524  1
  N  N18  1  0.33848429  0.33412991  0.09263501  1
  N  N19  1  0.66151877  0.33413259  0.09263626  1
  N  N20  1  0.33711597  0.66836589  0.59621420  1
  N  N21  1  0.66289003  0.66836052  0.59621753  1
  N  N22  1  0.50000084  0.83792300  0.10899719  1
  N  N23  1  0.50000074  0.15172717  0.59631819  1
