# generated using pymatgen
data_NbZn2N3
_symmetry_space_group_name_H-M   'P 1'
_cell_length_a   9.94555025
_cell_length_b   5.87239501
_cell_length_c   5.54134492
_cell_angle_alpha   90.02755302
_cell_angle_beta   90.62971949
_cell_angle_gamma   90.01763127
_symmetry_Int_Tables_number   1
_chemical_formula_structural   NbZn2N3
_chemical_formula_sum   'Nb4 Zn8 N12'
_cell_volume   323.61821530
_cell_formula_units_Z   4
loop_
 _symmetry_equiv_pos_site_id
 _symmetry_equiv_pos_as_xyz
  1  'x, y, z'
loop_
 _atom_site_type_symbol
 _atom_site_label
 _atom_site_symmetry_multiplicity
 _atom_site_fract_x
 _atom_site_fract_y
 _atom_site_fract_z
 _atom_site_occupancy
  Nb  Nb0  1  -0.00011209  0.66966189  0.97939754  1
  Nb  Nb1  1  -0.00013349  0.32845005  0.48002521  1
  Nb  Nb2  1  -0.50333865  0.17187291  0.11874645  1
  Nb  Nb3  1  -0.50218475  0.83147519  0.61789584  1
  Zn  Zn4  1  -0.17219610  0.15989643  0.96233644  1
  Zn  Zn5  1  -0.83663393  0.15989550  0.97908990  1
  Zn  Zn6  1  -0.83311244  0.83830908  0.47719263  1
  Zn  Zn7  1  -0.17139060  0.83870348  0.46332325  1
  Zn  Zn8  1  -0.32009347  0.65604493  0.96911893  1
  Zn  Zn9  1  -0.67009424  0.66380664  0.07722725  1
  Zn  Zn10  1  -0.32064711  0.34383826  0.46979252  1
  Zn  Zn11  1  -0.66728105  0.33841482  0.61101989  1
  N  N12  1  -0.15898716  0.83365442  0.09019445  1
  N  N13  1  -0.84357306  0.83599901  0.09719706  1
  N  N14  1  -0.00030686  0.34594778  0.11169349  1
  N  N15  1  -0.15997826  0.16532183  0.59014933  1
  N  N16  1  -0.84470407  0.16218517  0.59652177  1
  N  N17  1  -0.99955444  0.65278506  0.61227918  1
  N  N18  1  -0.33502295  0.33472156  0.07711904  1
  N  N19  1  -0.65962720  0.33586195  0.99872856  1
  N  N20  1  -0.33449474  0.66482104  0.57738819  1
  N  N21  1  -0.65894739  0.66463736  0.51596682  1
  N  N22  1  -0.50251408  0.85032554  0.98859956  1
  N  N23  1  -0.50507185  0.15336996  0.48583540  1
