# generated using pymatgen
data_Al31B5N36
_symmetry_space_group_name_H-M   'P 1'
_cell_length_a   9.16234128
_cell_length_b   9.13846698
_cell_length_c   10.24893202
_cell_angle_alpha   90.10343276
_cell_angle_beta   89.41468431
_cell_angle_gamma   60.02007748
_symmetry_Int_Tables_number   1
_chemical_formula_structural   Al31B5N36
_chemical_formula_sum   'Al31 B5 N36'
_cell_volume   743.25938419
_cell_formula_units_Z   1
loop_
 _symmetry_equiv_pos_site_id
 _symmetry_equiv_pos_as_xyz
  1  'x, y, z'
loop_
 _atom_site_type_symbol
 _atom_site_label
 _atom_site_symmetry_multiplicity
 _atom_site_fract_x
 _atom_site_fract_y
 _atom_site_fract_z
 _atom_site_occupancy
  Al  Al0  1  0.11596158  0.09305836  0.39769159  1
  Al  Al1  1  0.21235233  0.20564853  0.13326696  1
  Al  Al2  1  0.88745498  0.19976873  0.61475961  1
  Al  Al3  1  0.45536581  0.08152370  0.31445453  1
  Al  Al4  1  0.57185852  0.19467128  0.05640775  1
  Al  Al5  1  0.09717922  0.09532639  0.88393480  1
  Al  Al6  1  0.21389311  0.21305036  0.64557997  1
  Al  Al7  1  0.78163939  0.10437331  0.31600741  1
  Al  Al8  1  0.46157403  0.08367482  0.81398097  1
  Al  Al9  1  0.56065981  0.19878008  0.56453610  1
  Al  Al10  1  0.11255373  0.42452206  0.39030005  1
  Al  Al11  1  0.21411413  0.54241527  0.13901391  1
  Al  Al12  1  0.77919957  0.42105348  0.88144143  1
  Al  Al13  1  0.88865266  0.55423168  0.64312252  1
  Al  Al14  1  0.44904859  0.41897068  0.31693517  1
  Al  Al15  1  0.56471067  0.53836512  0.13343401  1
  Al  Al16  1  0.10307883  0.43782224  0.89248264  1
  Al  Al17  1  0.21276388  0.54653044  0.63805058  1
  Al  Al18  1  0.77611130  0.43102191  0.40079343  1
  Al  Al19  1  0.88058239  0.53719058  0.14277678  1
  Al  Al20  1  0.45199937  0.41392337  0.81940750  1
  Al  Al21  1  0.55761655  0.54633484  0.64748389  1
  Al  Al22  1  0.10289070  0.76831533  0.38883952  1
  Al  Al23  1  0.21630493  0.87858288  0.13881314  1
  Al  Al24  1  0.43953350  0.75605788  0.39237100  1
  Al  Al25  1  0.09841854  0.76600456  0.88925766  1
  Al  Al26  1  0.21472925  0.87522279  0.64676399  1
  Al  Al27  1  0.78366249  0.76096712  0.38017952  1
  Al  Al28  1  0.88239344  0.87067720  0.12884177  1
  Al  Al29  1  0.45371659  0.76450116  0.88906054  1
  Al  Al30  1  0.55582769  0.87702678  0.58228282  1
  B  B31  1  0.77577860  0.07635264  0.80329179  1
  B  B32  1  0.88708993  0.20510890  0.09403253  1
  B  B33  1  0.77233827  0.77516499  0.84642729  1
  B  B34  1  0.88645405  0.87089080  0.60904378  1
  B  B35  1  0.56048601  0.86782088  0.10110400  1
  N  N36  1  0.21928899  0.20539220  0.32014829  1
  N  N37  1  0.07899646  0.10823124  0.07721950  1
  N  N38  1  0.87653414  0.18967599  0.81846203  1
  N  N39  1  0.78330247  0.06160036  0.64010075  1
  N  N40  1  0.55873004  0.20003830  0.37803310  1
  N  N41  1  0.46466522  0.06261263  0.11912815  1
  N  N42  1  0.21370671  0.20978666  0.83557918  1
  N  N43  1  0.12089115  0.09107087  0.58331692  1
  N  N44  1  0.88564983  0.20128639  0.39468489  1
  N  N45  1  0.79263028  0.11418956  0.12374261  1
  N  N46  1  0.58552780  0.18593044  0.87005414  1
  N  N47  1  0.44373216  0.10038213  0.62986044  1
  N  N48  1  0.21586640  0.54393153  0.32999727  1
  N  N49  1  0.10491531  0.43128162  0.07725909  1
  N  N50  1  0.87589141  0.57054163  0.83248457  1
  N  N51  1  0.77630423  0.44242285  0.58797080  1
  N  N52  1  0.56339322  0.53903030  0.32219253  1
  N  N53  1  0.44772835  0.41717802  0.12130311  1
  N  N54  1  0.21588223  0.54264623  0.82652707  1
  N  N55  1  0.10985551  0.42955320  0.57663348  1
  N  N56  1  0.89084577  0.53342162  0.32885892  1
  N  N57  1  0.79381973  0.39720045  0.07347649  1
  N  N58  1  0.55631421  0.54129926  0.83620888  1
  N  N59  1  0.45066367  0.42086282  0.62652471  1
  N  N60  1  0.22099707  0.87315484  0.32511768  1
  N  N61  1  0.11073191  0.76112235  0.07461088  1
  N  N62  1  0.86341333  0.87662041  0.84795758  1
  N  N63  1  0.79917755  0.77483247  0.57455844  1
  N  N64  1  0.55255877  0.87478073  0.38930833  1
  N  N65  1  0.45457278  0.77810854  0.08013254  1
  N  N66  1  0.22411970  0.86968755  0.83251259  1
  N  N67  1  0.07970068  0.78104998  0.58192444  1
  N  N68  1  0.89069554  0.87102119  0.31691768  1
  N  N69  1  0.74294343  0.77137843  0.10872045  1
  N  N70  1  0.58849739  0.85230888  0.83075094  1
  N  N71  1  0.43354144  0.75790015  0.57988452  1
