# generated using pymatgen
data_Al31B5N36
_symmetry_space_group_name_H-M   'P 1'
_cell_length_a   9.17314645
_cell_length_b   9.16827443
_cell_length_c   9.84290645
_cell_angle_alpha   89.77285318
_cell_angle_beta   89.55001248
_cell_angle_gamma   60.02708102
_symmetry_Int_Tables_number   1
_chemical_formula_structural   Al31B5N36
_chemical_formula_sum   'Al31 B5 N36'
_cell_volume   717.07564883
_cell_formula_units_Z   1
loop_
 _symmetry_equiv_pos_site_id
 _symmetry_equiv_pos_as_xyz
  1  'x, y, z'
loop_
 _atom_site_type_symbol
 _atom_site_label
 _atom_site_symmetry_multiplicity
 _atom_site_fract_x
 _atom_site_fract_y
 _atom_site_fract_z
 _atom_site_occupancy
  Al  Al0  1  0.10571907  0.09648067  0.31837212  1
  Al  Al1  1  0.21919686  0.20316457  0.06233218  1
  Al  Al2  1  0.88750595  0.19870182  0.58051649  1
  Al  Al3  1  0.44929803  0.08802334  0.30601423  1
  Al  Al4  1  0.57043846  0.20000643  0.05522755  1
  Al  Al5  1  0.10365724  0.09182409  0.81207435  1
  Al  Al6  1  0.22414434  0.20405524  0.56179429  1
  Al  Al7  1  0.78121960  0.09209967  0.32293022  1
  Al  Al8  1  0.45358311  0.08748868  0.81905360  1
  Al  Al9  1  0.56003989  0.19723370  0.56674455  1
  Al  Al10  1  0.10960987  0.42931840  0.31183166  1
  Al  Al11  1  0.22107472  0.54064412  0.06028428  1
  Al  Al12  1  0.77740709  0.42258994  0.81286894  1
  Al  Al13  1  0.88655401  0.54814468  0.56911264  1
  Al  Al14  1  0.44450342  0.42585467  0.31189190  1
  Al  Al15  1  0.56234891  0.53504191  0.06324872  1
  Al  Al16  1  0.10670334  0.43228357  0.81184598  1
  Al  Al17  1  0.21698561  0.54280433  0.56298639  1
  Al  Al18  1  0.78182120  0.42302638  0.31737031  1
  Al  Al19  1  0.88299482  0.54459697  0.05789014  1
  Al  Al20  1  0.45121274  0.42297151  0.81069521  1
  Al  Al21  1  0.55537430  0.54087293  0.56022897  1
  Al  Al22  1  0.10401907  0.76356350  0.31964864  1
  Al  Al23  1  0.21810335  0.87685589  0.06338678  1
  Al  Al24  1  0.44795782  0.76477290  0.30694688  1
  Al  Al25  1  0.09758074  0.76790707  0.80903177  1
  Al  Al26  1  0.21932561  0.87144747  0.56250107  1
  Al  Al27  1  0.77355109  0.76658673  0.31545065  1
  Al  Al28  1  0.88082653  0.88191216  0.05542004  1
  Al  Al29  1  0.45116318  0.76002049  0.82004321  1
  Al  Al30  1  0.56005757  0.87255594  0.57009235  1
  B  B31  1  0.77752054  0.08569315  0.80262908  1
  B  B32  1  0.88991586  0.20330897  0.09644127  1
  B  B33  1  0.77608441  0.77369565  0.81279335  1
  B  B34  1  0.88386305  0.87380384  0.57483461  1
  B  B35  1  0.56566687  0.86947389  0.05562245  1
  N  N36  1  0.22476689  0.20397735  0.36644505  1
  N  N37  1  0.08223130  0.10840215  0.12059897  1
  N  N38  1  0.87309509  0.18595575  0.84428150  1
  N  N39  1  0.78619563  0.06593381  0.63292850  1
  N  N40  1  0.55550832  0.20267887  0.37209028  1
  N  N41  1  0.46056455  0.06967943  0.10817864  1
  N  N42  1  0.21839850  0.20500883  0.87231291  1
  N  N43  1  0.11527120  0.09164422  0.62036166  1
  N  N44  1  0.88704624  0.20490416  0.38552852  1
  N  N45  1  0.79446752  0.10654265  0.12544888  1
  N  N46  1  0.58211821  0.19121878  0.86169883  1
  N  N47  1  0.44266048  0.09381269  0.62783418  1
  N  N48  1  0.22179099  0.53887934  0.37161556  1
  N  N49  1  0.10810372  0.42957117  0.11961946  1
  N  N50  1  0.87585535  0.56553313  0.86498218  1
  N  N51  1  0.77585232  0.43167147  0.62117107  1
  N  N52  1  0.55495785  0.54075839  0.36591892  1
  N  N53  1  0.44519627  0.42461721  0.11920492  1
  N  N54  1  0.22297319  0.54017521  0.86852835  1
  N  N55  1  0.11061570  0.42692495  0.62108095  1
  N  N56  1  0.88648569  0.54295854  0.37316481  1
  N  N57  1  0.79499131  0.39835254  0.11778694  1
  N  N58  1  0.55715838  0.53664464  0.87475667  1
  N  N59  1  0.44483975  0.42714280  0.61891337  1
  N  N60  1  0.22403878  0.87033323  0.36825901  1
  N  N61  1  0.10348589  0.76413062  0.12423317  1
  N  N62  1  0.86450799  0.88310607  0.86322346  1
  N  N63  1  0.78568162  0.77501682  0.64073945  1
  N  N64  1  0.55507100  0.87250397  0.37929488  1
  N  N65  1  0.45876605  0.77443704  0.11111295  1
  N  N66  1  0.22128049  0.86941043  0.87298784  1
  N  N67  1  0.08413160  0.77429082  0.61617378  1
  N  N68  1  0.88355309  0.87270604  0.39925586  1
  N  N69  1  0.75446681  0.77676706  0.11937905  1
  N  N70  1  0.58132126  0.86005204  0.88307637  1
  N  N71  1  0.44380735  0.76121176  0.62652225  1
