# generated using pymatgen
data_Al31B5N36
_symmetry_space_group_name_H-M   'P 1'
_cell_length_a   9.11033198
_cell_length_b   9.12820653
_cell_length_c   10.48228344
_cell_angle_alpha   90.80199249
_cell_angle_beta   90.13707397
_cell_angle_gamma   60.04024009
_symmetry_Int_Tables_number   1
_chemical_formula_structural   Al31B5N36
_chemical_formula_sum   'Al31 B5 N36'
_cell_volume   755.15045037
_cell_formula_units_Z   1
loop_
 _symmetry_equiv_pos_site_id
 _symmetry_equiv_pos_as_xyz
  1  'x, y, z'
loop_
 _atom_site_type_symbol
 _atom_site_label
 _atom_site_symmetry_multiplicity
 _atom_site_fract_x
 _atom_site_fract_y
 _atom_site_fract_z
 _atom_site_occupancy
  Al  Al0  1  0.11989997  0.08922697  0.39476320  1
  Al  Al1  1  0.20972591  0.21041747  0.13820521  1
  Al  Al2  1  0.88540685  0.19357270  0.57892853  1
  Al  Al3  1  0.45551112  0.08274071  0.31563977  1
  Al  Al4  1  0.56593162  0.19860927  0.06594453  1
  Al  Al5  1  0.09548333  0.09197915  0.89308377  1
  Al  Al6  1  0.20896277  0.21240902  0.64646928  1
  Al  Al7  1  0.78038361  0.09747818  0.31932125  1
  Al  Al8  1  0.45895693  0.08578481  0.81461684  1
  Al  Al9  1  0.55974870  0.19489591  0.56431893  1
  Al  Al10  1  0.10764813  0.42411300  0.39330544  1
  Al  Al11  1  0.23074240  0.54070551  0.06215415  1
  Al  Al12  1  0.77364622  0.41801891  0.81665441  1
  Al  Al13  1  0.89067730  0.55503809  0.64538643  1
  Al  Al14  1  0.44274802  0.42641112  0.31771845  1
  Al  Al15  1  0.57062013  0.52727630  0.07081404  1
  Al  Al16  1  0.09841299  0.43225618  0.89347139  1
  Al  Al17  1  0.21880266  0.55064986  0.56970028  1
  Al  Al18  1  0.78066257  0.41920483  0.32406674  1
  Al  Al19  1  0.88578423  0.54969155  0.14588962  1
  Al  Al20  1  0.45134750  0.42189405  0.81605601  1
  Al  Al21  1  0.56249933  0.52636255  0.56807778  1
  Al  Al22  1  0.10795581  0.75681042  0.30760003  1
  Al  Al23  1  0.22668878  0.88162788  0.13722009  1
  Al  Al24  1  0.43550759  0.76379984  0.39572672  1
  Al  Al25  1  0.09353904  0.76157161  0.82486535  1
  Al  Al26  1  0.21882192  0.87557612  0.65058544  1
  Al  Al27  1  0.78547068  0.76510759  0.39286660  1
  Al  Al28  1  0.88073577  0.87842379  0.07929449  1
  Al  Al29  1  0.45470802  0.76520179  0.88960003  1
  Al  Al30  1  0.55425083  0.87844782  0.58325182  1
  B  B31  1  0.77244239  0.08898120  0.84883812  1
  B  B32  1  0.88754045  0.20584128  0.10582414  1
  B  B33  1  0.76788499  0.77399900  0.85749860  1
  B  B34  1  0.88361070  0.87592305  0.60780763  1
  B  B35  1  0.56144187  0.87023104  0.10176135  1
  N  N36  1  0.21660214  0.20859341  0.32015550  1
  N  N37  1  0.08052986  0.10898931  0.07989610  1
  N  N38  1  0.86915387  0.18075016  0.84956348  1
  N  N39  1  0.78715086  0.06085834  0.61822747  1
  N  N40  1  0.55341797  0.20563071  0.37869261  1
  N  N41  1  0.46280017  0.06557084  0.12383708  1
  N  N42  1  0.20648640  0.20864964  0.83242752  1
  N  N43  1  0.12138603  0.08545362  0.57784264  1
  N  N44  1  0.88439222  0.20812936  0.39199841  1
  N  N45  1  0.79208228  0.11251852  0.12773064  1
  N  N46  1  0.57871108  0.19126370  0.87930794  1
  N  N47  1  0.44180810  0.10079023  0.63514338  1
  N  N48  1  0.22404889  0.54672354  0.38502640  1
  N  N49  1  0.10467496  0.42972978  0.07586426  1
  N  N50  1  0.87671297  0.57705862  0.83200858  1
  N  N51  1  0.77970248  0.42469832  0.63600490  1
  N  N52  1  0.56033850  0.52988512  0.38168207  1
  N  N53  1  0.44703908  0.42420653  0.13228329  1
  N  N54  1  0.22863824  0.53759135  0.87900451  1
  N  N55  1  0.10641271  0.42560091  0.57723750  1
  N  N56  1  0.89019364  0.54404621  0.32852641  1
  N  N57  1  0.79559776  0.39537896  0.13320612  1
  N  N58  1  0.56132955  0.52960981  0.88943321  1
  N  N59  1  0.44577724  0.42348999  0.63317304  1
  N  N60  1  0.22757781  0.87574681  0.31831908  1
  N  N61  1  0.11274735  0.75869922  0.11975676  1
  N  N62  1  0.85941028  0.88614897  0.88134182  1
  N  N63  1  0.79605653  0.77324252  0.58198182  1
  N  N64  1  0.55131222  0.87899427  0.39335405  1
  N  N65  1  0.45886357  0.77976745  0.08031947  1
  N  N66  1  0.22768567  0.86912947  0.83453571  1
  N  N67  1  0.07610087  0.77379873  0.63894834  1
  N  N68  1  0.88828595  0.87575101  0.34137501  1
  N  N69  1  0.74522886  0.77644220  0.10200424  1
  N  N70  1  0.58675083  0.85482606  0.83587383  1
  N  N71  1  0.43489558  0.75845122  0.58329036  1
