# generated using pymatgen
data_Al31B5N36
_symmetry_space_group_name_H-M   'P 1'
_cell_length_a   9.16144533
_cell_length_b   9.14758037
_cell_length_c   10.07617561
_cell_angle_alpha   90.05329832
_cell_angle_beta   89.73781121
_cell_angle_gamma   60.19851908
_symmetry_Int_Tables_number   1
_chemical_formula_structural   Al31B5N36
_chemical_formula_sum   'Al31 B5 N36'
_cell_volume   732.74755069
_cell_formula_units_Z   1
loop_
 _symmetry_equiv_pos_site_id
 _symmetry_equiv_pos_as_xyz
  1  'x, y, z'
loop_
 _atom_site_type_symbol
 _atom_site_label
 _atom_site_symmetry_multiplicity
 _atom_site_fract_x
 _atom_site_fract_y
 _atom_site_fract_z
 _atom_site_occupancy
  Al  Al0  1  0.11130618  0.09614085  0.39966642  1
  Al  Al1  1  0.21074422  0.20706537  0.14518106  1
  Al  Al2  1  0.88583463  0.19130045  0.65124718  1
  Al  Al3  1  0.45219188  0.08898044  0.31894443  1
  Al  Al4  1  0.56953747  0.19375384  0.08124210  1
  Al  Al5  1  0.09561466  0.09217001  0.90792834  1
  Al  Al6  1  0.21255276  0.20887138  0.65510915  1
  Al  Al7  1  0.77992713  0.09630025  0.33318571  1
  Al  Al8  1  0.45123783  0.09410119  0.84170596  1
  Al  Al9  1  0.56387926  0.18765487  0.57505259  1
  Al  Al10  1  0.11076927  0.42644275  0.40101027  1
  Al  Al11  1  0.22192468  0.53964323  0.15317166  1
  Al  Al12  1  0.77682821  0.41942699  0.90609230  1
  Al  Al13  1  0.88776627  0.54802171  0.65843370  1
  Al  Al14  1  0.44120285  0.43316754  0.40136776  1
  Al  Al15  1  0.56077641  0.53502293  0.15298219  1
  Al  Al16  1  0.10067922  0.43709876  0.90457018  1
  Al  Al17  1  0.21671213  0.54111101  0.65061926  1
  Al  Al18  1  0.78087721  0.42647166  0.40143025  1
  Al  Al19  1  0.88056810  0.54143145  0.14890884  1
  Al  Al20  1  0.44333950  0.43211439  0.89915400  1
  Al  Al21  1  0.55726432  0.53731102  0.65399121  1
  Al  Al22  1  0.10557780  0.76425574  0.39660482  1
  Al  Al23  1  0.22016971  0.87708516  0.15350789  1
  Al  Al24  1  0.44782556  0.76126679  0.39857865  1
  Al  Al25  1  0.09915276  0.76692265  0.90123097  1
  Al  Al26  1  0.21842363  0.87383336  0.65134607  1
  Al  Al27  1  0.77993289  0.76260601  0.39223554  1
  Al  Al28  1  0.88498276  0.87576059  0.12976907  1
  Al  Al29  1  0.45098492  0.76407970  0.90645866  1
  Al  Al30  1  0.57193250  0.86475316  0.65545512  1
  B  B31  1  0.77388829  0.07986803  0.87140006  1
  B  B32  1  0.88826588  0.20964147  0.15859233  1
  B  B33  1  0.75726745  0.78219578  0.91582098  1
  B  B34  1  0.88875365  0.87426283  0.60040421  1
  B  B35  1  0.55795513  0.86453583  0.14476570  1
  N  N36  1  0.22154726  0.20640346  0.33664096  1
  N  N37  1  0.08181494  0.10602348  0.09742927  1
  N  N38  1  0.87035553  0.18122127  0.84300799  1
  N  N39  1  0.79741784  0.05746438  0.59423241  1
  N  N40  1  0.55585466  0.19960748  0.38535822  1
  N  N41  1  0.45655002  0.07074323  0.12442879  1
  N  N42  1  0.20691579  0.20963856  0.84863625  1
  N  N43  1  0.10807788  0.09465662  0.58891868  1
  N  N44  1  0.89726039  0.21318238  0.32458329  1
  N  N45  1  0.78567686  0.11331741  0.13989135  1
  N  N46  1  0.58391106  0.18964501  0.88819747  1
  N  N47  1  0.44455521  0.09616567  0.64736212  1
  N  N48  1  0.22205006  0.53930876  0.34164894  1
  N  N49  1  0.10703920  0.43245376  0.09120717  1
  N  N50  1  0.87276938  0.56416891  0.85123077  1
  N  N51  1  0.78187980  0.42304423  0.59431240  1
  N  N52  1  0.55796170  0.53656657  0.34057666  1
  N  N53  1  0.44164113  0.43067247  0.08932926  1
  N  N54  1  0.21925836  0.54023582  0.83813603  1
  N  N55  1  0.10778734  0.42807432  0.59069035  1
  N  N56  1  0.88935692  0.53935617  0.33836107  1
  N  N57  1  0.79017480  0.40191524  0.09656708  1
  N  N58  1  0.55629763  0.54072665  0.84273619  1
  N  N59  1  0.44299857  0.42993216  0.59251676  1
  N  N60  1  0.22375255  0.87147967  0.34239018  1
  N  N61  1  0.11669012  0.75900312  0.08844312  1
  N  N62  1  0.85691119  0.89193208  0.88704330  1
  N  N63  1  0.79360459  0.77375593  0.58519883  1
  N  N64  1  0.56538629  0.85712313  0.31897761  1
  N  N65  1  0.45507178  0.77336654  0.09682551  1
  N  N66  1  0.22373593  0.87076453  0.84143482  1
  N  N67  1  0.08434327  0.77349957  0.59180240  1
  N  N68  1  0.89354890  0.86319783  0.32424185  1
  N  N69  1  0.74721729  0.77277413  0.07982689  1
  N  N70  1  0.58270211  0.85735710  0.84718137  1
  N  N71  1  0.44878774  0.76221703  0.59028196  1
