# generated using pymatgen
data_Al31B5N36
_symmetry_space_group_name_H-M   'P 1'
_cell_length_a   9.18333615
_cell_length_b   9.24698997
_cell_length_c   10.17429573
_cell_angle_alpha   90.20221781
_cell_angle_beta   89.62222359
_cell_angle_gamma   59.79941717
_symmetry_Int_Tables_number   1
_chemical_formula_structural   Al31B5N36
_chemical_formula_sum   'Al31 B5 N36'
_cell_volume   746.67470462
_cell_formula_units_Z   1
loop_
 _symmetry_equiv_pos_site_id
 _symmetry_equiv_pos_as_xyz
  1  'x, y, z'
loop_
 _atom_site_type_symbol
 _atom_site_label
 _atom_site_symmetry_multiplicity
 _atom_site_fract_x
 _atom_site_fract_y
 _atom_site_fract_z
 _atom_site_occupancy
  Al  Al0  1  0.11778577  0.09317034  0.39735586  1
  Al  Al1  1  0.21901032  0.20209271  0.12581109  1
  Al  Al2  1  0.88650072  0.20152395  0.59305344  1
  Al  Al3  1  0.45612581  0.08426625  0.31068667  1
  Al  Al4  1  0.57529865  0.19818028  0.06016286  1
  Al  Al5  1  0.09043797  0.10064089  0.89028650  1
  Al  Al6  1  0.22086508  0.20129489  0.65096304  1
  Al  Al7  1  0.78235537  0.09539550  0.32035672  1
  Al  Al8  1  0.46894092  0.08017082  0.82845218  1
  Al  Al9  1  0.55735402  0.19670566  0.57041892  1
  Al  Al10  1  0.10793893  0.43380865  0.31758229  1
  Al  Al11  1  0.22756196  0.53500737  0.06461172  1
  Al  Al12  1  0.76875186  0.43860267  0.81404700  1
  Al  Al13  1  0.88864659  0.55027233  0.56835415  1
  Al  Al14  1  0.44400460  0.42320010  0.32020951  1
  Al  Al15  1  0.56305996  0.52967027  0.07561676  1
  Al  Al16  1  0.10063355  0.44054998  0.82522924  1
  Al  Al17  1  0.21100869  0.54824511  0.57309161  1
  Al  Al18  1  0.78368743  0.41790107  0.32608232  1
  Al  Al19  1  0.88245072  0.53730671  0.07259425  1
  Al  Al20  1  0.44842470  0.42746574  0.81540597  1
  Al  Al21  1  0.55673733  0.53453828  0.56711092  1
  Al  Al22  1  0.10809299  0.75726491  0.31261994  1
  Al  Al23  1  0.22248189  0.88245745  0.13648648  1
  Al  Al24  1  0.43704364  0.76489278  0.38047966  1
  Al  Al25  1  0.09278858  0.76112574  0.83734987  1
  Al  Al26  1  0.21840479  0.87494856  0.65122951  1
  Al  Al27  1  0.76944550  0.76086663  0.31736886  1
  Al  Al28  1  0.88609759  0.87075683  0.09219805  1
  Al  Al29  1  0.44342102  0.76701470  0.89404076  1
  Al  Al30  1  0.56367234  0.87474408  0.57216762  1
  B  B31  1  0.75699746  0.13495649  0.79932819  1
  B  B32  1  0.88781288  0.20585987  0.10674019  1
  B  B33  1  0.78040694  0.75878117  0.88138707  1
  B  B34  1  0.88151037  0.86892625  0.62850146  1
  B  B35  1  0.56515680  0.86748087  0.06973876  1
  N  N36  1  0.22146787  0.20109981  0.31987600  1
  N  N37  1  0.07774652  0.11180794  0.08031349  1
  N  N38  1  0.86850786  0.20217575  0.83197472  1
  N  N39  1  0.78239604  0.06996083  0.65131831  1
  N  N40  1  0.55626698  0.20151152  0.38188155  1
  N  N41  1  0.46942643  0.06663393  0.11407214  1
  N  N42  1  0.21918662  0.20299290  0.84688139  1
  N  N43  1  0.12148964  0.08891405  0.58430419  1
  N  N44  1  0.88172198  0.20531835  0.39709983  1
  N  N45  1  0.79596410  0.11239054  0.12645514  1
  N  N46  1  0.58584430  0.19734157  0.86923387  1
  N  N47  1  0.45227408  0.08861126  0.64148718  1
  N  N48  1  0.22005837  0.54147710  0.38478801  1
  N  N49  1  0.10599930  0.43710847  0.12591337  1
  N  N50  1  0.87032714  0.56126948  0.88345007  1
  N  N51  1  0.77560013  0.43785028  0.62882871  1
  N  N52  1  0.55673459  0.53307606  0.37541092  1
  N  N53  1  0.44816364  0.41873931  0.13101353  1
  N  N54  1  0.22880696  0.53240993  0.87964299  1
  N  N55  1  0.10660773  0.43296358  0.63562098  1
  N  N56  1  0.88697726  0.53802415  0.37923605  1
  N  N57  1  0.79543522  0.39596597  0.13112488  1
  N  N58  1  0.55466875  0.53556985  0.88656973  1
  N  N59  1  0.44358647  0.42645863  0.62878961  1
  N  N60  1  0.21914065  0.87957192  0.32494848  1
  N  N61  1  0.12157034  0.75332009  0.12071443  1
  N  N62  1  0.87796177  0.84146608  0.90369456  1
  N  N63  1  0.79228856  0.77870434  0.61205704  1
  N  N64  1  0.55328572  0.87692542  0.38504991  1
  N  N65  1  0.45369182  0.77697907  0.08758202  1
  N  N66  1  0.21804037  0.87507653  0.84080559  1
  N  N67  1  0.07492190  0.77698237  0.64118960  1
  N  N68  1  0.88358427  0.87189035  0.32969415  1
  N  N69  1  0.74607642  0.76384078  0.12924194  1
  N  N70  1  0.58763162  0.85959978  0.89850019  1
  N  N71  1  0.43972459  0.76237596  0.59185276  1
