# generated using pymatgen
data_Al31B5N36
_symmetry_space_group_name_H-M   'P 1'
_cell_length_a   9.11732947
_cell_length_b   9.17760117
_cell_length_c   10.40307751
_cell_angle_alpha   90.92432662
_cell_angle_beta   90.08057025
_cell_angle_gamma   59.99533224
_symmetry_Int_Tables_number   1
_chemical_formula_structural   Al31B5N36
_chemical_formula_sum   'Al31 B5 N36'
_cell_volume   753.70170778
_cell_formula_units_Z   1
loop_
 _symmetry_equiv_pos_site_id
 _symmetry_equiv_pos_as_xyz
  1  'x, y, z'
loop_
 _atom_site_type_symbol
 _atom_site_label
 _atom_site_symmetry_multiplicity
 _atom_site_fract_x
 _atom_site_fract_y
 _atom_site_fract_z
 _atom_site_occupancy
  Al  Al0  1  0.11867971  0.08998000  0.39569160  1
  Al  Al1  1  0.21092678  0.20913210  0.13625818  1
  Al  Al2  1  0.88541840  0.19830555  0.58518685  1
  Al  Al3  1  0.45615634  0.08293001  0.31522495  1
  Al  Al4  1  0.57131218  0.19659677  0.05965074  1
  Al  Al5  1  0.09376984  0.09460989  0.89084175  1
  Al  Al6  1  0.21048474  0.21209070  0.64792099  1
  Al  Al7  1  0.78159805  0.09670953  0.31749848  1
  Al  Al8  1  0.46428029  0.08223886  0.81509231  1
  Al  Al9  1  0.55601461  0.19853825  0.56619236  1
  Al  Al10  1  0.10860219  0.42309321  0.39295422  1
  Al  Al11  1  0.23037004  0.53936194  0.06331345  1
  Al  Al12  1  0.77133140  0.42615698  0.81492185  1
  Al  Al13  1  0.89004543  0.55528072  0.64352485  1
  Al  Al14  1  0.44302694  0.42531683  0.31689391  1
  Al  Al15  1  0.57002719  0.52714167  0.07162763  1
  Al  Al16  1  0.09986794  0.42941837  0.89310875  1
  Al  Al17  1  0.21727439  0.55171822  0.56963870  1
  Al  Al18  1  0.78031144  0.41855913  0.32613737  1
  Al  Al19  1  0.88548295  0.54780876  0.14685328  1
  Al  Al20  1  0.44978805  0.42446658  0.81543934  1
  Al  Al21  1  0.55918799  0.52958359  0.56596009  1
  Al  Al22  1  0.10700455  0.75822343  0.30975625  1
  Al  Al23  1  0.22457888  0.88158684  0.13671123  1
  Al  Al24  1  0.43483578  0.76515524  0.39361240  1
  Al  Al25  1  0.09468232  0.75750226  0.82806427  1
  Al  Al26  1  0.21732798  0.87681564  0.65171944  1
  Al  Al27  1  0.78520644  0.76600988  0.39062638  1
  Al  Al28  1  0.88109184  0.87414036  0.07090978  1
  Al  Al29  1  0.45340256  0.76665119  0.89087137  1
  Al  Al30  1  0.55339153  0.87817611  0.58349302  1
  B  B31  1  0.76390192  0.11445110  0.80549417  1
  B  B32  1  0.88827606  0.20419259  0.10569757  1
  B  B33  1  0.77385214  0.76413486  0.85804702  1
  B  B34  1  0.88423421  0.87260363  0.61531305  1
  B  B35  1  0.56176348  0.86953858  0.10377602  1
  N  N36  1  0.21686758  0.20771028  0.32013112  1
  N  N37  1  0.08010536  0.10862157  0.07904058  1
  N  N38  1  0.87090907  0.19118669  0.83776588  1
  N  N39  1  0.78211261  0.06707469  0.64731203  1
  N  N40  1  0.55511303  0.20484859  0.38038986  1
  N  N41  1  0.46429954  0.06586992  0.12137650  1
  N  N42  1  0.21201495  0.20523282  0.83432099  1
  N  N43  1  0.12087796  0.08659557  0.57974705  1
  N  N44  1  0.88209522  0.20806820  0.39530385  1
  N  N45  1  0.79494666  0.10857277  0.12607446  1
  N  N46  1  0.58242662  0.19375551  0.87029395  1
  N  N47  1  0.44285754  0.09971616  0.63408312  1
  N  N48  1  0.22359214  0.54637871  0.38420502  1
  N  N49  1  0.10441172  0.42892265  0.07680627  1
  N  N50  1  0.87706477  0.56790158  0.83154455  1
  N  N51  1  0.77534627  0.43097736  0.63163953  1
  N  N52  1  0.55783318  0.53188103  0.37915766  1
  N  N53  1  0.44861162  0.42083108  0.13060530  1
  N  N54  1  0.22985281  0.53429324  0.87881170  1
  N  N55  1  0.10749248  0.42506822  0.57835167  1
  N  N56  1  0.88997516  0.54316566  0.33106406  1
  N  N57  1  0.79567520  0.39319846  0.13394856  1
  N  N58  1  0.55906898  0.53206102  0.88908728  1
  N  N59  1  0.44415558  0.42604173  0.63169646  1
  N  N60  1  0.22561353  0.87758550  0.31906226  1
  N  N61  1  0.11168728  0.75742373  0.12188977  1
  N  N62  1  0.86981587  0.85775231  0.88499462  1
  N  N63  1  0.79505489  0.77613566  0.58489546  1
  N  N64  1  0.55144518  0.87924431  0.39276703  1
  N  N65  1  0.45829138  0.77975485  0.08237653  1
  N  N66  1  0.22495374  0.86959030  0.83651514  1
  N  N67  1  0.07477379  0.77530541  0.63935722  1
  N  N68  1  0.89037580  0.87995662  0.35594239  1
  N  N69  1  0.74469414  0.77594832  0.11109023  1
  N  N70  1  0.58958345  0.85127221  0.83715975  1
  N  N71  1  0.43261898  0.76033682  0.58266917  1
