# generated using pymatgen
data_Al31B5N36
_symmetry_space_group_name_H-M   'P 1'
_cell_length_a   9.17685721
_cell_length_b   9.17710213
_cell_length_c   9.79396385
_cell_angle_alpha   90.07293500
_cell_angle_beta   90.06281504
_cell_angle_gamma   60.03990440
_symmetry_Int_Tables_number   1
_chemical_formula_structural   Al31B5N36
_chemical_formula_sum   'Al31 B5 N36'
_cell_volume   714.59956081
_cell_formula_units_Z   1
loop_
 _symmetry_equiv_pos_site_id
 _symmetry_equiv_pos_as_xyz
  1  'x, y, z'
loop_
 _atom_site_type_symbol
 _atom_site_label
 _atom_site_symmetry_multiplicity
 _atom_site_fract_x
 _atom_site_fract_y
 _atom_site_fract_z
 _atom_site_occupancy
  Al  Al0  1  0.10553135  0.09539488  0.40044111  1
  Al  Al1  1  0.21914964  0.20198413  0.15621606  1
  Al  Al2  1  0.88678740  0.19542669  0.65932643  1
  Al  Al3  1  0.44668850  0.09030879  0.40035922  1
  Al  Al4  1  0.56337453  0.19959589  0.15174923  1
  Al  Al5  1  0.10113745  0.09408009  0.91132315  1
  Al  Al6  1  0.22153675  0.20342941  0.65714213  1
  Al  Al7  1  0.78098146  0.08807455  0.40223713  1
  Al  Al8  1  0.45700163  0.08352020  0.91200402  1
  Al  Al9  1  0.56533769  0.19468440  0.66180914  1
  Al  Al10  1  0.10804065  0.42796369  0.40728031  1
  Al  Al11  1  0.22013874  0.54108219  0.15836700  1
  Al  Al12  1  0.77776602  0.42205915  0.91005486  1
  Al  Al13  1  0.88555045  0.54878154  0.66164891  1
  Al  Al14  1  0.44503431  0.42523589  0.40769338  1
  Al  Al15  1  0.56050255  0.53602059  0.15735858  1
  Al  Al16  1  0.10637937  0.43329783  0.90799373  1
  Al  Al17  1  0.21695392  0.54151071  0.65693019  1
  Al  Al18  1  0.77999153  0.42293305  0.40100597  1
  Al  Al19  1  0.88246763  0.54119499  0.15043695  1
  Al  Al20  1  0.44774173  0.42452434  0.90751968  1
  Al  Al21  1  0.55683436  0.53855517  0.65715603  1
  Al  Al22  1  0.10187637  0.76499799  0.41065548  1
  Al  Al23  1  0.21783699  0.87565246  0.15642842  1
  Al  Al24  1  0.44645552  0.76212616  0.39984202  1
  Al  Al25  1  0.10004650  0.76590144  0.89894316  1
  Al  Al26  1  0.21820218  0.87376134  0.65647687  1
  Al  Al27  1  0.77786891  0.76488626  0.40187184  1
  Al  Al28  1  0.88226989  0.87777070  0.14153577  1
  Al  Al29  1  0.45134009  0.76239817  0.91128701  1
  Al  Al30  1  0.56518634  0.87048116  0.65939381  1
  B  B31  1  0.77569677  0.09846191  0.91031143  1
  B  B32  1  0.88798567  0.20463487  0.15287222  1
  B  B33  1  0.76323034  0.77065189  0.91078454  1
  B  B34  1  0.88026962  0.87611265  0.65998431  1
  B  B35  1  0.55396743  0.87279233  0.15444085  1
  N  N36  1  0.22117119  0.20484561  0.34789839  1
  N  N37  1  0.08388335  0.10656364  0.10456860  1
  N  N38  1  0.87470737  0.19102276  0.85069370  1
  N  N39  1  0.79036461  0.06638712  0.59872877  1
  N  N40  1  0.55789328  0.20341360  0.34503981  1
  N  N41  1  0.45490506  0.06897967  0.10502689  1
  N  N42  1  0.22261080  0.20266255  0.85261217  1
  N  N43  1  0.10654503  0.09568403  0.59471075  1
  N  N44  1  0.88530741  0.20248449  0.32362557  1
  N  N45  1  0.78793843  0.10482459  0.08023972  1
  N  N46  1  0.58026993  0.19203386  0.85873401  1
  N  N47  1  0.44576465  0.09172203  0.59699960  1
  N  N48  1  0.22018130  0.54075164  0.35236916  1
  N  N49  1  0.11060680  0.42747087  0.09914658  1
  N  N50  1  0.87306528  0.56489965  0.85827684  1
  N  N51  1  0.78172471  0.42303042  0.59797821  1
  N  N52  1  0.55548604  0.53730249  0.34842860  1
  N  N53  1  0.44340094  0.42747376  0.09925781  1
  N  N54  1  0.22351555  0.53727626  0.84738073  1
  N  N55  1  0.10768889  0.42737823  0.60045122  1
  N  N56  1  0.88584282  0.54129579  0.34455060  1
  N  N57  1  0.79036771  0.40104816  0.10307184  1
  N  N58  1  0.55584096  0.53993863  0.85060130  1
  N  N59  1  0.44630608  0.42321651  0.60158682  1
  N  N60  1  0.22031596  0.86980673  0.34921101  1
  N  N61  1  0.10997098  0.76087220  0.09179471  1
  N  N62  1  0.86529967  0.88406156  0.84469006  1
  N  N63  1  0.78986175  0.77505301  0.59874358  1
  N  N64  1  0.55924372  0.86984118  0.32380980  1
  N  N65  1  0.45553108  0.77336573  0.10561113  1
  N  N66  1  0.22531864  0.87193256  0.84986759  1
  N  N67  1  0.08253741  0.77511498  0.60903127  1
  N  N68  1  0.88771945  0.87158229  0.33379127  1
  N  N69  1  0.75280547  0.77369922  0.08127341  1
  N  N70  1  0.57972535  0.85920797  0.85090894  1
  N  N71  1  0.44692636  0.76280215  0.59543959  1
