# generated using pymatgen
data_Al31B5N36
_symmetry_space_group_name_H-M   'P 1'
_cell_length_a   9.18375402
_cell_length_b   9.19230321
_cell_length_c   10.10065560
_cell_angle_alpha   89.92468416
_cell_angle_beta   89.47615714
_cell_angle_gamma   59.83805075
_symmetry_Int_Tables_number   1
_chemical_formula_structural   Al31B5N36
_chemical_formula_sum   'Al31 B5 N36'
_cell_volume   737.21210704
_cell_formula_units_Z   1
loop_
 _symmetry_equiv_pos_site_id
 _symmetry_equiv_pos_as_xyz
  1  'x, y, z'
loop_
 _atom_site_type_symbol
 _atom_site_label
 _atom_site_symmetry_multiplicity
 _atom_site_fract_x
 _atom_site_fract_y
 _atom_site_fract_z
 _atom_site_occupancy
  Al  Al0  1  0.11267731  0.08586408  0.38722567  1
  Al  Al1  1  0.22485982  0.20485178  0.06019763  1
  Al  Al2  1  0.88511953  0.20033759  0.58792801  1
  Al  Al3  1  0.44886231  0.08932093  0.30515258  1
  Al  Al4  1  0.57154721  0.20067080  0.05279673  1
  Al  Al5  1  0.08951935  0.09656997  0.87718602  1
  Al  Al6  1  0.22919394  0.20780474  0.56302447  1
  Al  Al7  1  0.78114058  0.09543237  0.31253034  1
  Al  Al8  1  0.45842727  0.08462127  0.81544647  1
  Al  Al9  1  0.55994480  0.19748462  0.56110587  1
  Al  Al10  1  0.11133064  0.42829546  0.31068300  1
  Al  Al11  1  0.22649792  0.53450388  0.05633597  1
  Al  Al12  1  0.77301238  0.43252284  0.80585543  1
  Al  Al13  1  0.88848936  0.54955842  0.55959040  1
  Al  Al14  1  0.44424888  0.42714164  0.31152728  1
  Al  Al15  1  0.56235142  0.53438554  0.06126936  1
  Al  Al16  1  0.10716395  0.42972482  0.80929515  1
  Al  Al17  1  0.21234545  0.54921736  0.56151070  1
  Al  Al18  1  0.78257356  0.42051744  0.31727432  1
  Al  Al19  1  0.88533908  0.53815177  0.06403913  1
  Al  Al20  1  0.44971339  0.42528094  0.80612823  1
  Al  Al21  1  0.55433503  0.54425614  0.55732629  1
  Al  Al22  1  0.10575330  0.75979717  0.30378432  1
  Al  Al23  1  0.21761463  0.88365229  0.11763638  1
  Al  Al24  1  0.45317488  0.76289502  0.30400538  1
  Al  Al25  1  0.09281080  0.75853976  0.82560519  1
  Al  Al26  1  0.21479253  0.87692494  0.64293983  1
  Al  Al27  1  0.77286125  0.76477767  0.31090826  1
  Al  Al28  1  0.88230249  0.87684044  0.07069887  1
  Al  Al29  1  0.45677586  0.75797159  0.82367917  1
  Al  Al30  1  0.56247381  0.87303236  0.56382674  1
  B  B31  1  0.76125221  0.11632885  0.79512046  1
  B  B32  1  0.88711720  0.20735635  0.09774474  1
  B  B33  1  0.77655394  0.76363158  0.86245429  1
  B  B34  1  0.88065646  0.86839592  0.61492326  1
  B  B35  1  0.56498081  0.86506739  0.06118778  1
  N  N36  1  0.22700257  0.20704415  0.36883736  1
  N  N37  1  0.07521129  0.11371252  0.07219524  1
  N  N38  1  0.86856299  0.19549965  0.82212870  1
  N  N39  1  0.78202832  0.06575776  0.64062207  1
  N  N40  1  0.55577817  0.20377103  0.37133120  1
  N  N41  1  0.46248967  0.06945182  0.10954730  1
  N  N42  1  0.22332492  0.20351275  0.87078532  1
  N  N43  1  0.11850013  0.08722587  0.57767808  1
  N  N44  1  0.87897686  0.20742518  0.38746160  1
  N  N45  1  0.79393683  0.11250098  0.11737662  1
  N  N46  1  0.58247233  0.19442802  0.86057193  1
  N  N47  1  0.44615068  0.09309211  0.62863077  1
  N  N48  1  0.22059884  0.54239720  0.37311926  1
  N  N49  1  0.11148709  0.42770742  0.12143822  1
  N  N50  1  0.87432272  0.56261033  0.87237621  1
  N  N51  1  0.77549898  0.43724218  0.61943293  1
  N  N52  1  0.55383456  0.54253619  0.36713760  1
  N  N53  1  0.44744987  0.42344655  0.12084296  1
  N  N54  1  0.22761469  0.52993039  0.86953502  1
  N  N55  1  0.10970011  0.42915332  0.62262448  1
  N  N56  1  0.88771409  0.53951968  0.36892686  1
  N  N57  1  0.79391144  0.39846500  0.12043796  1
  N  N58  1  0.55656837  0.53546435  0.87587224  1
  N  N59  1  0.44427332  0.42940276  0.61794305  1
  N  N60  1  0.22097205  0.87790781  0.31041539  1
  N  N61  1  0.11265330  0.75567065  0.10895787  1
  N  N62  1  0.86815606  0.85808456  0.88186283  1
  N  N63  1  0.79003142  0.77630802  0.61052893  1
  N  N64  1  0.55250868  0.87414909  0.37688914  1
  N  N65  1  0.46361722  0.77162076  0.10801437  1
  N  N66  1  0.21821826  0.87071141  0.83697521  1
  N  N67  1  0.07534099  0.77552434  0.62987115  1
  N  N68  1  0.88563590  0.87393548  0.34197802  1
  N  N69  1  0.75080005  0.76923226  0.11913954  1
  N  N70  1  0.58230045  0.85864094  0.89074654  1
  N  N71  1  0.45181415  0.76027854  0.63064803  1
