# generated using pymatgen
data_Al31B5N36
_symmetry_space_group_name_H-M   'P 1'
_cell_length_a   9.17539083
_cell_length_b   9.23869208
_cell_length_c   10.26417273
_cell_angle_alpha   90.50860183
_cell_angle_beta   89.78333664
_cell_angle_gamma   59.81749385
_symmetry_Int_Tables_number   1
_chemical_formula_structural   Al31B5N36
_chemical_formula_sum   'Al31 B5 N36'
_cell_volume   752.05768184
_cell_formula_units_Z   1
loop_
 _symmetry_equiv_pos_site_id
 _symmetry_equiv_pos_as_xyz
  1  'x, y, z'
loop_
 _atom_site_type_symbol
 _atom_site_label
 _atom_site_symmetry_multiplicity
 _atom_site_fract_x
 _atom_site_fract_y
 _atom_site_fract_z
 _atom_site_occupancy
  Al  Al0  1  0.11599493  0.09268956  0.39819683  1
  Al  Al1  1  0.21371145  0.20626449  0.13237708  1
  Al  Al2  1  0.88557963  0.20242352  0.59132874  1
  Al  Al3  1  0.45462291  0.08604184  0.31690454  1
  Al  Al4  1  0.57532646  0.19471965  0.05922473  1
  Al  Al5  1  0.09278773  0.09743267  0.89022504  1
  Al  Al6  1  0.21609499  0.20802330  0.64955612  1
  Al  Al7  1  0.78183813  0.09618911  0.31893762  1
  Al  Al8  1  0.47215247  0.07696754  0.81759332  1
  Al  Al9  1  0.55661917  0.19949060  0.56846226  1
  Al  Al10  1  0.11228903  0.42778658  0.36328213  1
  Al  Al11  1  0.23011482  0.53597372  0.06374523  1
  Al  Al12  1  0.76900140  0.43742856  0.81436581  1
  Al  Al13  1  0.88466545  0.55301823  0.57073589  1
  Al  Al14  1  0.44483006  0.42497717  0.31815411  1
  Al  Al15  1  0.56466929  0.52699547  0.07390452  1
  Al  Al16  1  0.10586858  0.43021871  0.86509325  1
  Al  Al17  1  0.21326012  0.55183033  0.57545691  1
  Al  Al18  1  0.78209611  0.41921106  0.32446139  1
  Al  Al19  1  0.87842487  0.53865750  0.07253443  1
  Al  Al20  1  0.45009113  0.42689420  0.81518887  1
  Al  Al21  1  0.55768887  0.53279776  0.56611357  1
  Al  Al22  1  0.10819135  0.75836687  0.31104544  1
  Al  Al23  1  0.22349287  0.88277421  0.13768083  1
  Al  Al24  1  0.43306791  0.76698667  0.39271918  1
  Al  Al25  1  0.09205554  0.76041484  0.83437060  1
  Al  Al26  1  0.21792796  0.87696460  0.65224587  1
  Al  Al27  1  0.77042773  0.76247506  0.32275467  1
  Al  Al28  1  0.88670015  0.86972987  0.08808075  1
  Al  Al29  1  0.44970982  0.76872085  0.89283233  1
  Al  Al30  1  0.56328387  0.87651009  0.57569935  1
  B  B31  1  0.75749871  0.13429439  0.79937914  1
  B  B32  1  0.88823191  0.20436248  0.10572760  1
  B  B33  1  0.77565292  0.75871206  0.87157630  1
  B  B34  1  0.88204269  0.87063319  0.62658960  1
  B  B35  1  0.55848793  0.86771024  0.10429300  1
  N  N36  1  0.21833264  0.20450569  0.32087257  1
  N  N37  1  0.07889648  0.11023111  0.08011333  1
  N  N38  1  0.86922309  0.20063447  0.83419626  1
  N  N39  1  0.78132283  0.07224693  0.65097409  1
  N  N40  1  0.55564279  0.20435021  0.38114167  1
  N  N41  1  0.46859615  0.06194900  0.12096105  1
  N  N42  1  0.22096972  0.19868438  0.84030274  1
  N  N43  1  0.12034569  0.08947951  0.58327038  1
  N  N44  1  0.88033416  0.20720180  0.39638686  1
  N  N45  1  0.79603513  0.11076931  0.12576197  1
  N  N46  1  0.58540455  0.19555999  0.86902584  1
  N  N47  1  0.44774401  0.09501047  0.63405868  1
  N  N48  1  0.22376320  0.54611941  0.38559503  1
  N  N49  1  0.10892240  0.42994423  0.09477859  1
  N  N50  1  0.86824005  0.55982501  0.88308377  1
  N  N51  1  0.77444139  0.43836851  0.63062693  1
  N  N52  1  0.55672145  0.53402422  0.37570724  1
  N  N53  1  0.44949096  0.41683146  0.13049837  1
  N  N54  1  0.23148536  0.53383339  0.87768951  1
  N  N55  1  0.11013965  0.42906088  0.60758099  1
  N  N56  1  0.88246017  0.54046906  0.37937625  1
  N  N57  1  0.79529458  0.39498411  0.13168500  1
  N  N58  1  0.55497936  0.53544631  0.88859264  1
  N  N59  1  0.44510395  0.42727381  0.63029865  1
  N  N60  1  0.22089674  0.88048505  0.32353921  1
  N  N61  1  0.12204984  0.75338327  0.12165394  1
  N  N62  1  0.87781175  0.83817714  0.90322746  1
  N  N63  1  0.79408696  0.78089883  0.60592708  1
  N  N64  1  0.55229656  0.87778185  0.38697585  1
  N  N65  1  0.45671316  0.77910959  0.08692169  1
  N  N66  1  0.22204291  0.87225041  0.83997190  1
  N  N67  1  0.07511123  0.77908311  0.64190483  1
  N  N68  1  0.88440680  0.87333810  0.33124189  1
  N  N69  1  0.74336271  0.76558309  0.13272232  1
  N  N70  1  0.59155636  0.85154381  0.85645908  1
  N  N71  1  0.43536595  0.76336545  0.58377916  1
