# generated using pymatgen
data_Al31B5N36
_symmetry_space_group_name_H-M   'P 1'
_cell_length_a   9.19766234
_cell_length_b   9.19884561
_cell_length_c   9.82375655
_cell_angle_alpha   89.71491177
_cell_angle_beta   89.40452877
_cell_angle_gamma   59.98617168
_symmetry_Int_Tables_number   1
_chemical_formula_structural   Al31B5N36
_chemical_formula_sum   'Al31 B5 N36'
_cell_volume   719.67267411
_cell_formula_units_Z   1
loop_
 _symmetry_equiv_pos_site_id
 _symmetry_equiv_pos_as_xyz
  1  'x, y, z'
loop_
 _atom_site_type_symbol
 _atom_site_label
 _atom_site_symmetry_multiplicity
 _atom_site_fract_x
 _atom_site_fract_y
 _atom_site_fract_z
 _atom_site_occupancy
  Al  Al0  1  0.10622357  0.09657609  0.36697200  1
  Al  Al1  1  0.21844262  0.20317904  0.06261023  1
  Al  Al2  1  0.88320302  0.19971397  0.59644651  1
  Al  Al3  1  0.44922636  0.08781018  0.30484255  1
  Al  Al4  1  0.57120863  0.20003113  0.05504712  1
  Al  Al5  1  0.10106301  0.09332606  0.82575443  1
  Al  Al6  1  0.22798195  0.20725868  0.56612719  1
  Al  Al7  1  0.78159277  0.09235131  0.32289906  1
  Al  Al8  1  0.45499039  0.08701095  0.81918396  1
  Al  Al9  1  0.56013466  0.19691019  0.56413902  1
  Al  Al10  1  0.10967656  0.42964573  0.31094453  1
  Al  Al11  1  0.22140880  0.54026193  0.06018907  1
  Al  Al12  1  0.77536172  0.42757058  0.81029121  1
  Al  Al13  1  0.88709009  0.54881560  0.56755105  1
  Al  Al14  1  0.44462180  0.42591400  0.31136650  1
  Al  Al15  1  0.56300910  0.53420056  0.06390428  1
  Al  Al16  1  0.10665155  0.43342762  0.81218279  1
  Al  Al17  1  0.21762279  0.54289136  0.56230466  1
  Al  Al18  1  0.78200954  0.42273874  0.31817817  1
  Al  Al19  1  0.88308683  0.54427414  0.05839169  1
  Al  Al20  1  0.45199306  0.42247959  0.81021632  1
  Al  Al21  1  0.55612410  0.54103481  0.55866587  1
  Al  Al22  1  0.10372355  0.76342360  0.31912891  1
  Al  Al23  1  0.21717244  0.87702765  0.06501241  1
  Al  Al24  1  0.44784634  0.76522538  0.30604090  1
  Al  Al25  1  0.09724615  0.76671001  0.80921435  1
  Al  Al26  1  0.22295599  0.86467264  0.56751458  1
  Al  Al27  1  0.77324707  0.76677517  0.31468182  1
  Al  Al28  1  0.88054949  0.88253785  0.05516714  1
  Al  Al29  1  0.45172313  0.75948488  0.82099712  1
  Al  Al30  1  0.56036720  0.87213297  0.56989715  1
  B  B31  1  0.77514717  0.08339461  0.79708483  1
  B  B32  1  0.89357093  0.20268602  0.10338904  1
  B  B33  1  0.77618970  0.77354350  0.81177179  1
  B  B34  1  0.88218389  0.87304624  0.57308743  1
  B  B35  1  0.56607785  0.86933283  0.05472758  1
  N  N36  1  0.22668518  0.20667616  0.36814188  1
  N  N37  1  0.07904514  0.10996555  0.10055644  1
  N  N38  1  0.87048890  0.18850273  0.81968742  1
  N  N39  1  0.78328827  0.06157951  0.63018606  1
  N  N40  1  0.55509420  0.20243075  0.36995371  1
  N  N41  1  0.46072652  0.06958818  0.10694289  1
  N  N42  1  0.21989560  0.20588739  0.86991737  1
  N  N43  1  0.11734664  0.09090921  0.60485274  1
  N  N44  1  0.87947966  0.20853054  0.39053089  1
  N  N45  1  0.79518531  0.10730136  0.12463957  1
  N  N46  1  0.58288857  0.19075810  0.86085982  1
  N  N47  1  0.44513607  0.09287785  0.62810844  1
  N  N48  1  0.22171113  0.53892990  0.37074461  1
  N  N49  1  0.10833661  0.42948964  0.11875874  1
  N  N50  1  0.87593975  0.56596022  0.86502825  1
  N  N51  1  0.77460067  0.43672788  0.61940547  1
  N  N52  1  0.55437133  0.54153330  0.36437786  1
  N  N53  1  0.44522481  0.42440953  0.11835460  1
  N  N54  1  0.22367804  0.53968922  0.86819897  1
  N  N55  1  0.11031269  0.42905263  0.62149071  1
  N  N56  1  0.88674586  0.54322324  0.37167043  1
  N  N57  1  0.79524278  0.39808814  0.11830659  1
  N  N58  1  0.55718443  0.53625693  0.87497990  1
  N  N59  1  0.44602498  0.42661666  0.61768306  1
  N  N60  1  0.22578346  0.86598935  0.36986603  1
  N  N61  1  0.10296449  0.76353403  0.12371143  1
  N  N62  1  0.86398666  0.88356932  0.86225692  1
  N  N63  1  0.78589312  0.77403090  0.63982671  1
  N  N64  1  0.55457390  0.87275030  0.37870647  1
  N  N65  1  0.45892532  0.77423789  0.11013232  1
  N  N66  1  0.22152117  0.86732454  0.87162486  1
  N  N67  1  0.08389781  0.77304995  0.61660076  1
  N  N68  1  0.88345847  0.87221631  0.39825341  1
  N  N69  1  0.75431510  0.77706991  0.11859857  1
  N  N70  1  0.58171037  0.85973174  0.88245174  1
  N  N71  1  0.44589783  0.75987479  0.62753715  1
