# generated using pymatgen
data_Al31B5N36
_symmetry_space_group_name_H-M   'P 1'
_cell_length_a   9.17206892
_cell_length_b   9.15026243
_cell_length_c   10.19036836
_cell_angle_alpha   90.08968301
_cell_angle_beta   89.47172429
_cell_angle_gamma   60.01234641
_symmetry_Int_Tables_number   1
_chemical_formula_structural   Al31B5N36
_chemical_formula_sum   'Al31 B5 N36'
_cell_volume   740.70605999
_cell_formula_units_Z   1
loop_
 _symmetry_equiv_pos_site_id
 _symmetry_equiv_pos_as_xyz
  1  'x, y, z'
loop_
 _atom_site_type_symbol
 _atom_site_label
 _atom_site_symmetry_multiplicity
 _atom_site_fract_x
 _atom_site_fract_y
 _atom_site_fract_z
 _atom_site_occupancy
  Al  Al0  1  0.11541671  0.09330143  0.39706899  1
  Al  Al1  1  0.21201514  0.20598429  0.13225594  1
  Al  Al2  1  0.88750029  0.19982958  0.61462849  1
  Al  Al3  1  0.45476856  0.08191830  0.31389755  1
  Al  Al4  1  0.57286296  0.19259675  0.05651610  1
  Al  Al5  1  0.09737189  0.09521895  0.88369917  1
  Al  Al6  1  0.21369823  0.21302677  0.64517414  1
  Al  Al7  1  0.78121781  0.10480004  0.31486585  1
  Al  Al8  1  0.46133314  0.08404991  0.81425242  1
  Al  Al9  1  0.56244252  0.19534691  0.56643932  1
  Al  Al10  1  0.11127802  0.42450329  0.38961062  1
  Al  Al11  1  0.21955421  0.53946772  0.13873969  1
  Al  Al12  1  0.77997171  0.42094161  0.88085831  1
  Al  Al13  1  0.88846580  0.55412518  0.64283485  1
  Al  Al14  1  0.44544706  0.42619523  0.35449712  1
  Al  Al15  1  0.56248615  0.53449742  0.13346452  1
  Al  Al16  1  0.10325988  0.43798963  0.89262040  1
  Al  Al17  1  0.21489015  0.54477460  0.63732176  1
  Al  Al18  1  0.77662402  0.43116934  0.40054605  1
  Al  Al19  1  0.88003438  0.53774064  0.14162192  1
  Al  Al20  1  0.44946050  0.41935358  0.84588379  1
  Al  Al21  1  0.55585102  0.54422006  0.64617180  1
  Al  Al22  1  0.10194387  0.76933671  0.38846533  1
  Al  Al23  1  0.21676208  0.87800849  0.13791204  1
  Al  Al24  1  0.43922122  0.75800486  0.39211621  1
  Al  Al25  1  0.09853861  0.76608397  0.88919477  1
  Al  Al26  1  0.21504536  0.87474583  0.64626871  1
  Al  Al27  1  0.78307296  0.76181618  0.37973775  1
  Al  Al28  1  0.88305062  0.87009873  0.12765710  1
  Al  Al29  1  0.45440452  0.76467783  0.88857301  1
  Al  Al30  1  0.55648334  0.87593395  0.58425963  1
  B  B31  1  0.77584985  0.07603145  0.80271538  1
  B  B32  1  0.88705843  0.20524510  0.09376662  1
  B  B33  1  0.77263539  0.77506711  0.84678764  1
  B  B34  1  0.88735231  0.86993626  0.60901411  1
  B  B35  1  0.56056619  0.86711671  0.10105640  1
  N  N36  1  0.21900419  0.20550816  0.32015634  1
  N  N37  1  0.07886697  0.10818667  0.07728427  1
  N  N38  1  0.87685557  0.18982209  0.81831493  1
  N  N39  1  0.78453437  0.06057969  0.63977770  1
  N  N40  1  0.56010194  0.19710279  0.37739340  1
  N  N41  1  0.46433695  0.06220604  0.11816095  1
  N  N42  1  0.21393136  0.20993672  0.83627074  1
  N  N43  1  0.12067866  0.09092088  0.58346068  1
  N  N44  1  0.88515889  0.20186594  0.39385453  1
  N  N45  1  0.79293197  0.11394333  0.12290379  1
  N  N46  1  0.58748283  0.18415853  0.86778305  1
  N  N47  1  0.44306505  0.10001265  0.62965084  1
  N  N48  1  0.21679820  0.54326428  0.32972213  1
  N  N49  1  0.10492791  0.43200948  0.07804438  1
  N  N50  1  0.87614308  0.57077754  0.83300907  1
  N  N51  1  0.77592262  0.44244020  0.58831669  1
  N  N52  1  0.56159959  0.53867145  0.32259092  1
  N  N53  1  0.44519323  0.42197875  0.09509482  1
  N  N54  1  0.21693879  0.54221284  0.82502660  1
  N  N55  1  0.10929557  0.42957825  0.57667565  1
  N  N56  1  0.88985920  0.53438221  0.32859724  1
  N  N57  1  0.79362999  0.39717130  0.07397229  1
  N  N58  1  0.55710982  0.54161712  0.83367523  1
  N  N59  1  0.44789706  0.42528615  0.60597827  1
  N  N60  1  0.22073981  0.87326259  0.32515184  1
  N  N61  1  0.11118413  0.76023251  0.07517210  1
  N  N62  1  0.86380488  0.87617281  0.84844223  1
  N  N63  1  0.79946896  0.77464115  0.57468312  1
  N  N64  1  0.55257090  0.87509405  0.38890611  1
  N  N65  1  0.45552311  0.77694900  0.08050624  1
  N  N66  1  0.22447202  0.86944431  0.83290064  1
  N  N67  1  0.07997320  0.78038738  0.58199111  1
  N  N68  1  0.89038248  0.87141601  0.31671636  1
  N  N69  1  0.74293102  0.77180449  0.10793547  1
  N  N70  1  0.58890266  0.85226019  0.82937509  1
  N  N71  1  0.43392755  0.75803107  0.58033933  1
