# generated using pymatgen
data_Al31B5N36
_symmetry_space_group_name_H-M   'P 1'
_cell_length_a   9.17090326
_cell_length_b   9.21621381
_cell_length_c   9.97647570
_cell_angle_alpha   89.38649527
_cell_angle_beta   89.78508608
_cell_angle_gamma   60.25297508
_symmetry_Int_Tables_number   1
_chemical_formula_structural   Al31B5N36
_chemical_formula_sum   'Al31 B5 N36'
_cell_volume   732.06270029
_cell_formula_units_Z   1
loop_
 _symmetry_equiv_pos_site_id
 _symmetry_equiv_pos_as_xyz
  1  'x, y, z'
loop_
 _atom_site_type_symbol
 _atom_site_label
 _atom_site_symmetry_multiplicity
 _atom_site_fract_x
 _atom_site_fract_y
 _atom_site_fract_z
 _atom_site_occupancy
  Al  Al0  1  0.10970684  0.09631537  0.40025091  1
  Al  Al1  1  0.21599502  0.20472915  0.15018226  1
  Al  Al2  1  0.88735294  0.18928463  0.64929540  1
  Al  Al3  1  0.44363738  0.08745696  0.38800161  1
  Al  Al4  1  0.56573237  0.20241504  0.10101953  1
  Al  Al5  1  0.09754085  0.09120933  0.90477169  1
  Al  Al6  1  0.22466013  0.20057264  0.65120806  1
  Al  Al7  1  0.78207753  0.09590061  0.33685939  1
  Al  Al8  1  0.44769539  0.08739383  0.90580372  1
  Al  Al9  1  0.56839040  0.19224089  0.57607801  1
  Al  Al10  1  0.10887331  0.42788637  0.39804425  1
  Al  Al11  1  0.21979042  0.54080718  0.15112123  1
  Al  Al12  1  0.77894497  0.41017317  0.90307986  1
  Al  Al13  1  0.89214404  0.53530378  0.65486255  1
  Al  Al14  1  0.44029714  0.43626612  0.39842671  1
  Al  Al15  1  0.56011826  0.53833195  0.15093235  1
  Al  Al16  1  0.10641558  0.42470523  0.89917093  1
  Al  Al17  1  0.21554747  0.53952620  0.64932888  1
  Al  Al18  1  0.78012903  0.42697011  0.39693035  1
  Al  Al19  1  0.88145677  0.54116470  0.14035974  1
  Al  Al20  1  0.44201841  0.43126434  0.89813701  1
  Al  Al21  1  0.55911431  0.53640150  0.65234769  1
  Al  Al22  1  0.10631255  0.76364886  0.39572377  1
  Al  Al23  1  0.21933253  0.87889700  0.15201665  1
  Al  Al24  1  0.44813852  0.76263695  0.39700493  1
  Al  Al25  1  0.09697297  0.76601150  0.90079876  1
  Al  Al26  1  0.22056748  0.87149749  0.65071668  1
  Al  Al27  1  0.77860945  0.76281196  0.38878016  1
  Al  Al28  1  0.88601250  0.88050280  0.13159902  1
  Al  Al29  1  0.45293488  0.76107965  0.90565754  1
  Al  Al30  1  0.57363806  0.86972829  0.65541065  1
  B  B31  1  0.76754973  0.08813550  0.87317053  1
  B  B32  1  0.88887187  0.21133834  0.15865161  1
  B  B33  1  0.73802430  0.82502732  0.92995275  1
  B  B34  1  0.89035200  0.87003804  0.59791415  1
  B  B35  1  0.54987984  0.87448711  0.15028362  1
  N  N36  1  0.22107375  0.20683461  0.33830471  1
  N  N37  1  0.08310076  0.10838039  0.09650009  1
  N  N38  1  0.86864150  0.17838728  0.84221682  1
  N  N39  1  0.80023962  0.05378710  0.59043970  1
  N  N40  1  0.55571390  0.20760700  0.37512885  1
  N  N41  1  0.45158514  0.07114360  0.10010507  1
  N  N42  1  0.22568845  0.19533893  0.84394754  1
  N  N43  1  0.10960186  0.09283295  0.59084661  1
  N  N44  1  0.89732116  0.21432100  0.32411059  1
  N  N45  1  0.78841319  0.11437087  0.13954394  1
  N  N46  1  0.57927072  0.19293192  0.88715917  1
  N  N47  1  0.44494070  0.08378354  0.58600870  1
  N  N48  1  0.21993642  0.54157407  0.34085017  1
  N  N49  1  0.11010925  0.42892509  0.08915677  1
  N  N50  1  0.89126011  0.51649087  0.83942371  1
  N  N51  1  0.78069916  0.41813250  0.58817249  1
  N  N52  1  0.55596310  0.54153324  0.33948718  1
  N  N53  1  0.43994337  0.43474716  0.09064127  1
  N  N54  1  0.21576152  0.54114393  0.83843859  1
  N  N55  1  0.11265020  0.42248351  0.58786762  1
  N  N56  1  0.88665936  0.54248028  0.33307874  1
  N  N57  1  0.78850626  0.40276479  0.09600353  1
  N  N58  1  0.55546886  0.54065527  0.84289593  1
  N  N59  1  0.44314275  0.42935837  0.59299801  1
  N  N60  1  0.22264216  0.87331577  0.34303452  1
  N  N61  1  0.11555817  0.76061500  0.08905135  1
  N  N62  1  0.84948094  0.90067141  0.89250214  1
  N  N63  1  0.79674297  0.76874480  0.58521206  1
  N  N64  1  0.55801861  0.87034410  0.31532554  1
  N  N65  1  0.45429988  0.77576574  0.09762525  1
  N  N66  1  0.22322504  0.86898634  0.84233687  1
  N  N67  1  0.08533374  0.77191934  0.59191810  1
  N  N68  1  0.89287989  0.86483782  0.32548926  1
  N  N69  1  0.74433095  0.78194594  0.08111127  1
  N  N70  1  0.58236825  0.86494135  0.84881962  1
  N  N71  1  0.45206645  0.76135612  0.59184354  1
