# generated using pymatgen
data_Al31B5N36
_symmetry_space_group_name_H-M   'P 1'
_cell_length_a   9.13764203
_cell_length_b   9.11195669
_cell_length_c   10.26036937
_cell_angle_alpha   90.13397221
_cell_angle_beta   89.52845529
_cell_angle_gamma   60.16845288
_symmetry_Int_Tables_number   1
_chemical_formula_structural   Al31B5N36
_chemical_formula_sum   'Al31 B5 N36'
_cell_volume   741.04990628
_cell_formula_units_Z   1
loop_
 _symmetry_equiv_pos_site_id
 _symmetry_equiv_pos_as_xyz
  1  'x, y, z'
loop_
 _atom_site_type_symbol
 _atom_site_label
 _atom_site_symmetry_multiplicity
 _atom_site_fract_x
 _atom_site_fract_y
 _atom_site_fract_z
 _atom_site_occupancy
  Al  Al0  1  0.11161089  0.09672956  0.39986644  1
  Al  Al1  1  0.20975132  0.20596059  0.14648950  1
  Al  Al2  1  0.88614795  0.19255357  0.64743929  1
  Al  Al3  1  0.45414652  0.08372806  0.32352101  1
  Al  Al4  1  0.57084497  0.18831687  0.07764594  1
  Al  Al5  1  0.09783879  0.09220107  0.90346244  1
  Al  Al6  1  0.21162178  0.21142643  0.65336697  1
  Al  Al7  1  0.77940743  0.10167945  0.32769847  1
  Al  Al8  1  0.45939848  0.08718865  0.82508542  1
  Al  Al9  1  0.56521744  0.19035212  0.56805151  1
  Al  Al10  1  0.11198908  0.42629499  0.40050370  1
  Al  Al11  1  0.22105185  0.53846689  0.15182997  1
  Al  Al12  1  0.77708838  0.42134022  0.90105845  1
  Al  Al13  1  0.88758009  0.55067539  0.65187450  1
  Al  Al14  1  0.44073207  0.43564788  0.39794551  1
  Al  Al15  1  0.56149678  0.53416506  0.14940279  1
  Al  Al16  1  0.10271407  0.43755243  0.90301881  1
  Al  Al17  1  0.21798625  0.54165115  0.64863806  1
  Al  Al18  1  0.77947662  0.42779150  0.40319731  1
  Al  Al19  1  0.87936295  0.53881220  0.15408971  1
  Al  Al20  1  0.44450713  0.42945417  0.89897392  1
  Al  Al21  1  0.55500459  0.53722386  0.65476311  1
  Al  Al22  1  0.10601965  0.76649293  0.39741322  1
  Al  Al23  1  0.21822336  0.87718800  0.14966021  1
  Al  Al24  1  0.44045222  0.75932583  0.40375120  1
  Al  Al25  1  0.09962461  0.76541919  0.90013727  1
  Al  Al26  1  0.21489496  0.87396878  0.65353903  1
  Al  Al27  1  0.78338421  0.76285291  0.39183108  1
  Al  Al28  1  0.88349355  0.87006808  0.13994698  1
  Al  Al29  1  0.45428755  0.76329823  0.89736526  1
  Al  Al30  1  0.55817798  0.87664053  0.59443861  1
  B  B31  1  0.77410346  0.07819579  0.86210787  1
  B  B32  1  0.88835053  0.20717058  0.14229226  1
  B  B33  1  0.76885299  0.77794128  0.86076143  1
  B  B34  1  0.88909394  0.87382282  0.60008572  1
  B  B35  1  0.55965965  0.86567341  0.11144998  1
  N  N36  1  0.22070712  0.20765474  0.33241081  1
  N  N37  1  0.08090028  0.10600611  0.09138372  1
  N  N38  1  0.87194011  0.18053504  0.83859566  1
  N  N39  1  0.79575513  0.05868554  0.59774715  1
  N  N40  1  0.55608821  0.20263365  0.38068981  1
  N  N41  1  0.46083085  0.06094848  0.13056442  1
  N  N42  1  0.20886417  0.20976673  0.84400828  1
  N  N43  1  0.11040686  0.09408813  0.58755800  1
  N  N44  1  0.89695747  0.21423631  0.33073787  1
  N  N45  1  0.78818513  0.11001743  0.13537774  1
  N  N46  1  0.58523435  0.18536257  0.88746869  1
  N  N47  1  0.44363163  0.10175804  0.64217676  1
  N  N48  1  0.22112537  0.54123086  0.33800127  1
  N  N49  1  0.10549057  0.43137749  0.08818712  1
  N  N50  1  0.87452759  0.57231573  0.84293206  1
  N  N51  1  0.77975036  0.42652334  0.59402512  1
  N  N52  1  0.55820883  0.53966867  0.33473940  1
  N  N53  1  0.44187326  0.42808682  0.08643335  1
  N  N54  1  0.22218856  0.53882308  0.83501729  1
  N  N55  1  0.10914915  0.42862116  0.58730919  1
  N  N56  1  0.89023130  0.53798821  0.34009719  1
  N  N57  1  0.79125188  0.39951835  0.08972904  1
  N  N58  1  0.55750275  0.53745456  0.84044233  1
  N  N59  1  0.44326945  0.43061023  0.58683495  1
  N  N60  1  0.22323498  0.87283721  0.33585793  1
  N  N61  1  0.11234011  0.75876755  0.08525067  1
  N  N62  1  0.85867335  0.88512213  0.86912663  1
  N  N63  1  0.80046017  0.77160074  0.58516600  1
  N  N64  1  0.55244351  0.87833071  0.40092768  1
  N  N65  1  0.45579747  0.77405516  0.08938731  1
  N  N66  1  0.22375718  0.87000589  0.84078198  1
  N  N67  1  0.08564046  0.77421623  0.58937855  1
  N  N68  1  0.89429885  0.86802060  0.32727172  1
  N  N69  1  0.74236904  0.77235468  0.11785420  1
  N  N70  1  0.58676728  0.85498784  0.84234263  1
  N  N71  1  0.43753132  0.75645334  0.59228310  1
