# generated using pymatgen
data_Al31B5N36
_symmetry_space_group_name_H-M   'P 1'
_cell_length_a   9.16489721
_cell_length_b   9.23204069
_cell_length_c   10.24158153
_cell_angle_alpha   90.33097878
_cell_angle_beta   89.63553553
_cell_angle_gamma   59.81196755
_symmetry_Int_Tables_number   1
_chemical_formula_structural   Al31B5N36
_chemical_formula_sum   'Al31 B5 N36'
_cell_volume   748.97059781
_cell_formula_units_Z   1
loop_
 _symmetry_equiv_pos_site_id
 _symmetry_equiv_pos_as_xyz
  1  'x, y, z'
loop_
 _atom_site_type_symbol
 _atom_site_label
 _atom_site_symmetry_multiplicity
 _atom_site_fract_x
 _atom_site_fract_y
 _atom_site_fract_z
 _atom_site_occupancy
  Al  Al0  1  0.11640359  0.09452132  0.39721584  1
  Al  Al1  1  0.21864789  0.20239825  0.12703989  1
  Al  Al2  1  0.88581004  0.20180627  0.59201497  1
  Al  Al3  1  0.45526964  0.08401821  0.31162674  1
  Al  Al4  1  0.57577148  0.19704553  0.05960750  1
  Al  Al5  1  0.09232079  0.09955652  0.89048829  1
  Al  Al6  1  0.21994601  0.20184124  0.65102635  1
  Al  Al7  1  0.78156464  0.09540587  0.31981298  1
  Al  Al8  1  0.46990328  0.07952273  0.82580281  1
  Al  Al9  1  0.55708063  0.19693789  0.56971844  1
  Al  Al10  1  0.10688370  0.43500324  0.31715563  1
  Al  Al11  1  0.22772976  0.53537406  0.06434957  1
  Al  Al12  1  0.76948132  0.43808472  0.81450722  1
  Al  Al13  1  0.88856534  0.55000129  0.56784398  1
  Al  Al14  1  0.44358632  0.42343226  0.31952713  1
  Al  Al15  1  0.56355907  0.52906458  0.07525475  1
  Al  Al16  1  0.10094301  0.44079400  0.82476690  1
  Al  Al17  1  0.21079013  0.54831118  0.57277455  1
  Al  Al18  1  0.78215194  0.41867918  0.32546112  1
  Al  Al19  1  0.88266156  0.53718896  0.07173331  1
  Al  Al20  1  0.44877299  0.42730901  0.81584146  1
  Al  Al21  1  0.55754033  0.53169630  0.56668235  1
  Al  Al22  1  0.10777946  0.75751387  0.31265485  1
  Al  Al23  1  0.22461287  0.88218955  0.13973673  1
  Al  Al24  1  0.43316833  0.76597685  0.39140231  1
  Al  Al25  1  0.09393589  0.76121651  0.83640659  1
  Al  Al26  1  0.21784749  0.87568337  0.65054870  1
  Al  Al27  1  0.76816463  0.76080630  0.31711741  1
  Al  Al28  1  0.88741409  0.87022547  0.09159641  1
  Al  Al29  1  0.44464747  0.76779545  0.89621619  1
  Al  Al30  1  0.56450798  0.87533195  0.57118729  1
  B  B31  1  0.75771972  0.13471448  0.79966817  1
  B  B32  1  0.88860740  0.20510610  0.10652253  1
  B  B33  1  0.78018639  0.75930597  0.88028593  1
  B  B34  1  0.88172817  0.86908456  0.62861726  1
  B  B35  1  0.56412896  0.86782614  0.07506978  1
  N  N36  1  0.22014083  0.20194921  0.31914140  1
  N  N37  1  0.07917050  0.11056637  0.07987447  1
  N  N38  1  0.86971504  0.20133690  0.83292970  1
  N  N39  1  0.78214283  0.07053547  0.65165767  1
  N  N40  1  0.55532994  0.20190334  0.38200247  1
  N  N41  1  0.46972549  0.06546523  0.11531697  1
  N  N42  1  0.21980535  0.20289578  0.84530334  1
  N  N43  1  0.12091721  0.08950551  0.58304401  1
  N  N44  1  0.88012308  0.20622148  0.39717484  1
  N  N45  1  0.79638312  0.11179990  0.12665913  1
  N  N46  1  0.58619263  0.19690024  0.86935299  1
  N  N47  1  0.45164613  0.08909616  0.64019344  1
  N  N48  1  0.21959612  0.54189229  0.38529966  1
  N  N49  1  0.10589604  0.43779455  0.12648527  1
  N  N50  1  0.87117923  0.56071466  0.88400716  1
  N  N51  1  0.77521167  0.43805975  0.63003595  1
  N  N52  1  0.55586906  0.53287926  0.37630587  1
  N  N53  1  0.44853710  0.41807732  0.13098037  1
  N  N54  1  0.22902414  0.53270985  0.88032750  1
  N  N55  1  0.10607859  0.43365447  0.63601743  1
  N  N56  1  0.88609347  0.53815222  0.37962378  1
  N  N57  1  0.79594528  0.39564614  0.13129547  1
  N  N58  1  0.55502778  0.53559828  0.88727790  1
  N  N59  1  0.44314007  0.42613165  0.62997830  1
  N  N60  1  0.21922105  0.87991407  0.32612318  1
  N  N61  1  0.12297706  0.75338248  0.12196020  1
  N  N62  1  0.87931593  0.84106861  0.90414633  1
  N  N63  1  0.79283166  0.77860159  0.61114012  1
  N  N64  1  0.55226483  0.87691013  0.38544702  1
  N  N65  1  0.45408342  0.77793059  0.08608154  1
  N  N66  1  0.22095488  0.87435134  0.83818853  1
  N  N67  1  0.07513338  0.77704447  0.64153877  1
  N  N68  1  0.88289698  0.87171452  0.32920511  1
  N  N69  1  0.74577685  0.76394758  0.12935776  1
  N  N70  1  0.58886474  0.85892073  0.89206521  1
  N  N71  1  0.43704597  0.76244861  0.58491594  1
