# generated using pymatgen
data_Al31B5N36
_symmetry_space_group_name_H-M   'P 1'
_cell_length_a   9.16159404
_cell_length_b   9.19794760
_cell_length_c   9.88921863
_cell_angle_alpha   89.57181844
_cell_angle_beta   90.14615641
_cell_angle_gamma   60.22847927
_symmetry_Int_Tables_number   1
_chemical_formula_structural   Al31B5N36
_chemical_formula_sum   'Al31 B5 N36'
_cell_volume   723.31328127
_cell_formula_units_Z   1
loop_
 _symmetry_equiv_pos_site_id
 _symmetry_equiv_pos_as_xyz
  1  'x, y, z'
loop_
 _atom_site_type_symbol
 _atom_site_label
 _atom_site_symmetry_multiplicity
 _atom_site_fract_x
 _atom_site_fract_y
 _atom_site_fract_z
 _atom_site_occupancy
  Al  Al0  1  0.10722393  0.09616574  0.39446822  1
  Al  Al1  1  0.21747048  0.20379581  0.14891756  1
  Al  Al2  1  0.88877134  0.19155164  0.65065401  1
  Al  Al3  1  0.44668680  0.09064563  0.39389262  1
  Al  Al4  1  0.56011386  0.20455441  0.14757668  1
  Al  Al5  1  0.10028308  0.09184753  0.90349134  1
  Al  Al6  1  0.22422159  0.20106508  0.64981830  1
  Al  Al7  1  0.78159034  0.09070031  0.38480036  1
  Al  Al8  1  0.45152548  0.08982233  0.90613749  1
  Al  Al9  1  0.56702393  0.19259933  0.65220697  1
  Al  Al10  1  0.10907934  0.42730360  0.39703528  1
  Al  Al11  1  0.22138878  0.53969451  0.14996199  1
  Al  Al12  1  0.78024255  0.41177629  0.90167106  1
  Al  Al13  1  0.89181352  0.53657301  0.65378488  1
  Al  Al14  1  0.44527816  0.42644838  0.40153878  1
  Al  Al15  1  0.55916164  0.53769809  0.14907230  1
  Al  Al16  1  0.10740089  0.42522449  0.89801523  1
  Al  Al17  1  0.21555038  0.54020194  0.64831612  1
  Al  Al18  1  0.77986539  0.42400900  0.39190784  1
  Al  Al19  1  0.88147778  0.54175524  0.13792620  1
  Al  Al20  1  0.44470979  0.42669236  0.89842661  1
  Al  Al21  1  0.55947867  0.53647963  0.65110091  1
  Al  Al22  1  0.10683909  0.76284720  0.39157131  1
  Al  Al23  1  0.21992316  0.87831403  0.15026706  1
  Al  Al24  1  0.44830437  0.76185170  0.39496255  1
  Al  Al25  1  0.09561820  0.76609773  0.90010625  1
  Al  Al26  1  0.21988224  0.87244559  0.64941630  1
  Al  Al27  1  0.77835186  0.76302536  0.38561769  1
  Al  Al28  1  0.88322164  0.88441029  0.12742532  1
  Al  Al29  1  0.45306971  0.76141394  0.90453999  1
  Al  Al30  1  0.57237259  0.86935331  0.65472922  1
  B  B31  1  0.77292958  0.09573955  0.90570309  1
  B  B32  1  0.88382042  0.20863308  0.14767042  1
  B  B33  1  0.74089113  0.82235693  0.92774912  1
  B  B34  1  0.88990206  0.86890462  0.59952806  1
  B  B35  1  0.55098103  0.87504130  0.14964950  1
  N  N36  1  0.22194301  0.20538561  0.33924956  1
  N  N37  1  0.08339789  0.10797594  0.09588575  1
  N  N38  1  0.87303960  0.18142735  0.84190339  1
  N  N39  1  0.79425327  0.06012253  0.58229429  1
  N  N40  1  0.55538805  0.20662796  0.33919849  1
  N  N41  1  0.45365072  0.07257127  0.09840576  1
  N  N42  1  0.22739440  0.19558609  0.84332658  1
  N  N43  1  0.10869225  0.09356406  0.58746649  1
  N  N44  1  0.88805950  0.20562268  0.31723812  1
  N  N45  1  0.78400612  0.11714851  0.08651589  1
  N  N46  1  0.57762534  0.19411053  0.84900681  1
  N  N47  1  0.44875283  0.08865235  0.58885663  1
  N  N48  1  0.22221019  0.53918179  0.34201609  1
  N  N49  1  0.11038086  0.42847521  0.08912011  1
  N  N50  1  0.89026012  0.52102733  0.83961147  1
  N  N51  1  0.78116637  0.41850306  0.58563959  1
  N  N52  1  0.55425842  0.53950837  0.33958464  1
  N  N53  1  0.44213797  0.42917350  0.08903320  1
  N  N54  1  0.21700285  0.54111772  0.83797887  1
  N  N55  1  0.11185346  0.42344969  0.58759525  1
  N  N56  1  0.88670501  0.54124377  0.33221091  1
  N  N57  1  0.78799943  0.40348907  0.09520733  1
  N  N58  1  0.55561675  0.54008036  0.84273879  1
  N  N59  1  0.44618297  0.42346148  0.59421861  1
  N  N60  1  0.22287583  0.87241440  0.34195911  1
  N  N61  1  0.11564168  0.76011089  0.09050783  1
  N  N62  1  0.85240669  0.89563776  0.89039215  1
  N  N63  1  0.79604100  0.77062876  0.58449188  1
  N  N64  1  0.55677551  0.87225685  0.31686234  1
  N  N65  1  0.45434775  0.77593981  0.09759383  1
  N  N66  1  0.22304266  0.86889418  0.84157436  1
  N  N67  1  0.08271531  0.77427830  0.59055800  1
  N  N68  1  0.88866072  0.87249976  0.32297084  1
  N  N69  1  0.74383008  0.78130108  0.08181598  1
  N  N70  1  0.58167157  0.86506423  0.84805446  1
  N  N71  1  0.45102239  0.76204073  0.59074831  1
