# generated using pymatgen
data_Al31B5N36
_symmetry_space_group_name_H-M   'P 1'
_cell_length_a   9.19399278
_cell_length_b   9.17572275
_cell_length_c   10.00019717
_cell_angle_alpha   89.78699707
_cell_angle_beta   89.42409239
_cell_angle_gamma   59.87151401
_symmetry_Int_Tables_number   1
_chemical_formula_structural   Al31B5N36
_chemical_formula_sum   'Al31 B5 N36'
_cell_volume   729.62119613
_cell_formula_units_Z   1
loop_
 _symmetry_equiv_pos_site_id
 _symmetry_equiv_pos_as_xyz
  1  'x, y, z'
loop_
 _atom_site_type_symbol
 _atom_site_label
 _atom_site_symmetry_multiplicity
 _atom_site_fract_x
 _atom_site_fract_y
 _atom_site_fract_z
 _atom_site_occupancy
  Al  Al0  1  0.11139992  0.08642998  0.38679474  1
  Al  Al1  1  0.22342391  0.20551952  0.06185002  1
  Al  Al2  1  0.88565307  0.19767853  0.59468020  1
  Al  Al3  1  0.44913866  0.08884793  0.30547071  1
  Al  Al4  1  0.56969458  0.20135700  0.05414586  1
  Al  Al5  1  0.08988472  0.09603126  0.87666550  1
  Al  Al6  1  0.22907192  0.20758864  0.56267985  1
  Al  Al7  1  0.78178734  0.09344611  0.31662902  1
  Al  Al8  1  0.45443825  0.08694387  0.81689748  1
  Al  Al9  1  0.56067720  0.19684462  0.56216886  1
  Al  Al10  1  0.10995487  0.42939468  0.31153881  1
  Al  Al11  1  0.22443395  0.53629250  0.05760746  1
  Al  Al12  1  0.77557096  0.42763376  0.80741066  1
  Al  Al13  1  0.88763228  0.54849721  0.56553502  1
  Al  Al14  1  0.44438300  0.42722580  0.31167756  1
  Al  Al15  1  0.56323956  0.53415414  0.06208650  1
  Al  Al16  1  0.10733611  0.42975082  0.80952538  1
  Al  Al17  1  0.21464716  0.54728391  0.56136803  1
  Al  Al18  1  0.78329059  0.42111933  0.31858677  1
  Al  Al19  1  0.88434255  0.54230776  0.05823255  1
  Al  Al20  1  0.45217501  0.42223906  0.80780341  1
  Al  Al21  1  0.55527637  0.54247861  0.55761800  1
  Al  Al22  1  0.10237693  0.76179615  0.30752996  1
  Al  Al23  1  0.21763094  0.88259995  0.11684127  1
  Al  Al24  1  0.45395337  0.76322384  0.30462652  1
  Al  Al25  1  0.09418597  0.76041441  0.82327716  1
  Al  Al26  1  0.21661305  0.87578175  0.64120227  1
  Al  Al27  1  0.77393283  0.76597913  0.30921228  1
  Al  Al28  1  0.87891933  0.88184422  0.05985490  1
  Al  Al29  1  0.45788256  0.75696802  0.82434269  1
  Al  Al30  1  0.56127658  0.87270397  0.56821411  1
  B  B31  1  0.77181392  0.08836668  0.80258450  1
  B  B32  1  0.88752805  0.20737747  0.09937492  1
  B  B33  1  0.77345813  0.77208058  0.82103888  1
  B  B34  1  0.88252277  0.87031431  0.61085293  1
  B  B35  1  0.56750116  0.86595622  0.05538669  1
  N  N36  1  0.22676932  0.20652179  0.36722944  1
  N  N37  1  0.07489756  0.11339945  0.07409949  1
  N  N38  1  0.87140611  0.18870874  0.81920897  1
  N  N39  1  0.78269849  0.06139880  0.63653779  1
  N  N40  1  0.55549398  0.20354111  0.37100217  1
  N  N41  1  0.46177028  0.06959122  0.10895192  1
  N  N42  1  0.22154256  0.20441477  0.87109824  1
  N  N43  1  0.11878726  0.08725664  0.57852252  1
  N  N44  1  0.87918302  0.20742734  0.38785869  1
  N  N45  1  0.79353061  0.11164818  0.11992057  1
  N  N46  1  0.58161107  0.19179860  0.86216095  1
  N  N47  1  0.44522247  0.09363068  0.62830149  1
  N  N48  1  0.22101504  0.54205746  0.37217285  1
  N  N49  1  0.10900407  0.42945188  0.12118329  1
  N  N50  1  0.87660845  0.56426639  0.86695460  1
  N  N51  1  0.77512684  0.43591996  0.61973900  1
  N  N52  1  0.55447717  0.54219426  0.36637995  1
  N  N53  1  0.44588558  0.42519401  0.12048524  1
  N  N54  1  0.22650626  0.53229920  0.86924988  1
  N  N55  1  0.11047913  0.42903441  0.62151823  1
  N  N56  1  0.88642152  0.54295178  0.37272609  1
  N  N57  1  0.79476937  0.39940185  0.11963941  1
  N  N58  1  0.55847425  0.53372709  0.87587050  1
  N  N59  1  0.44486582  0.42829961  0.61806733  1
  N  N60  1  0.22164922  0.87636331  0.31142069  1
  N  N61  1  0.10534380  0.75943203  0.10984204  1
  N  N62  1  0.86073883  0.88355055  0.86843424  1
  N  N63  1  0.78618333  0.77398363  0.64524910  1
  N  N64  1  0.55600899  0.87262487  0.37943620  1
  N  N65  1  0.46498283  0.77208591  0.10661437  1
  N  N66  1  0.22039583  0.86946803  0.83775084  1
  N  N67  1  0.07648839  0.77429107  0.62703089  1
  N  N68  1  0.88485095  0.87236890  0.36453779  1
  N  N69  1  0.75303575  0.77349334  0.11615746  1
  N  N70  1  0.58223941  0.86017881  0.88432171  1
  N  N71  1  0.45176031  0.75864032  0.62978341  1
