# generated using pymatgen
data_Al31B5N36
_symmetry_space_group_name_H-M   'P 1'
_cell_length_a   9.12018411
_cell_length_b   9.20302273
_cell_length_c   10.39668817
_cell_angle_alpha   90.86573623
_cell_angle_beta   89.99018341
_cell_angle_gamma   59.97108878
_symmetry_Int_Tables_number   1
_chemical_formula_structural   Al31B5N36
_chemical_formula_sum   'Al31 B5 N36'
_cell_volume   755.38133389
_cell_formula_units_Z   1
loop_
 _symmetry_equiv_pos_site_id
 _symmetry_equiv_pos_as_xyz
  1  'x, y, z'
loop_
 _atom_site_type_symbol
 _atom_site_label
 _atom_site_symmetry_multiplicity
 _atom_site_fract_x
 _atom_site_fract_y
 _atom_site_fract_z
 _atom_site_occupancy
  Al  Al0  1  0.11860931  0.09076028  0.39598530  1
  Al  Al1  1  0.21101091  0.20843381  0.13554128  1
  Al  Al2  1  0.88570063  0.20000418  0.58474014  1
  Al  Al3  1  0.45350100  0.08661236  0.31516661  1
  Al  Al4  1  0.57264982  0.19564597  0.05895133  1
  Al  Al5  1  0.09425073  0.09507182  0.89022660  1
  Al  Al6  1  0.21190354  0.21157461  0.64814363  1
  Al  Al7  1  0.78159816  0.09704556  0.31775334  1
  Al  Al8  1  0.46800248  0.07915848  0.81472633  1
  Al  Al9  1  0.55553952  0.19981862  0.56642044  1
  Al  Al10  1  0.10773916  0.42427872  0.39376461  1
  Al  Al11  1  0.23036239  0.53858496  0.06313223  1
  Al  Al12  1  0.77025904  0.42893548  0.81410305  1
  Al  Al13  1  0.88869303  0.55751656  0.64205981  1
  Al  Al14  1  0.44234366  0.42579545  0.31688008  1
  Al  Al15  1  0.56928222  0.52637591  0.07181353  1
  Al  Al16  1  0.10105705  0.42831821  0.89180346  1
  Al  Al17  1  0.21574056  0.55313306  0.57044723  1
  Al  Al18  1  0.77982987  0.41754597  0.32578569  1
  Al  Al19  1  0.88700655  0.54254870  0.14493045  1
  Al  Al20  1  0.44929583  0.42573475  0.81500084  1
  Al  Al21  1  0.55853056  0.53103845  0.56553849  1
  Al  Al22  1  0.10727726  0.75850453  0.31107980  1
  Al  Al23  1  0.22421362  0.88120952  0.13723664  1
  Al  Al24  1  0.43348105  0.76557529  0.39303018  1
  Al  Al25  1  0.09451869  0.75662392  0.82963585  1
  Al  Al26  1  0.21784239  0.87704053  0.65203641  1
  Al  Al27  1  0.77877579  0.76835338  0.36445590  1
  Al  Al28  1  0.88241753  0.87133048  0.07441636  1
  Al  Al29  1  0.45281076  0.76725823  0.89252451  1
  Al  Al30  1  0.55672473  0.87829766  0.57753297  1
  B  B31  1  0.75927564  0.12757973  0.80027610  1
  B  B32  1  0.88836823  0.20276459  0.10537171  1
  B  B33  1  0.77670599  0.75949665  0.86000357  1
  B  B34  1  0.88277099  0.87238445  0.61729322  1
  B  B35  1  0.56106368  0.86932006  0.10649835  1
  N  N36  1  0.21540127  0.20936781  0.31995562  1
  N  N37  1  0.08016964  0.10793456  0.07872671  1
  N  N38  1  0.87052498  0.19476707  0.83692018  1
  N  N39  1  0.78157502  0.07042266  0.64836041  1
  N  N40  1  0.55468520  0.20567442  0.38058307  1
  N  N41  1  0.46448153  0.06553591  0.12157700  1
  N  N42  1  0.21461024  0.20368737  0.83442108  1
  N  N43  1  0.12122166  0.08713395  0.58011911  1
  N  N44  1  0.88197393  0.20797560  0.39528285  1
  N  N45  1  0.79549081  0.10742079  0.12610831  1
  N  N46  1  0.58411822  0.19438084  0.86863155  1
  N  N47  1  0.44484913  0.09786234  0.63353289  1
  N  N48  1  0.22310427  0.54688917  0.38479870  1
  N  N49  1  0.10522809  0.42738060  0.07566718  1
  N  N50  1  0.87734001  0.56447458  0.83155548  1
  N  N51  1  0.77462717  0.43219002  0.63049449  1
  N  N52  1  0.55699857  0.53272917  0.37823109  1
  N  N53  1  0.44879757  0.41929088  0.13040205  1
  N  N54  1  0.23094482  0.53302753  0.87867131  1
  N  N55  1  0.10771998  0.42496999  0.57902007  1
  N  N56  1  0.89098373  0.53972054  0.32938481  1
  N  N57  1  0.79527156  0.39149913  0.13297156  1
  N  N58  1  0.55812207  0.53301346  0.88921925  1
  N  N59  1  0.44358798  0.42725409  0.63131209  1
  N  N60  1  0.22409100  0.87899453  0.31982162  1
  N  N61  1  0.11384504  0.75542645  0.12356920  1
  N  N62  1  0.87580682  0.84378344  0.89301564  1
  N  N63  1  0.79408306  0.77874420  0.58854565  1
  N  N64  1  0.54872742  0.88112114  0.38968216  1
  N  N65  1  0.45881624  0.77884791  0.08435415  1
  N  N66  1  0.22446168  0.86988368  0.83733265  1
  N  N67  1  0.07439069  0.77644628  0.64069693  1
  N  N68  1  0.88983464  0.88051870  0.35505040  1
  N  N69  1  0.74410887  0.77603090  0.12552112  1
  N  N70  1  0.59129548  0.85074030  0.84504381  1
  N  N71  1  0.43368887  0.76169169  0.58195651  1
