# generated using pymatgen
data_Al31B5N36
_symmetry_space_group_name_H-M   'P 1'
_cell_length_a   9.15107266
_cell_length_b   9.22222560
_cell_length_c   10.32926406
_cell_angle_alpha   90.62173290
_cell_angle_beta   89.82978945
_cell_angle_gamma   59.91109765
_symmetry_Int_Tables_number   1
_chemical_formula_structural   Al31B5N36
_chemical_formula_sum   'Al31 B5 N36'
_cell_volume   754.17461512
_cell_formula_units_Z   1
loop_
 _symmetry_equiv_pos_site_id
 _symmetry_equiv_pos_as_xyz
  1  'x, y, z'
loop_
 _atom_site_type_symbol
 _atom_site_label
 _atom_site_symmetry_multiplicity
 _atom_site_fract_x
 _atom_site_fract_y
 _atom_site_fract_z
 _atom_site_occupancy
  Al  Al0  1  0.11714308  0.09174076  0.39766080  1
  Al  Al1  1  0.21271234  0.20600151  0.13654446  1
  Al  Al2  1  0.88602422  0.20079378  0.58936003  1
  Al  Al3  1  0.45352840  0.08735419  0.31697845  1
  Al  Al4  1  0.57354835  0.19534999  0.05903563  1
  Al  Al5  1  0.09292872  0.09629721  0.88926167  1
  Al  Al6  1  0.21346239  0.21136740  0.64880764  1
  Al  Al7  1  0.78227966  0.09601597  0.32011617  1
  Al  Al8  1  0.47048070  0.07732730  0.81587746  1
  Al  Al9  1  0.55649000  0.19963477  0.56748107  1
  Al  Al10  1  0.11397253  0.42309274  0.38776692  1
  Al  Al11  1  0.23202742  0.53802936  0.06435259  1
  Al  Al12  1  0.77041094  0.43584012  0.81696564  1
  Al  Al13  1  0.88312706  0.55479698  0.58337822  1
  Al  Al14  1  0.44444779  0.42597729  0.31741082  1
  Al  Al15  1  0.56653979  0.52624863  0.07155930  1
  Al  Al16  1  0.10485325  0.42569298  0.89289601  1
  Al  Al17  1  0.21601655  0.55377334  0.57104465  1
  Al  Al18  1  0.78206617  0.41851872  0.32394814  1
  Al  Al19  1  0.88016010  0.53993562  0.09649699  1
  Al  Al20  1  0.44866554  0.42615755  0.81497724  1
  Al  Al21  1  0.55811954  0.53241284  0.56580351  1
  Al  Al22  1  0.10606110  0.75934616  0.31236545  1
  Al  Al23  1  0.22384017  0.88162134  0.13804980  1
  Al  Al24  1  0.43400380  0.76613085  0.39214590  1
  Al  Al25  1  0.09295512  0.75683779  0.83068798  1
  Al  Al26  1  0.21853908  0.87691191  0.65210094  1
  Al  Al27  1  0.77173942  0.76774110  0.32474585  1
  Al  Al28  1  0.88567855  0.87246489  0.07756735  1
  Al  Al29  1  0.45029207  0.76801119  0.89277940  1
  Al  Al30  1  0.56120848  0.87814828  0.57425750  1
  B  B31  1  0.75789634  0.13138925  0.80008686  1
  B  B32  1  0.88855626  0.20230940  0.10501935  1
  B  B33  1  0.77605734  0.75631299  0.86995145  1
  B  B34  1  0.88193816  0.87140258  0.62396062  1
  B  B35  1  0.55804378  0.87069770  0.10385626  1
  N  N36  1  0.21710128  0.20668395  0.32076464  1
  N  N37  1  0.07965439  0.10868139  0.07924571  1
  N  N38  1  0.86888460  0.19892507  0.83546838  1
  N  N39  1  0.78136339  0.07184135  0.65027632  1
  N  N40  1  0.55489901  0.20573838  0.38093774  1
  N  N41  1  0.46580036  0.06419651  0.12139550  1
  N  N42  1  0.21621070  0.20263546  0.83573846  1
  N  N43  1  0.12087633  0.08863027  0.58233024  1
  N  N44  1  0.88094494  0.20815751  0.39661100  1
  N  N45  1  0.79574820  0.10836935  0.12621663  1
  N  N46  1  0.58418053  0.19510213  0.86905062  1
  N  N47  1  0.44624786  0.09644268  0.63358908  1
  N  N48  1  0.22537920  0.54725195  0.38364706  1
  N  N49  1  0.11310387  0.42369534  0.08121809  1
  N  N50  1  0.86824358  0.56155092  0.88037732  1
  N  N51  1  0.77527098  0.43660554  0.63205134  1
  N  N52  1  0.55799327  0.53314251  0.37710253  1
  N  N53  1  0.45019130  0.41793691  0.13047732  1
  N  N54  1  0.23032273  0.53268452  0.87816506  1
  N  N55  1  0.11353494  0.42250443  0.57805611  1
  N  N56  1  0.88628992  0.54064134  0.35647976  1
  N  N57  1  0.79478062  0.39225447  0.13157433  1
  N  N58  1  0.55450410  0.53459102  0.88811359  1
  N  N59  1  0.44461556  0.42735863  0.63073887  1
  N  N60  1  0.22231661  0.87996475  0.32193249  1
  N  N61  1  0.11674575  0.75487065  0.12352082  1
  N  N62  1  0.87649423  0.84127954  0.89730952  1
  N  N63  1  0.79245081  0.78112326  0.60660001  1
  N  N64  1  0.55196440  0.87907495  0.38702939  1
  N  N65  1  0.45860876  0.77831650  0.08635251  1
  N  N66  1  0.22252904  0.87085816  0.83871543  1
  N  N67  1  0.07553162  0.77720672  0.64094099  1
  N  N68  1  0.88594211  0.87683128  0.34906666  1
  N  N69  1  0.74368295  0.77424790  0.13308862  1
  N  N70  1  0.59052637  0.85232165  0.85598423  1
  N  N71  1  0.43533821  0.76308657  0.58245277  1
