# generated using pymatgen
data_Al31B5N36
_symmetry_space_group_name_H-M   'P 1'
_cell_length_a   9.15106418
_cell_length_b   9.13182005
_cell_length_c   10.22588860
_cell_angle_alpha   90.20858954
_cell_angle_beta   89.44853584
_cell_angle_gamma   60.01522693
_symmetry_Int_Tables_number   1
_chemical_formula_structural   Al31B5N36
_chemical_formula_sum   'Al31 B5 N36'
_cell_volume   740.09328148
_cell_formula_units_Z   1
loop_
 _symmetry_equiv_pos_site_id
 _symmetry_equiv_pos_as_xyz
  1  'x, y, z'
loop_
 _atom_site_type_symbol
 _atom_site_label
 _atom_site_symmetry_multiplicity
 _atom_site_fract_x
 _atom_site_fract_y
 _atom_site_fract_z
 _atom_site_occupancy
  Al  Al0  1  0.11521871  0.09304946  0.40317071  1
  Al  Al1  1  0.21148114  0.20566658  0.13868817  1
  Al  Al2  1  0.88756993  0.20013218  0.62026221  1
  Al  Al3  1  0.45426362  0.08262495  0.32014283  1
  Al  Al4  1  0.57615719  0.18504105  0.06295708  1
  Al  Al5  1  0.09751607  0.09541206  0.88976651  1
  Al  Al6  1  0.21289362  0.21365172  0.65156035  1
  Al  Al7  1  0.77962334  0.10574900  0.32109037  1
  Al  Al8  1  0.46142763  0.08671207  0.81998540  1
  Al  Al9  1  0.56463132  0.19162556  0.57108039  1
  Al  Al10  1  0.11150033  0.42469167  0.39525428  1
  Al  Al11  1  0.22302177  0.53707558  0.14703703  1
  Al  Al12  1  0.77920364  0.42152946  0.88568779  1
  Al  Al13  1  0.88732506  0.55432465  0.64864902  1
  Al  Al14  1  0.44207766  0.43250988  0.39478334  1
  Al  Al15  1  0.56168215  0.53180421  0.14227682  1
  Al  Al16  1  0.10396500  0.43840108  0.89827210  1
  Al  Al17  1  0.21717331  0.54324750  0.64434769  1
  Al  Al18  1  0.77536930  0.43140548  0.40640149  1
  Al  Al19  1  0.88027911  0.53718951  0.14765508  1
  Al  Al20  1  0.44556539  0.42793118  0.89080066  1
  Al  Al21  1  0.55218467  0.54177245  0.65233971  1
  Al  Al22  1  0.10256378  0.76813620  0.39424701  1
  Al  Al23  1  0.21730432  0.87724057  0.14389197  1
  Al  Al24  1  0.43920256  0.75757264  0.39773986  1
  Al  Al25  1  0.09882656  0.76573088  0.89471053  1
  Al  Al26  1  0.21472087  0.87476898  0.65233135  1
  Al  Al27  1  0.78269523  0.76210248  0.38661544  1
  Al  Al28  1  0.88509903  0.86793941  0.13537096  1
  Al  Al29  1  0.45499745  0.76460650  0.89361308  1
  Al  Al30  1  0.55538348  0.87596584  0.59050682  1
  B  B31  1  0.77487801  0.07862099  0.80935251  1
  B  B32  1  0.88708193  0.20492644  0.09950509  1
  B  B33  1  0.77258442  0.77594594  0.85220789  1
  B  B34  1  0.88748023  0.86974339  0.61563112  1
  B  B35  1  0.56099218  0.86537888  0.10715461  1
  N  N36  1  0.21803704  0.20545891  0.32569699  1
  N  N37  1  0.07898043  0.10754316  0.08289336  1
  N  N38  1  0.87726435  0.19012075  0.82419417  1
  N  N39  1  0.78435156  0.06138517  0.64618841  1
  N  N40  1  0.55942519  0.19711272  0.38220279  1
  N  N41  1  0.46392974  0.06110674  0.12471074  1
  N  N42  1  0.21352280  0.21042063  0.84190740  1
  N  N43  1  0.12095074  0.09073044  0.58902461  1
  N  N44  1  0.88478071  0.20173246  0.40030687  1
  N  N45  1  0.79323720  0.11318209  0.12982460  1
  N  N46  1  0.58766254  0.18599688  0.87458359  1
  N  N47  1  0.44276727  0.10109919  0.63635026  1
  N  N48  1  0.22095716  0.54058738  0.33473814  1
  N  N49  1  0.10617904  0.43163051  0.08392820  1
  N  N50  1  0.87630007  0.57116178  0.83861452  1
  N  N51  1  0.77372400  0.44275989  0.59446653  1
  N  N52  1  0.55889099  0.53616964  0.32847890  1
  N  N53  1  0.44365636  0.42475100  0.08014277  1
  N  N54  1  0.22233520  0.53961149  0.83009462  1
  N  N55  1  0.10894139  0.43004181  0.58257987  1
  N  N56  1  0.88929913  0.53443055  0.33443338  1
  N  N57  1  0.79273705  0.39701169  0.07965363  1
  N  N58  1  0.55517429  0.54032669  0.83729215  1
  N  N59  1  0.44348129  0.43187681  0.58391705  1
  N  N60  1  0.22063920  0.87305141  0.33065917  1
  N  N61  1  0.11279635  0.75804622  0.08090356  1
  N  N62  1  0.86433380  0.87641038  0.85341332  1
  N  N63  1  0.79858667  0.77510182  0.58075032  1
  N  N64  1  0.55176392  0.87549480  0.39531111  1
  N  N65  1  0.45639344  0.77462438  0.08612669  1
  N  N66  1  0.22457212  0.86951632  0.83860963  1
  N  N67  1  0.08018391  0.77961528  0.58805580  1
  N  N68  1  0.89073625  0.87092831  0.32300750  1
  N  N69  1  0.74358023  0.77133638  0.11379346  1
  N  N70  1  0.58845941  0.85367975  0.83541458  1
  N  N71  1  0.43386744  0.75723608  0.58632436  1
