# generated using pymatgen
data_Al31B5N36
_symmetry_space_group_name_H-M   'P 1'
_cell_length_a   9.18914731
_cell_length_b   9.24747109
_cell_length_c   10.14684713
_cell_angle_alpha   90.16762626
_cell_angle_beta   89.59489557
_cell_angle_gamma   59.79055837
_symmetry_Int_Tables_number   1
_chemical_formula_structural   Al31B5N36
_chemical_formula_sum   'Al31 B5 N36'
_cell_volume   745.10319655
_cell_formula_units_Z   1
loop_
 _symmetry_equiv_pos_site_id
 _symmetry_equiv_pos_as_xyz
  1  'x, y, z'
loop_
 _atom_site_type_symbol
 _atom_site_label
 _atom_site_symmetry_multiplicity
 _atom_site_fract_x
 _atom_site_fract_y
 _atom_site_fract_z
 _atom_site_occupancy
  Al  Al0  1  0.11901894  0.09174921  0.39772228  1
  Al  Al1  1  0.21927529  0.20191891  0.12590526  1
  Al  Al2  1  0.88648195  0.20166548  0.59298973  1
  Al  Al3  1  0.45615229  0.08486064  0.31159397  1
  Al  Al4  1  0.57516289  0.19833636  0.06044687  1
  Al  Al5  1  0.08933222  0.10176226  0.89047950  1
  Al  Al6  1  0.22133879  0.20102580  0.65064730  1
  Al  Al7  1  0.78260406  0.09558624  0.32043656  1
  Al  Al8  1  0.46879349  0.08005822  0.82871316  1
  Al  Al9  1  0.55756478  0.19706840  0.57085503  1
  Al  Al10  1  0.10813822  0.43349725  0.31785663  1
  Al  Al11  1  0.22770970  0.53452201  0.06467740  1
  Al  Al12  1  0.76864430  0.43844711  0.81339454  1
  Al  Al13  1  0.88842988  0.55043158  0.56879954  1
  Al  Al14  1  0.44381855  0.42340288  0.32094103  1
  Al  Al15  1  0.56293463  0.52979048  0.07459592  1
  Al  Al16  1  0.10062373  0.44038229  0.82528137  1
  Al  Al17  1  0.21118194  0.54835452  0.57341003  1
  Al  Al18  1  0.78430842  0.41746249  0.32680666  1
  Al  Al19  1  0.88243312  0.53718190  0.07311928  1
  Al  Al20  1  0.44834792  0.42747234  0.81494716  1
  Al  Al21  1  0.55388938  0.54124840  0.56790772  1
  Al  Al22  1  0.10807139  0.75719539  0.31279575  1
  Al  Al23  1  0.21854963  0.88378544  0.13220751  1
  Al  Al24  1  0.44522871  0.76222497  0.34192453  1
  Al  Al25  1  0.09167848  0.76123332  0.83810491  1
  Al  Al26  1  0.21849287  0.87504478  0.65291939  1
  Al  Al27  1  0.77061565  0.76097882  0.31888928  1
  Al  Al28  1  0.88534439  0.87083100  0.09239286  1
  Al  Al29  1  0.44569025  0.76482584  0.87767783  1
  Al  Al30  1  0.56143468  0.87277117  0.57371365  1
  B  B31  1  0.75680965  0.13513382  0.79917798  1
  B  B32  1  0.88722375  0.20650416  0.10693336  1
  B  B33  1  0.77995152  0.75833529  0.88214352  1
  B  B34  1  0.88125320  0.86904589  0.62823541  1
  B  B35  1  0.56548477  0.86674213  0.07005024  1
  N  N36  1  0.22182867  0.20079411  0.32046917  1
  N  N37  1  0.07674378  0.11325543  0.08056579  1
  N  N38  1  0.86789465  0.20260283  0.83206290  1
  N  N39  1  0.78254931  0.06999081  0.65126720  1
  N  N40  1  0.55672111  0.20157311  0.38197565  1
  N  N41  1  0.46952340  0.06661698  0.11469574  1
  N  N42  1  0.21918047  0.20282973  0.84718879  1
  N  N43  1  0.12185555  0.08827556  0.58471498  1
  N  N44  1  0.88239534  0.20488316  0.39696403  1
  N  N45  1  0.79589453  0.11247269  0.12640495  1
  N  N46  1  0.58565207  0.19728139  0.86922715  1
  N  N47  1  0.45256198  0.08885135  0.64114928  1
  N  N48  1  0.21994811  0.54137921  0.38468862  1
  N  N49  1  0.10609376  0.43673862  0.12584967  1
  N  N50  1  0.86994323  0.56122279  0.88341569  1
  N  N51  1  0.77563028  0.43745493  0.62785218  1
  N  N52  1  0.55558052  0.53594968  0.37576476  1
  N  N53  1  0.44815070  0.41903956  0.13140346  1
  N  N54  1  0.22880572  0.53220372  0.87947014  1
  N  N55  1  0.10666510  0.43286096  0.63550145  1
  N  N56  1  0.88721141  0.53791864  0.37922003  1
  N  N57  1  0.79487885  0.39630941  0.13149588  1
  N  N58  1  0.55508985  0.53468434  0.88763093  1
  N  N59  1  0.44392696  0.42734658  0.62792879  1
  N  N60  1  0.21809877  0.87967961  0.32378044  1
  N  N61  1  0.12043515  0.75281740  0.12036983  1
  N  N62  1  0.87667497  0.84153076  0.90372354  1
  N  N63  1  0.79178577  0.77928549  0.61131861  1
  N  N64  1  0.55212008  0.87552833  0.38569537  1
  N  N65  1  0.45597432  0.77498141  0.09828987  1
  N  N66  1  0.21421366  0.87624188  0.84517993  1
  N  N67  1  0.07488407  0.77708093  0.64145859  1
  N  N68  1  0.88374389  0.87232638  0.33030487  1
  N  N69  1  0.74662991  0.76373755  0.13011985  1
  N  N70  1  0.58616226  0.85915761  0.90166967  1
  N  N71  1  0.44662814  0.76071016  0.62022585  1
