# generated using pymatgen
data_Al31B5N36
_symmetry_space_group_name_H-M   'P 1'
_cell_length_a   9.17999795
_cell_length_b   9.17498293
_cell_length_c   9.99131067
_cell_angle_alpha   89.96835628
_cell_angle_beta   89.80292206
_cell_angle_gamma   60.15293107
_symmetry_Int_Tables_number   1
_chemical_formula_structural   Al31B5N36
_chemical_formula_sum   'Al31 B5 N36'
_cell_volume   729.90306840
_cell_formula_units_Z   1
loop_
 _symmetry_equiv_pos_site_id
 _symmetry_equiv_pos_as_xyz
  1  'x, y, z'
loop_
 _atom_site_type_symbol
 _atom_site_label
 _atom_site_symmetry_multiplicity
 _atom_site_fract_x
 _atom_site_fract_y
 _atom_site_fract_z
 _atom_site_occupancy
  Al  Al0  1  0.11227899  0.09660366  0.40072525  1
  Al  Al1  1  0.20880394  0.20828200  0.14385024  1
  Al  Al2  1  0.88593364  0.19087730  0.64998721  1
  Al  Al3  1  0.45028204  0.09111655  0.32540448  1
  Al  Al4  1  0.57166327  0.19863918  0.08720006  1
  Al  Al5  1  0.09426256  0.09096164  0.90700406  1
  Al  Al6  1  0.21856365  0.20590042  0.65682027  1
  Al  Al7  1  0.78337840  0.09481935  0.33671669  1
  Al  Al8  1  0.44834867  0.08686586  0.88298013  1
  Al  Al9  1  0.56296781  0.18854123  0.57408561  1
  Al  Al10  1  0.11067400  0.42687431  0.40149276  1
  Al  Al11  1  0.22134307  0.54035732  0.15253662  1
  Al  Al12  1  0.77682829  0.41801335  0.90492551  1
  Al  Al13  1  0.88687639  0.54883673  0.65720961  1
  Al  Al14  1  0.44151551  0.43515948  0.39986236  1
  Al  Al15  1  0.56137017  0.53549105  0.15220314  1
  Al  Al16  1  0.10025730  0.43697602  0.90316163  1
  Al  Al17  1  0.21667187  0.54076092  0.64947180  1
  Al  Al18  1  0.78146121  0.42659996  0.40134031  1
  Al  Al19  1  0.88098790  0.54080575  0.14799277  1
  Al  Al20  1  0.44350503  0.42986333  0.89720495  1
  Al  Al21  1  0.55751246  0.53801106  0.65231541  1
  Al  Al22  1  0.10596622  0.76433966  0.39618958  1
  Al  Al23  1  0.22000455  0.87694689  0.15301311  1
  Al  Al24  1  0.44859223  0.76291418  0.39749482  1
  Al  Al25  1  0.09869065  0.76644906  0.89985694  1
  Al  Al26  1  0.21972363  0.87379105  0.64995332  1
  Al  Al27  1  0.77940336  0.76353319  0.39079384  1
  Al  Al28  1  0.88501161  0.87625689  0.12801112  1
  Al  Al29  1  0.45064941  0.76059878  0.90579192  1
  Al  Al30  1  0.56942802  0.87112500  0.65755322  1
  B  B31  1  0.77182365  0.07962621  0.87237706  1
  B  B32  1  0.88965866  0.20889806  0.15930701  1
  B  B33  1  0.75722133  0.78018467  0.91703216  1
  B  B34  1  0.88821851  0.87463107  0.59873559  1
  B  B35  1  0.55882470  0.86184944  0.14595682  1
  N  N36  1  0.22107232  0.20737469  0.33483278  1
  N  N37  1  0.08192554  0.10572641  0.09747442  1
  N  N38  1  0.86900326  0.18012445  0.84266586  1
  N  N39  1  0.79783840  0.05814366  0.58873427  1
  N  N40  1  0.55649593  0.20345601  0.37878182  1
  N  N41  1  0.45381819  0.07197992  0.11093764  1
  N  N42  1  0.20926380  0.20707324  0.85175928  1
  N  N43  1  0.10834177  0.09558002  0.59081193  1
  N  N44  1  0.89847401  0.21345263  0.32546446  1
  N  N45  1  0.78888045  0.11237754  0.14018290  1
  N  N46  1  0.58317400  0.18861159  0.88968915  1
  N  N47  1  0.44294515  0.09382961  0.62913819  1
  N  N48  1  0.22169874  0.53985625  0.34214333  1
  N  N49  1  0.10679186  0.43318273  0.09097555  1
  N  N50  1  0.87192081  0.56367757  0.85118088  1
  N  N51  1  0.78218595  0.42271506  0.59454668  1
  N  N52  1  0.55858857  0.53859913  0.34067633  1
  N  N53  1  0.44117723  0.43262215  0.08974056  1
  N  N54  1  0.21874855  0.54007378  0.83814994  1
  N  N55  1  0.10771223  0.42719382  0.59228246  1
  N  N56  1  0.88887960  0.54019809  0.33862462  1
  N  N57  1  0.79074949  0.40137560  0.09647602  1
  N  N58  1  0.55623879  0.53899439  0.84236304  1
  N  N59  1  0.44331937  0.43026415  0.59205627  1
  N  N60  1  0.22391601  0.87226635  0.34314953  1
  N  N61  1  0.11672414  0.75923273  0.08834839  1
  N  N62  1  0.85599054  0.89141976  0.88793259  1
  N  N63  1  0.79264210  0.77500028  0.58511957  1
  N  N64  1  0.56452458  0.86021929  0.31243843  1
  N  N65  1  0.45494387  0.77232206  0.09698296  1
  N  N66  1  0.22370919  0.86982548  0.84141417  1
  N  N67  1  0.08384456  0.77401323  0.59205676  1
  N  N68  1  0.89404815  0.86274116  0.32372186  1
  N  N69  1  0.74742334  0.77159880  0.08040832  1
  N  N70  1  0.58133755  0.85648939  0.84940196  1
  N  N71  1  0.45049126  0.76254528  0.59015726  1
