# generated using pymatgen
data_Al31B5N36
_symmetry_space_group_name_H-M   'P 1'
_cell_length_a   9.15932985
_cell_length_b   9.16711137
_cell_length_c   10.06420155
_cell_angle_alpha   89.79502916
_cell_angle_beta   89.73415890
_cell_angle_gamma   60.30302867
_symmetry_Int_Tables_number   1
_chemical_formula_structural   Al31B5N36
_chemical_formula_sum   'Al31 B5 N36'
_cell_volume   734.03887855
_cell_formula_units_Z   1
loop_
 _symmetry_equiv_pos_site_id
 _symmetry_equiv_pos_as_xyz
  1  'x, y, z'
loop_
 _atom_site_type_symbol
 _atom_site_label
 _atom_site_symmetry_multiplicity
 _atom_site_fract_x
 _atom_site_fract_y
 _atom_site_fract_z
 _atom_site_occupancy
  Al  Al0  1  0.11168394  0.09576071  0.39975278  1
  Al  Al1  1  0.21031651  0.20718756  0.14441587  1
  Al  Al2  1  0.88608051  0.19069320  0.65058762  1
  Al  Al3  1  0.45191475  0.09009303  0.31860048  1
  Al  Al4  1  0.56864508  0.19518297  0.08153427  1
  Al  Al5  1  0.09607881  0.09151794  0.90751387  1
  Al  Al6  1  0.21336376  0.20820852  0.65523247  1
  Al  Al7  1  0.77994930  0.09633778  0.33453051  1
  Al  Al8  1  0.45039453  0.09576896  0.84235785  1
  Al  Al9  1  0.56401229  0.18797237  0.57596107  1
  Al  Al10  1  0.11094427  0.42588237  0.39996995  1
  Al  Al11  1  0.22160933  0.53938790  0.15253730  1
  Al  Al12  1  0.77800633  0.41710341  0.90432038  1
  Al  Al13  1  0.88920690  0.54333711  0.65758600  1
  Al  Al14  1  0.44113098  0.43309011  0.40157406  1
  Al  Al15  1  0.56083987  0.53435530  0.15259179  1
  Al  Al16  1  0.10094815  0.43362234  0.90285320  1
  Al  Al17  1  0.21610290  0.54090525  0.65025962  1
  Al  Al18  1  0.78106376  0.42577610  0.40019232  1
  Al  Al19  1  0.88075946  0.54097716  0.14637631  1
  Al  Al20  1  0.44197153  0.43383593  0.89849482  1
  Al  Al21  1  0.55790618  0.53738211  0.65327540  1
  Al  Al22  1  0.10650044  0.76339296  0.39653394  1
  Al  Al23  1  0.22021223  0.87705092  0.15361799  1
  Al  Al24  1  0.44876871  0.76089153  0.39760005  1
  Al  Al25  1  0.09820883  0.76655027  0.90163570  1
  Al  Al26  1  0.21961723  0.87326287  0.65116384  1
  Al  Al27  1  0.78044018  0.76158391  0.39119640  1
  Al  Al28  1  0.88579335  0.87749767  0.13158573  1
  Al  Al29  1  0.45169682  0.76361641  0.90777776  1
  Al  Al30  1  0.57418094  0.86461277  0.65711735  1
  B  B31  1  0.77244198  0.08353865  0.87180232  1
  B  B32  1  0.88786854  0.20992843  0.15877282  1
  B  B33  1  0.74654094  0.80503007  0.92489593  1
  B  B34  1  0.88914047  0.87330686  0.59915968  1
  B  B35  1  0.55683535  0.86495942  0.14875541  1
  N  N36  1  0.22161594  0.20623125  0.33634634  1
  N  N37  1  0.08153576  0.10577022  0.09728441  1
  N  N38  1  0.87002747  0.18012629  0.84278699  1
  N  N39  1  0.79796546  0.05621418  0.59413408  1
  N  N40  1  0.55570234  0.19991153  0.38597476  1
  N  N41  1  0.45570883  0.07200990  0.12440023  1
  N  N42  1  0.21053706  0.20609608  0.84933287  1
  N  N43  1  0.10862788  0.09415106  0.58928833  1
  N  N44  1  0.89758182  0.21285211  0.32452165  1
  N  N45  1  0.78491561  0.11409495  0.14049077  1
  N  N46  1  0.58284022  0.19185867  0.88795868  1
  N  N47  1  0.44559799  0.09530441  0.64787911  1
  N  N48  1  0.22205896  0.53939918  0.34121970  1
  N  N49  1  0.10702869  0.43224675  0.09034620  1
  N  N50  1  0.87986903  0.54424456  0.84552648  1
  N  N51  1  0.78140479  0.42110913  0.59189920  1
  N  N52  1  0.55769716  0.53676105  0.34031527  1
  N  N53  1  0.44102906  0.43112888  0.08897811  1
  N  N54  1  0.21737091  0.54101578  0.83809467  1
  N  N55  1  0.10909070  0.42667868  0.58917195  1
  N  N56  1  0.88913707  0.53953073  0.33660852  1
  N  N57  1  0.78961321  0.40174735  0.09617489  1
  N  N58  1  0.55569117  0.54190549  0.84245516  1
  N  N59  1  0.44282596  0.43009070  0.59298166  1
  N  N60  1  0.22409077  0.87160209  0.34280240  1
  N  N61  1  0.11640750  0.75917920  0.08889069  1
  N  N62  1  0.85308268  0.89606053  0.89085839  1
  N  N63  1  0.79422071  0.77233167  0.58462836  1
  N  N64  1  0.56570752  0.85737765  0.31581689  1
  N  N65  1  0.45512242  0.77304968  0.09801180  1
  N  N66  1  0.22367664  0.87014058  0.84177761  1
  N  N67  1  0.08469121  0.77321869  0.59166815  1
  N  N68  1  0.89377648  0.86368929  0.32506719  1
  N  N69  1  0.74633745  0.77635115  0.08100369  1
  N  N70  1  0.58312682  0.85976291  0.85043121  1
  N  N71  1  0.45065365  0.76281365  0.59011832  1
