# generated using pymatgen
data_Al31B5N36
_symmetry_space_group_name_H-M   'P 1'
_cell_length_a   9.14444044
_cell_length_b   9.22384897
_cell_length_c   10.34259588
_cell_angle_alpha   90.63781557
_cell_angle_beta   89.83565738
_cell_angle_gamma   59.92583362
_symmetry_Int_Tables_number   1
_chemical_formula_structural   Al31B5N36
_chemical_formula_sum   'Al31 B5 N36'
_cell_volume   754.84337992
_cell_formula_units_Z   1
loop_
 _symmetry_equiv_pos_site_id
 _symmetry_equiv_pos_as_xyz
  1  'x, y, z'
loop_
 _atom_site_type_symbol
 _atom_site_label
 _atom_site_symmetry_multiplicity
 _atom_site_fract_x
 _atom_site_fract_y
 _atom_site_fract_z
 _atom_site_occupancy
  Al  Al0  1  0.11760045  0.09161986  0.39744914  1
  Al  Al1  1  0.21295439  0.20586553  0.13598478  1
  Al  Al2  1  0.88610220  0.20059255  0.58873228  1
  Al  Al3  1  0.45303025  0.08782194  0.31674824  1
  Al  Al4  1  0.57349503  0.19538048  0.05902979  1
  Al  Al5  1  0.09330645  0.09621917  0.88942134  1
  Al  Al6  1  0.21349207  0.21115769  0.64856301  1
  Al  Al7  1  0.78232104  0.09596802  0.31961129  1
  Al  Al8  1  0.47005349  0.07751011  0.81587564  1
  Al  Al9  1  0.55641820  0.19978380  0.56735516  1
  Al  Al10  1  0.10945696  0.42526250  0.38899407  1
  Al  Al11  1  0.23180823  0.53797375  0.06382675  1
  Al  Al12  1  0.76954168  0.43354606  0.81684272  1
  Al  Al13  1  0.88666220  0.55650241  0.62255308  1
  Al  Al14  1  0.44382655  0.42593797  0.31721681  1
  Al  Al15  1  0.56747409  0.52629473  0.07137158  1
  Al  Al16  1  0.10232809  0.42711736  0.89317514  1
  Al  Al17  1  0.21566059  0.55391573  0.57039265  1
  Al  Al18  1  0.78090889  0.41704861  0.32454401  1
  Al  Al19  1  0.88721819  0.53664599  0.13110410  1
  Al  Al20  1  0.44843798  0.42619962  0.81499819  1
  Al  Al21  1  0.55791294  0.53249031  0.56563770  1
  Al  Al22  1  0.10606166  0.75919936  0.31225958  1
  Al  Al23  1  0.22375837  0.88148225  0.13795657  1
  Al  Al24  1  0.43371772  0.76615848  0.39218019  1
  Al  Al25  1  0.09342952  0.75657241  0.83074018  1
  Al  Al26  1  0.21862938  0.87690511  0.65223479  1
  Al  Al27  1  0.77090877  0.77008482  0.32630483  1
  Al  Al28  1  0.88503753  0.87203690  0.07640424  1
  Al  Al29  1  0.45054699  0.76811907  0.89293644  1
  Al  Al30  1  0.56097226  0.87805299  0.57385669  1
  B  B31  1  0.75799402  0.13093709  0.80007852  1
  B  B32  1  0.88824681  0.20206425  0.10464962  1
  B  B33  1  0.77702618  0.75633707  0.86632987  1
  B  B34  1  0.88195764  0.87231920  0.62306141  1
  B  B35  1  0.55841064  0.87065447  0.10326055  1
  N  N36  1  0.21653165  0.20778438  0.32086997  1
  N  N37  1  0.07988165  0.10824182  0.07914201  1
  N  N38  1  0.86932255  0.19797100  0.83564931  1
  N  N39  1  0.78141521  0.07197126  0.64997217  1
  N  N40  1  0.55497994  0.20578055  0.38090847  1
  N  N41  1  0.46531499  0.06461447  0.12140600  1
  N  N42  1  0.21583067  0.20321353  0.83529666  1
  N  N43  1  0.12104334  0.08833846  0.58204310  1
  N  N44  1  0.88131962  0.20788779  0.39666429  1
  N  N45  1  0.79581786  0.10750531  0.12622015  1
  N  N46  1  0.58417455  0.19511272  0.86885669  1
  N  N47  1  0.44619664  0.09651334  0.63336532  1
  N  N48  1  0.22458505  0.54705714  0.38386240  1
  N  N49  1  0.11124516  0.42403551  0.07854879  1
  N  N50  1  0.87274127  0.56270146  0.85300004  1
  N  N51  1  0.77419864  0.43484967  0.63102336  1
  N  N52  1  0.55776566  0.53329371  0.37735172  1
  N  N53  1  0.44992551  0.41816942  0.13046439  1
  N  N54  1  0.23046037  0.53261073  0.87832272  1
  N  N55  1  0.11008263  0.42384907  0.57699727  1
  N  N56  1  0.89094014  0.53830152  0.32878191  1
  N  N57  1  0.79425005  0.39061841  0.13042527  1
  N  N58  1  0.55480953  0.53466454  0.88833052  1
  N  N59  1  0.44395231  0.42753261  0.63068631  1
  N  N60  1  0.22231955  0.87989086  0.32176759  1
  N  N61  1  0.11620722  0.75464910  0.12368406  1
  N  N62  1  0.87656128  0.84142656  0.89662944  1
  N  N63  1  0.79214647  0.78225395  0.60393193  1
  N  N64  1  0.55152555  0.87926613  0.38706713  1
  N  N65  1  0.45841506  0.77843990  0.08615296  1
  N  N66  1  0.22274091  0.87080885  0.83850921  1
  N  N67  1  0.07538359  0.77698945  0.64095648  1
  N  N68  1  0.88630064  0.87735168  0.35032679  1
  N  N69  1  0.74325864  0.77552449  0.13127302  1
  N  N70  1  0.59050823  0.85244993  0.85552612  1
  N  N71  1  0.43522717  0.76304106  0.58222273  1
