# generated using pymatgen
data_Al31B5N36
_symmetry_space_group_name_H-M   'P 1'
_cell_length_a   9.17685879
_cell_length_b   9.17711342
_cell_length_c   9.79397186
_cell_angle_alpha   90.07279074
_cell_angle_beta   90.06266290
_cell_angle_gamma   60.03972101
_symmetry_Int_Tables_number   1
_chemical_formula_structural   Al31B5N36
_chemical_formula_sum   'Al31 B5 N36'
_cell_volume   714.59983217
_cell_formula_units_Z   1
loop_
 _symmetry_equiv_pos_site_id
 _symmetry_equiv_pos_as_xyz
  1  'x, y, z'
loop_
 _atom_site_type_symbol
 _atom_site_label
 _atom_site_symmetry_multiplicity
 _atom_site_fract_x
 _atom_site_fract_y
 _atom_site_fract_z
 _atom_site_occupancy
  Al  Al0  1  0.10540479  0.09529729  0.40838259  1
  Al  Al1  1  0.21900703  0.20189173  0.16415612  1
  Al  Al2  1  0.88666101  0.19533840  0.66726826  1
  Al  Al3  1  0.44655111  0.09022646  0.40829765  1
  Al  Al4  1  0.56323467  0.19950359  0.15968986  1
  Al  Al5  1  0.10100334  0.09398440  0.91926463  1
  Al  Al6  1  0.22139801  0.20335469  0.66508197  1
  Al  Al7  1  0.78084841  0.08798635  0.41017801  1
  Al  Al8  1  0.45685356  0.08344351  0.91994140  1
  Al  Al9  1  0.56520153  0.19461247  0.66974650  1
  Al  Al10  1  0.10790535  0.42787758  0.41521955  1
  Al  Al11  1  0.22000040  0.54098817  0.16630594  1
  Al  Al12  1  0.77763507  0.42196431  0.91799258  1
  Al  Al13  1  0.88541680  0.54870437  0.66958907  1
  Al  Al14  1  0.44490080  0.42515219  0.41563269  1
  Al  Al15  1  0.56037276  0.53592091  0.16529898  1
  Al  Al16  1  0.10623626  0.43321385  0.91593485  1
  Al  Al17  1  0.21682243  0.54143125  0.66487506  1
  Al  Al18  1  0.77986732  0.42283780  0.40894598  1
  Al  Al19  1  0.88232487  0.54110785  0.15837398  1
  Al  Al20  1  0.44760722  0.42443809  0.91546120  1
  Al  Al21  1  0.55671089  0.53847385  0.66509508  1
  Al  Al22  1  0.10175291  0.76490731  0.41860119  1
  Al  Al23  1  0.21771485  0.87554858  0.16436994  1
  Al  Al24  1  0.44633907  0.76203480  0.40778051  1
  Al  Al25  1  0.09991423  0.76581307  0.90688477  1
  Al  Al26  1  0.21808488  0.87367501  0.66442017  1
  Al  Al27  1  0.77774156  0.76480018  0.40981071  1
  Al  Al28  1  0.88213952  0.87767965  0.14948079  1
  Al  Al29  1  0.45121763  0.76230647  0.91922713  1
  Al  Al30  1  0.56505703  0.87041104  0.66733240  1
  B  B31  1  0.77555813  0.09836911  0.91825168  1
  B  B32  1  0.88785383  0.20453618  0.16081268  1
  B  B33  1  0.76309352  0.77057789  0.91872208  1
  B  B34  1  0.88013838  0.87603369  0.66792386  1
  B  B35  1  0.55383793  0.87270294  0.16237797  1
  N  N36  1  0.22103463  0.20475843  0.35583812  1
  N  N37  1  0.08375033  0.10646255  0.11250971  1
  N  N38  1  0.87457389  0.19092812  0.85863448  1
  N  N39  1  0.79023167  0.06630566  0.60666974  1
  N  N40  1  0.55775983  0.20332697  0.35297963  1
  N  N41  1  0.45476416  0.06889137  0.11296473  1
  N  N42  1  0.22246594  0.20257921  0.86055054  1
  N  N43  1  0.10641847  0.09559643  0.60265154  1
  N  N44  1  0.88517962  0.20239022  0.33156657  1
  N  N45  1  0.78780132  0.10473325  0.08818161  1
  N  N46  1  0.58013203  0.19194940  0.86667240  1
  N  N47  1  0.44562757  0.09164986  0.60493837  1
  N  N48  1  0.22004843  0.54066231  0.36030827  1
  N  N49  1  0.11046683  0.42738015  0.10708652  1
  N  N50  1  0.87292586  0.56481744  0.86621563  1
  N  N51  1  0.78160095  0.42294294  0.60591868  1
  N  N52  1  0.55536068  0.53721024  0.35636849  1
  N  N53  1  0.44326441  0.42738276  0.10719835  1
  N  N54  1  0.22337977  0.53718781  0.85532372  1
  N  N55  1  0.10755533  0.42730109  0.60839004  1
  N  N56  1  0.88570800  0.54121010  0.35248895  1
  N  N57  1  0.79023645  0.40095066  0.11101004  1
  N  N58  1  0.55570954  0.53984907  0.85854002  1
  N  N59  1  0.44617337  0.42314243  0.60952641  1
  N  N60  1  0.22019580  0.86971096  0.35715274  1
  N  N61  1  0.10983940  0.76077843  0.09973524  1
  N  N62  1  0.86516244  0.88397720  0.85263401  1
  N  N63  1  0.78973300  0.77497487  0.60668247  1
  N  N64  1  0.55911559  0.86975743  0.33174780  1
  N  N65  1  0.45540704  0.77326822  0.11355140  1
  N  N66  1  0.22519321  0.87183847  0.85780964  1
  N  N67  1  0.08240986  0.77503525  0.61697572  1
  N  N68  1  0.88759433  0.87149347  0.34173486  1
  N  N69  1  0.75266963  0.77361582  0.08921303  1
  N  N70  1  0.57959025  0.85912887  0.85884780  1
  N  N71  1  0.44680641  0.76272060  0.60337880  1
