# generated using pymatgen
data_Al31B5N36
_symmetry_space_group_name_H-M   'P 1'
_cell_length_a   9.20006903
_cell_length_b   9.23758218
_cell_length_c   10.08697023
_cell_angle_alpha   90.10149411
_cell_angle_beta   89.50106845
_cell_angle_gamma   59.72787954
_symmetry_Int_Tables_number   1
_chemical_formula_structural   Al31B5N36
_chemical_formula_sum   'Al31 B5 N36'
_cell_volume   740.31380118
_cell_formula_units_Z   1
loop_
 _symmetry_equiv_pos_site_id
 _symmetry_equiv_pos_as_xyz
  1  'x, y, z'
loop_
 _atom_site_type_symbol
 _atom_site_label
 _atom_site_symmetry_multiplicity
 _atom_site_fract_x
 _atom_site_fract_y
 _atom_site_fract_z
 _atom_site_occupancy
  Al  Al0  1  0.11567227  0.08781704  0.39691751  1
  Al  Al1  1  0.22537294  0.20458186  0.07511295  1
  Al  Al2  1  0.88414639  0.20273243  0.59461293  1
  Al  Al3  1  0.44992318  0.08821577  0.31337907  1
  Al  Al4  1  0.57520745  0.19991907  0.06254153  1
  Al  Al5  1  0.08927815  0.09797105  0.88876479  1
  Al  Al6  1  0.22699028  0.20586663  0.59405801  1
  Al  Al7  1  0.78124728  0.09617817  0.32141540  1
  Al  Al8  1  0.46429188  0.08159107  0.83092001  1
  Al  Al9  1  0.55799312  0.19804141  0.57127723  1
  Al  Al10  1  0.11105871  0.42783414  0.31895461  1
  Al  Al11  1  0.22795867  0.53461932  0.06650111  1
  Al  Al12  1  0.77081655  0.43581459  0.81547954  1
  Al  Al13  1  0.88814266  0.55027208  0.56937856  1
  Al  Al14  1  0.44379470  0.42600924  0.32242519  1
  Al  Al15  1  0.56096266  0.53504865  0.07258973  1
  Al  Al16  1  0.10556144  0.43215268  0.82538952  1
  Al  Al17  1  0.21071258  0.54886279  0.57331727  1
  Al  Al18  1  0.78266413  0.41933236  0.32793961  1
  Al  Al19  1  0.88398305  0.53613943  0.07594244  1
  Al  Al20  1  0.44850973  0.42736160  0.81627658  1
  Al  Al21  1  0.55263628  0.54531539  0.56738511  1
  Al  Al22  1  0.10801966  0.75764934  0.31385100  1
  Al  Al23  1  0.21674093  0.88490156  0.13014049  1
  Al  Al24  1  0.45184634  0.76276914  0.31539767  1
  Al  Al25  1  0.09115883  0.75949872  0.84052175  1
  Al  Al26  1  0.21276204  0.87651286  0.65349959  1
  Al  Al27  1  0.77085334  0.76231770  0.32192277  1
  Al  Al28  1  0.88365430  0.87201989  0.09231661  1
  Al  Al29  1  0.45441773  0.75933744  0.83491771  1
  Al  Al30  1  0.56141428  0.87345938  0.57379940  1
  B  B31  1  0.75656167  0.13240333  0.80024473  1
  B  B32  1  0.88702173  0.20725935  0.10838911  1
  B  B33  1  0.77903303  0.75701513  0.88300324  1
  B  B34  1  0.88008525  0.86901873  0.62802609  1
  B  B35  1  0.56507832  0.86276298  0.07204712  1
  N  N36  1  0.22585129  0.20540978  0.36589938  1
  N  N37  1  0.07541507  0.11406020  0.08281728  1
  N  N38  1  0.86794499  0.20068011  0.83169829  1
  N  N39  1  0.78142411  0.06912181  0.65120259  1
  N  N40  1  0.55620626  0.20260205  0.38186370  1
  N  N41  1  0.46659193  0.06818613  0.11707641  1
  N  N42  1  0.22467884  0.20293743  0.88055303  1
  N  N43  1  0.11806294  0.08716990  0.58860259  1
  N  N44  1  0.88023336  0.20604088  0.39774277  1
  N  N45  1  0.79548189  0.11277600  0.12711451  1
  N  N46  1  0.58505243  0.19666201  0.86996464  1
  N  N47  1  0.44908220  0.09125113  0.64303055  1
  N  N48  1  0.21930425  0.54159726  0.38449324  1
  N  N49  1  0.11033702  0.43063395  0.12886973  1
  N  N50  1  0.87261236  0.55870621  0.88449266  1
  N  N51  1  0.77425207  0.43892248  0.62857810  1
  N  N52  1  0.55316457  0.54201001  0.37719531  1
  N  N53  1  0.44856645  0.42169372  0.13144659  1
  N  N54  1  0.22863087  0.53035458  0.87997572  1
  N  N55  1  0.10750753  0.43083488  0.63723202  1
  N  N56  1  0.88795966  0.53790871  0.37921142  1
  N  N57  1  0.79334191  0.39756144  0.13151618  1
  N  N58  1  0.55461825  0.53726997  0.88634010  1
  N  N59  1  0.44341270  0.42979245  0.62791867  1
  N  N60  1  0.21982892  0.87738241  0.32434588  1
  N  N61  1  0.11805543  0.75386020  0.11946305  1
  N  N62  1  0.87364976  0.84301339  0.90267000  1
  N  N63  1  0.79068235  0.77890619  0.61285788  1
  N  N64  1  0.55051228  0.87480470  0.38728780  1
  N  N65  1  0.46104826  0.77269936  0.11934907  1
  N  N66  1  0.21554083  0.87283059  0.84699706  1
  N  N67  1  0.07368489  0.77622680  0.64152262  1
  N  N68  1  0.88411866  0.87302957  0.33423047  1
  N  N69  1  0.74806521  0.76417406  0.13126606  1
  N  N70  1  0.58311023  0.85558326  0.90325120  1
  N  N71  1  0.45048845  0.76119396  0.64100291  1
