# generated using pymatgen
data_Al31B5N36
_symmetry_space_group_name_H-M   'P 1'
_cell_length_a   9.17887876
_cell_length_b   9.17288154
_cell_length_c   9.99695008
_cell_angle_alpha   89.96745986
_cell_angle_beta   89.79502324
_cell_angle_gamma   60.16126172
_symmetry_Int_Tables_number   1
_chemical_formula_structural   Al31B5N36
_chemical_formula_sum   'Al31 B5 N36'
_cell_volume   730.11925075
_cell_formula_units_Z   1
loop_
 _symmetry_equiv_pos_site_id
 _symmetry_equiv_pos_as_xyz
  1  'x, y, z'
loop_
 _atom_site_type_symbol
 _atom_site_label
 _atom_site_symmetry_multiplicity
 _atom_site_fract_x
 _atom_site_fract_y
 _atom_site_fract_z
 _atom_site_occupancy
  Al  Al0  1  0.11233106  0.09656252  0.40044931  1
  Al  Al1  1  0.20898329  0.20810616  0.14343550  1
  Al  Al2  1  0.88594135  0.19089854  0.65003316  1
  Al  Al3  1  0.45083455  0.09110521  0.32103511  1
  Al  Al4  1  0.57128045  0.19772600  0.08585839  1
  Al  Al5  1  0.09423438  0.09098436  0.90724279  1
  Al  Al6  1  0.21708965  0.20674105  0.65701087  1
  Al  Al7  1  0.78288751  0.09492139  0.33674226  1
  Al  Al8  1  0.44874889  0.08856122  0.87174963  1
  Al  Al9  1  0.56276654  0.18838720  0.57460991  1
  Al  Al10  1  0.11081846  0.42666914  0.40128029  1
  Al  Al11  1  0.22142667  0.54027216  0.15256452  1
  Al  Al12  1  0.77684381  0.41811583  0.90498074  1
  Al  Al13  1  0.88696187  0.54878383  0.65731531  1
  Al  Al14  1  0.44155540  0.43470222  0.40002492  1
  Al  Al15  1  0.56135322  0.53527526  0.15225779  1
  Al  Al16  1  0.10003568  0.43718443  0.90343893  1
  Al  Al17  1  0.21666646  0.54086201  0.64954822  1
  Al  Al18  1  0.78146234  0.42653838  0.40132909  1
  Al  Al19  1  0.88093354  0.54082244  0.14810664  1
  Al  Al20  1  0.44345147  0.43026232  0.89741571  1
  Al  Al21  1  0.55749992  0.53804178  0.65241028  1
  Al  Al22  1  0.10599658  0.76427168  0.39615986  1
  Al  Al23  1  0.22003488  0.87689723  0.15309115  1
  Al  Al24  1  0.44863062  0.76271345  0.39730637  1
  Al  Al25  1  0.09871444  0.76648025  0.89994828  1
  Al  Al26  1  0.21966645  0.87379401  0.65003692  1
  Al  Al27  1  0.77947855  0.76339858  0.39073350  1
  Al  Al28  1  0.88495115  0.87630625  0.12816077  1
  Al  Al29  1  0.45065845  0.76097042  0.90615197  1
  Al  Al30  1  0.57020785  0.86971865  0.65765641  1
  B  B31  1  0.77220109  0.07964664  0.87231834  1
  B  B32  1  0.88939452  0.20890054  0.15934067  1
  B  B33  1  0.75710377  0.78026953  0.91726795  1
  B  B34  1  0.88827710  0.87470744  0.59875803  1
  B  B35  1  0.55879575  0.86207803  0.14600869  1
  N  N36  1  0.22143168  0.20710079  0.33514872  1
  N  N37  1  0.08177536  0.10563839  0.09758647  1
  N  N38  1  0.86917140  0.18013529  0.84264446  1
  N  N39  1  0.79777302  0.05815117  0.58902433  1
  N  N40  1  0.55603502  0.20247033  0.38031126  1
  N  N41  1  0.45430084  0.07199853  0.11394647  1
  N  N42  1  0.20779167  0.20788992  0.85183763  1
  N  N43  1  0.10850099  0.09548426  0.59055939  1
  N  N44  1  0.89830985  0.21334802  0.32550673  1
  N  N45  1  0.78821910  0.11261784  0.14034146  1
  N  N46  1  0.58350811  0.18893053  0.88953350  1
  N  N47  1  0.44374338  0.09507482  0.63808868  1
  N  N48  1  0.22180447  0.53976748  0.34211774  1
  N  N49  1  0.10670370  0.43325326  0.09109238  1
  N  N50  1  0.87196887  0.56371518  0.85117401  1
  N  N51  1  0.78219680  0.42275996  0.59455422  1
  N  N52  1  0.55858297  0.53820221  0.34071664  1
  N  N53  1  0.44125227  0.43227828  0.08971241  1
  N  N54  1  0.21877288  0.54002564  0.83813518  1
  N  N55  1  0.10774083  0.42732976  0.59205168  1
  N  N56  1  0.88899823  0.54003193  0.33865378  1
  N  N57  1  0.79072050  0.40135774  0.09648241  1
  N  N58  1  0.55620767  0.53924885  0.84235915  1
  N  N59  1  0.44325273  0.43033447  0.59214156  1
  N  N60  1  0.22393802  0.87214817  0.34314062  1
  N  N61  1  0.11670598  0.75921475  0.08834811  1
  N  N62  1  0.85606214  0.89152640  0.88793292  1
  N  N63  1  0.79259018  0.77508671  0.58499280  1
  N  N64  1  0.56483048  0.85960124  0.31309607  1
  N  N65  1  0.45493778  0.77232064  0.09715143  1
  N  N66  1  0.22376921  0.86988539  0.84137761  1
  N  N67  1  0.08385918  0.77402600  0.59203359  1
  N  N68  1  0.89407887  0.86275169  0.32379567  1
  N  N69  1  0.74749924  0.77159397  0.08049188  1
  N  N70  1  0.58184891  0.85583238  0.84954505  1
  N  N71  1  0.45044204  0.76284882  0.58997330  1
