# generated using pymatgen
data_Al31B5N36
_symmetry_space_group_name_H-M   'P 1'
_cell_length_a   9.15703967
_cell_length_b   9.13896101
_cell_length_c   10.29979419
_cell_angle_alpha   90.13386094
_cell_angle_beta   89.56435264
_cell_angle_gamma   60.12002714
_symmetry_Int_Tables_number   1
_chemical_formula_structural   Al31B5N36
_chemical_formula_sum   'Al31 B5 N36'
_cell_volume   747.32878230
_cell_formula_units_Z   1
loop_
 _symmetry_equiv_pos_site_id
 _symmetry_equiv_pos_as_xyz
  1  'x, y, z'
loop_
 _atom_site_type_symbol
 _atom_site_label
 _atom_site_symmetry_multiplicity
 _atom_site_fract_x
 _atom_site_fract_y
 _atom_site_fract_z
 _atom_site_occupancy
  Al  Al0  1  0.11507410  0.09004677  0.39910270  1
  Al  Al1  1  0.21209401  0.20772080  0.13696412  1
  Al  Al2  1  0.88727478  0.19869963  0.61718811  1
  Al  Al3  1  0.45704043  0.07933340  0.31624366  1
  Al  Al4  1  0.57141341  0.19520767  0.05709915  1
  Al  Al5  1  0.09703295  0.09717972  0.88561456  1
  Al  Al6  1  0.21364234  0.21264737  0.64527320  1
  Al  Al7  1  0.78081153  0.10416985  0.31476142  1
  Al  Al8  1  0.46140635  0.08412174  0.81348310  1
  Al  Al9  1  0.56097307  0.19789487  0.56635181  1
  Al  Al10  1  0.10926739  0.42076108  0.39185687  1
  Al  Al11  1  0.23217247  0.53473516  0.06514025  1
  Al  Al12  1  0.77664298  0.42207965  0.88323757  1
  Al  Al13  1  0.88978157  0.55518130  0.64496091  1
  Al  Al14  1  0.44363439  0.41981234  0.31637459  1
  Al  Al15  1  0.56601774  0.53845548  0.13764098  1
  Al  Al16  1  0.09887941  0.43287988  0.89240398  1
  Al  Al17  1  0.21937129  0.55168169  0.56958046  1
  Al  Al18  1  0.77529201  0.43063615  0.40220297  1
  Al  Al19  1  0.88201430  0.53804014  0.14442564  1
  Al  Al20  1  0.44607519  0.41676785  0.81559392  1
  Al  Al21  1  0.55682498  0.54596889  0.64787299  1
  Al  Al22  1  0.11037370  0.75741104  0.31157223  1
  Al  Al23  1  0.22315411  0.88471536  0.13310118  1
  Al  Al24  1  0.43802061  0.75541146  0.39362841  1
  Al  Al25  1  0.09449483  0.76837686  0.86049069  1
  Al  Al26  1  0.21438919  0.87502851  0.65054296  1
  Al  Al27  1  0.78562414  0.76125733  0.38478053  1
  Al  Al28  1  0.87583097  0.87495944  0.11506923  1
  Al  Al29  1  0.45580179  0.76281552  0.88962340  1
  Al  Al30  1  0.55584397  0.87637230  0.58163019  1
  B  B31  1  0.77250103  0.08118867  0.80937594  1
  B  B32  1  0.88631424  0.20747861  0.09354749  1
  B  B33  1  0.76960152  0.77643867  0.85437189  1
  B  B34  1  0.88938819  0.86932308  0.61528020  1
  B  B35  1  0.56154252  0.86626677  0.10048353  1
  N  N36  1  0.22009859  0.20391259  0.32201219  1
  N  N37  1  0.07872567  0.11164024  0.07609677  1
  N  N38  1  0.87590059  0.19076944  0.82152764  1
  N  N39  1  0.78197789  0.06108006  0.64633620  1
  N  N40  1  0.55862902  0.20031482  0.37960263  1
  N  N41  1  0.46569089  0.06139649  0.12089437  1
  N  N42  1  0.21380790  0.20931511  0.83353160  1
  N  N43  1  0.12030405  0.08906304  0.58417415  1
  N  N44  1  0.88490529  0.20102221  0.39468296  1
  N  N45  1  0.79185911  0.11697984  0.12244539  1
  N  N46  1  0.58218953  0.19005780  0.87105550  1
  N  N47  1  0.44378203  0.09894900  0.63028301  1
  N  N48  1  0.22477194  0.54397719  0.38037425  1
  N  N49  1  0.10340993  0.42887170  0.07906107  1
  N  N50  1  0.87533613  0.57273558  0.83350883  1
  N  N51  1  0.77572138  0.44205978  0.58909069  1
  N  N52  1  0.56211445  0.53835307  0.32373128  1
  N  N53  1  0.44725573  0.41606098  0.12768454  1
  N  N54  1  0.22825238  0.53648424  0.87959052  1
  N  N55  1  0.10741261  0.42730000  0.57877414  1
  N  N56  1  0.88999242  0.53457434  0.32961002  1
  N  N57  1  0.79253570  0.39931880  0.07440846  1
  N  N58  1  0.55558294  0.54103978  0.83455299  1
  N  N59  1  0.44370570  0.42316473  0.62950202  1
  N  N60  1  0.22499428  0.87652121  0.31905249  1
  N  N61  1  0.11427624  0.76068895  0.10434199  1
  N  N62  1  0.85730897  0.88287763  0.86852988  1
  N  N63  1  0.79966606  0.77550936  0.57643744  1
  N  N64  1  0.55359838  0.87243318  0.39071809  1
  N  N65  1  0.45721096  0.77596103  0.07884924  1
  N  N66  1  0.22640089  0.87177780  0.83760629  1
  N  N67  1  0.07629318  0.77831884  0.62487196  1
  N  N68  1  0.88257704  0.87314597  0.31076349  1
  N  N69  1  0.74291805  0.76864503  0.10434278  1
  N  N70  1  0.58776908  0.85353869  0.83286689  1
  N  N71  1  0.43148731  0.75755967  0.58052423  1
