# generated using pymatgen
data_Al31B5N36
_symmetry_space_group_name_H-M   'P 1'
_cell_length_a   9.12435075
_cell_length_b   9.14598460
_cell_length_c   10.44831738
_cell_angle_alpha   90.50020170
_cell_angle_beta   89.77704929
_cell_angle_gamma   59.96306813
_symmetry_Int_Tables_number   1
_chemical_formula_structural   Al31B5N36
_chemical_formula_sum   'Al31 B5 N36'
_cell_volume   754.76430920
_cell_formula_units_Z   1
loop_
 _symmetry_equiv_pos_site_id
 _symmetry_equiv_pos_as_xyz
  1  'x, y, z'
loop_
 _atom_site_type_symbol
 _atom_site_label
 _atom_site_symmetry_multiplicity
 _atom_site_fract_x
 _atom_site_fract_y
 _atom_site_fract_z
 _atom_site_occupancy
  Al  Al0  1  0.11844671  0.09107445  0.39764824  1
  Al  Al1  1  0.21021099  0.21003530  0.13731120  1
  Al  Al2  1  0.88627947  0.19369431  0.58966704  1
  Al  Al3  1  0.45454680  0.08318689  0.31561984  1
  Al  Al4  1  0.56907537  0.19581731  0.06339932  1
  Al  Al5  1  0.09330683  0.09276600  0.89159226  1
  Al  Al6  1  0.20960955  0.21264090  0.64735152  1
  Al  Al7  1  0.77803827  0.10218766  0.32301942  1
  Al  Al8  1  0.45827717  0.08633177  0.81478319  1
  Al  Al9  1  0.55903463  0.19562990  0.56462113  1
  Al  Al10  1  0.10813746  0.42374899  0.39370553  1
  Al  Al11  1  0.23122543  0.53974309  0.06154313  1
  Al  Al12  1  0.77354021  0.42033318  0.81571946  1
  Al  Al13  1  0.89156819  0.55623581  0.64444710  1
  Al  Al14  1  0.44278976  0.42629256  0.31682292  1
  Al  Al15  1  0.56996909  0.52688785  0.07130480  1
  Al  Al16  1  0.09749648  0.43371868  0.89281107  1
  Al  Al17  1  0.21966373  0.55023726  0.57111303  1
  Al  Al18  1  0.78100079  0.41845244  0.32687569  1
  Al  Al19  1  0.88523221  0.54640532  0.14481284  1
  Al  Al20  1  0.45204307  0.42181551  0.81626628  1
  Al  Al21  1  0.56245190  0.52708657  0.56789691  1
  Al  Al22  1  0.11289992  0.75512801  0.30891137  1
  Al  Al23  1  0.22654323  0.88252334  0.13664609  1
  Al  Al24  1  0.43534494  0.76511927  0.39626567  1
  Al  Al25  1  0.09121194  0.76337117  0.82719987  1
  Al  Al26  1  0.21987890  0.87525325  0.65183392  1
  Al  Al27  1  0.78460424  0.76468310  0.38982774  1
  Al  Al28  1  0.87929362  0.87523395  0.12158770  1
  Al  Al29  1  0.45491178  0.76525961  0.88899238  1
  Al  Al30  1  0.55593793  0.87777511  0.58565455  1
  B  B31  1  0.77357585  0.08335722  0.84301619  1
  B  B32  1  0.88763700  0.20602576  0.10814593  1
  B  B33  1  0.76835869  0.77889361  0.85366098  1
  B  B34  1  0.88498490  0.87548505  0.61059690  1
  B  B35  1  0.56127738  0.86866461  0.10162831  1
  N  N36  1  0.21605763  0.20866883  0.32039155  1
  N  N37  1  0.07942837  0.11001934  0.07973344  1
  N  N38  1  0.87047968  0.17885085  0.83784767  1
  N  N39  1  0.78656536  0.05980235  0.61518984  1
  N  N40  1  0.55201673  0.20586822  0.37918907  1
  N  N41  1  0.46395587  0.06435214  0.12351247  1
  N  N42  1  0.20610972  0.20933939  0.83335132  1
  N  N43  1  0.12193126  0.08614406  0.58041060  1
  N  N44  1  0.88357081  0.20754755  0.39647982  1
  N  N45  1  0.79145965  0.11495267  0.12931370  1
  N  N46  1  0.57941538  0.19064019  0.87712820  1
  N  N47  1  0.44168205  0.10105965  0.63449821  1
  N  N48  1  0.22367466  0.54693215  0.38569020  1
  N  N49  1  0.10456355  0.42972173  0.07598449  1
  N  N50  1  0.87688076  0.57838922  0.83062011  1
  N  N51  1  0.77892529  0.42873140  0.63456234  1
  N  N52  1  0.55873154  0.53093791  0.38083073  1
  N  N53  1  0.44765830  0.42168139  0.13125314  1
  N  N54  1  0.22855497  0.53785792  0.87819423  1
  N  N55  1  0.10777070  0.42538034  0.57770261  1
  N  N56  1  0.89081406  0.54269525  0.32903346  1
  N  N57  1  0.79496161  0.39510778  0.13413555  1
  N  N58  1  0.56151618  0.52948960  0.88945676  1
  N  N59  1  0.44673194  0.42338398  0.63295097  1
  N  N60  1  0.22579484  0.87803854  0.32038525  1
  N  N61  1  0.11778451  0.75631147  0.12076960  1
  N  N62  1  0.85559797  0.88727677  0.86793088  1
  N  N63  1  0.79948192  0.77364371  0.57756833  1
  N  N64  1  0.55154118  0.87928370  0.39329399  1
  N  N65  1  0.45810281  0.77965504  0.08023807  1
  N  N66  1  0.22726397  0.86900684  0.83585250  1
  N  N67  1  0.07775336  0.77439033  0.63742439  1
  N  N68  1  0.88305803  0.87356397  0.31598845  1
  N  N69  1  0.74412093  0.77330120  0.10273592  1
  N  N70  1  0.58609107  0.85466693  0.83217352  1
  N  N71  1  0.43563533  0.75870057  0.58381526  1
