# generated using pymatgen
data_Al31B5N36
_symmetry_space_group_name_H-M   'P 1'
_cell_length_a   9.16962768
_cell_length_b   9.23651250
_cell_length_c   10.25515022
_cell_angle_alpha   90.50761603
_cell_angle_beta   89.77661218
_cell_angle_gamma   59.82378345
_symmetry_Int_Tables_number   1
_chemical_formula_structural   Al31B5N36
_chemical_formula_sum   'Al31 B5 N36'
_cell_volume   750.79463139
_cell_formula_units_Z   1
loop_
 _symmetry_equiv_pos_site_id
 _symmetry_equiv_pos_as_xyz
  1  'x, y, z'
loop_
 _atom_site_type_symbol
 _atom_site_label
 _atom_site_symmetry_multiplicity
 _atom_site_fract_x
 _atom_site_fract_y
 _atom_site_fract_z
 _atom_site_occupancy
  Al  Al0  1  0.11606896  0.09318342  0.39805713  1
  Al  Al1  1  0.21554473  0.20370020  0.13132504  1
  Al  Al2  1  0.88523671  0.20255111  0.59139164  1
  Al  Al3  1  0.45437354  0.08602386  0.31751790  1
  Al  Al4  1  0.57538904  0.19488161  0.05930845  1
  Al  Al5  1  0.09301208  0.09808051  0.89033911  1
  Al  Al6  1  0.21760955  0.20505020  0.64919227  1
  Al  Al7  1  0.78192534  0.09605557  0.31894242  1
  Al  Al8  1  0.47175763  0.07717566  0.81835119  1
  Al  Al9  1  0.55690814  0.19944369  0.56846547  1
  Al  Al10  1  0.10882898  0.43368015  0.33026457  1
  Al  Al11  1  0.22833107  0.53492866  0.06388947  1
  Al  Al12  1  0.76910371  0.43730803  0.81479859  1
  Al  Al13  1  0.88750611  0.55137928  0.57008154  1
  Al  Al14  1  0.44450755  0.42479309  0.31864603  1
  Al  Al15  1  0.56455865  0.52709288  0.07418141  1
  Al  Al16  1  0.10306485  0.43587070  0.83444366  1
  Al  Al17  1  0.21168918  0.55031912  0.57493639  1
  Al  Al18  1  0.78225825  0.41916185  0.32497969  1
  Al  Al19  1  0.88101254  0.53753096  0.07195909  1
  Al  Al20  1  0.44947022  0.42696746  0.81580599  1
  Al  Al21  1  0.55750917  0.53287682  0.56642831  1
  Al  Al22  1  0.10849258  0.75823737  0.31167024  1
  Al  Al23  1  0.22346238  0.88254696  0.13778822  1
  Al  Al24  1  0.43302991  0.76704309  0.39280714  1
  Al  Al25  1  0.09245087  0.76072219  0.83528728  1
  Al  Al26  1  0.21787706  0.87655145  0.65220019  1
  Al  Al27  1  0.77055772  0.76206129  0.32329638  1
  Al  Al28  1  0.88675072  0.86966751  0.08851040  1
  Al  Al29  1  0.44972419  0.76874789  0.89288069  1
  Al  Al30  1  0.56392203  0.87582434  0.57583123  1
  B  B31  1  0.75758354  0.13419100  0.79946464  1
  B  B32  1  0.88806943  0.20457268  0.10582984  1
  B  B33  1  0.77595446  0.75877235  0.87210286  1
  B  B34  1  0.88227464  0.87040519  0.62657743  1
  B  B35  1  0.55886765  0.86734681  0.10439399  1
  N  N36  1  0.21936444  0.20281063  0.32211266  1
  N  N37  1  0.07877183  0.11040297  0.08012867  1
  N  N38  1  0.86931100  0.20061056  0.83423718  1
  N  N39  1  0.78137526  0.07208423  0.65100244  1
  N  N40  1  0.55599090  0.20409467  0.38123157  1
  N  N41  1  0.46912091  0.06171809  0.12068570  1
  N  N42  1  0.22150250  0.19918515  0.84264864  1
  N  N43  1  0.12004895  0.08946811  0.58329611  1
  N  N44  1  0.88025863  0.20705098  0.39652054  1
  N  N45  1  0.79609126  0.11076110  0.12580489  1
  N  N46  1  0.58547109  0.19555684  0.86905323  1
  N  N47  1  0.44808798  0.09472192  0.63396803  1
  N  N48  1  0.22180980  0.54414301  0.38645831  1
  N  N49  1  0.10686818  0.43513330  0.11987516  1
  N  N50  1  0.87071070  0.55833084  0.88454356  1
  N  N51  1  0.77466072  0.43850260  0.63060921  1
  N  N52  1  0.55650227  0.53407130  0.37580447  1
  N  N53  1  0.44905295  0.41695496  0.13053372  1
  N  N54  1  0.23005271  0.53268349  0.87965741  1
  N  N55  1  0.10676787  0.43399011  0.63170149  1
  N  N56  1  0.88508971  0.53882612  0.38092508  1
  N  N57  1  0.79549846  0.39509828  0.13164221  1
  N  N58  1  0.55479204  0.53554250  0.88859746  1
  N  N59  1  0.44432380  0.42740871  0.63036287  1
  N  N60  1  0.22081070  0.88026652  0.32385047  1
  N  N61  1  0.12230612  0.75316564  0.12158073  1
  N  N62  1  0.87773146  0.83855111  0.90322857  1
  N  N63  1  0.79472091  0.78028640  0.60556765  1
  N  N64  1  0.55260951  0.87737623  0.38708465  1
  N  N65  1  0.45664725  0.77923539  0.08699720  1
  N  N66  1  0.22205756  0.87240252  0.84006959  1
  N  N67  1  0.07539458  0.77874586  0.64187705  1
  N  N68  1  0.88450559  0.87308703  0.33109941  1
  N  N69  1  0.74368839  0.76498675  0.13280068  1
  N  N70  1  0.59203945  0.85105975  0.85626220  1
  N  N71  1  0.43537104  0.76343129  0.58397518  1
