# generated using pymatgen
data_Al31B5N36
_symmetry_space_group_name_H-M   'P 1'
_cell_length_a   9.17560981
_cell_length_b   9.21827238
_cell_length_c   9.95003658
_cell_angle_alpha   89.40567169
_cell_angle_beta   89.81622935
_cell_angle_gamma   60.24508494
_symmetry_Int_Tables_number   1
_chemical_formula_structural   Al31B5N36
_chemical_formula_sum   'Al31 B5 N36'
_cell_volume   730.60492249
_cell_formula_units_Z   1
loop_
 _symmetry_equiv_pos_site_id
 _symmetry_equiv_pos_as_xyz
  1  'x, y, z'
loop_
 _atom_site_type_symbol
 _atom_site_label
 _atom_site_symmetry_multiplicity
 _atom_site_fract_x
 _atom_site_fract_y
 _atom_site_fract_z
 _atom_site_occupancy
  Al  Al0  1  0.11001767  0.09631025  0.40014861  1
  Al  Al1  1  0.21515694  0.20480733  0.14977763  1
  Al  Al2  1  0.88753910  0.18966230  0.64866654  1
  Al  Al3  1  0.44324773  0.08710652  0.38804215  1
  Al  Al4  1  0.56132794  0.20433736  0.12295398  1
  Al  Al5  1  0.09763035  0.09120268  0.90441458  1
  Al  Al6  1  0.22490362  0.20061406  0.65154091  1
  Al  Al7  1  0.78514536  0.09367785  0.34184885  1
  Al  Al8  1  0.44958114  0.08898445  0.90663779  1
  Al  Al9  1  0.56760874  0.19294333  0.58096703  1
  Al  Al10  1  0.10877137  0.42785077  0.39780182  1
  Al  Al11  1  0.21905359  0.54144130  0.15063327  1
  Al  Al12  1  0.77907357  0.40957731  0.90286527  1
  Al  Al13  1  0.89224001  0.53542206  0.65500602  1
  Al  Al14  1  0.44030310  0.43618481  0.39750002  1
  Al  Al15  1  0.56018152  0.53862748  0.15029800  1
  Al  Al16  1  0.10692475  0.42439380  0.89890320  1
  Al  Al17  1  0.21575722  0.53943048  0.64936233  1
  Al  Al18  1  0.78012857  0.42717123  0.39667007  1
  Al  Al19  1  0.88125425  0.54134634  0.13977598  1
  Al  Al20  1  0.44431889  0.42767152  0.89889048  1
  Al  Al21  1  0.55921209  0.53630639  0.65259201  1
  Al  Al22  1  0.10677040  0.76316370  0.39521909  1
  Al  Al23  1  0.21921631  0.87898368  0.15168737  1
  Al  Al24  1  0.44821636  0.76236796  0.39692700  1
  Al  Al25  1  0.09699856  0.76588710  0.90038392  1
  Al  Al26  1  0.22066131  0.87162378  0.65074110  1
  Al  Al27  1  0.77876423  0.76246728  0.38842860  1
  Al  Al28  1  0.88532021  0.88172348  0.13051483  1
  Al  Al29  1  0.45287269  0.76124379  0.90535830  1
  Al  Al30  1  0.57360039  0.86986154  0.65560986  1
  B  B31  1  0.76580096  0.08919866  0.87222886  1
  B  B32  1  0.88814969  0.21107984  0.15883826  1
  B  B33  1  0.73768546  0.82546437  0.92981020  1
  B  B34  1  0.89052801  0.87000104  0.59651744  1
  B  B35  1  0.55015834  0.87411756  0.15046825  1
  N  N36  1  0.22092525  0.20681896  0.33830469  1
  N  N37  1  0.08284655  0.10828659  0.09649892  1
  N  N38  1  0.86906281  0.17804154  0.84142878  1
  N  N39  1  0.80038027  0.05499860  0.58425305  1
  N  N40  1  0.55395626  0.20813483  0.36584348  1
  N  N41  1  0.45173097  0.07167289  0.10101455  1
  N  N42  1  0.22669984  0.19480850  0.84444625  1
  N  N43  1  0.10998220  0.09288948  0.59099238  1
  N  N44  1  0.89746631  0.21427100  0.32465223  1
  N  N45  1  0.78826869  0.11462421  0.13972250  1
  N  N46  1  0.57896050  0.19295947  0.87699261  1
  N  N47  1  0.44532437  0.08402727  0.58486303  1
  N  N48  1  0.21988254  0.54139155  0.34079081  1
  N  N49  1  0.10996918  0.42898252  0.08924694  1
  N  N50  1  0.89148532  0.51613258  0.83973507  1
  N  N51  1  0.78058690  0.41856414  0.58817887  1
  N  N52  1  0.55603056  0.54145809  0.33932194  1
  N  N53  1  0.44010868  0.43377090  0.09148265  1
  N  N54  1  0.21683909  0.54050811  0.83868555  1
  N  N55  1  0.11276853  0.42251025  0.58801204  1
  N  N56  1  0.88668616  0.54235468  0.33302524  1
  N  N57  1  0.78843774  0.40275350  0.09610489  1
  N  N58  1  0.55521916  0.54033599  0.84343847  1
  N  N59  1  0.44344579  0.42913854  0.59136862  1
  N  N60  1  0.22272842  0.87321335  0.34317203  1
  N  N61  1  0.11538611  0.76089466  0.08899896  1
  N  N62  1  0.84930801  0.90072644  0.89236204  1
  N  N63  1  0.79673710  0.76933471  0.58534786  1
  N  N64  1  0.55811496  0.86998532  0.31565381  1
  N  N65  1  0.45412841  0.77605485  0.09765574  1
  N  N66  1  0.22325342  0.86887773  0.84233690  1
  N  N67  1  0.08507224  0.77225449  0.59200314  1
  N  N68  1  0.89347999  0.86375076  0.32520201  1
  N  N69  1  0.74399538  0.78210435  0.08126415  1
  N  N70  1  0.58195408  0.86532801  0.84898842  1
  N  N71  1  0.45213118  0.76139966  0.59207004  1
