# generated using pymatgen
data_Al31B5N36
_symmetry_space_group_name_H-M   'P 1'
_cell_length_a   9.17685728
_cell_length_b   9.17710100
_cell_length_c   9.79396137
_cell_angle_alpha   90.07296414
_cell_angle_beta   90.06283653
_cell_angle_gamma   60.03989886
_symmetry_Int_Tables_number   1
_chemical_formula_structural   Al31B5N36
_chemical_formula_sum   'Al31 B5 N36'
_cell_volume   714.59925720
_cell_formula_units_Z   1
loop_
 _symmetry_equiv_pos_site_id
 _symmetry_equiv_pos_as_xyz
  1  'x, y, z'
loop_
 _atom_site_type_symbol
 _atom_site_label
 _atom_site_symmetry_multiplicity
 _atom_site_fract_x
 _atom_site_fract_y
 _atom_site_fract_z
 _atom_site_occupancy
  Al  Al0  1  0.10548775  0.09536597  0.40309762  1
  Al  Al1  1  0.21910640  0.20195445  0.15886691  1
  Al  Al2  1  0.88674333  0.19539762  0.66198479  1
  Al  Al3  1  0.44664355  0.09027922  0.40301760  1
  Al  Al4  1  0.56333032  0.19956666  0.15440826  1
  Al  Al5  1  0.10109331  0.09405064  0.91397832  1
  Al  Al6  1  0.22149216  0.20340088  0.65979858  1
  Al  Al7  1  0.78093861  0.08804495  0.40489340  1
  Al  Al8  1  0.45695869  0.08349157  0.91465873  1
  Al  Al9  1  0.56529399  0.19465547  0.66446192  1
  Al  Al10  1  0.10799739  0.42793292  0.40993337  1
  Al  Al11  1  0.22009489  0.54105312  0.16102298  1
  Al  Al12  1  0.77772204  0.42203084  0.91271297  1
  Al  Al13  1  0.88550648  0.54875237  0.66430235  1
  Al  Al14  1  0.44499089  0.42520727  0.41034828  1
  Al  Al15  1  0.56045791  0.53599162  0.16001151  1
  Al  Al16  1  0.10633450  0.43327051  0.91064794  1
  Al  Al17  1  0.21690962  0.54148168  0.65958009  1
  Al  Al18  1  0.77994683  0.42290345  0.40366388  1
  Al  Al19  1  0.88242362  0.54116580  0.15309641  1
  Al  Al20  1  0.44769707  0.42449461  0.91017233  1
  Al  Al21  1  0.55679048  0.53852599  0.65981142  1
  Al  Al22  1  0.10183229  0.76496954  0.41330886  1
  Al  Al23  1  0.21779300  0.87562333  0.15908048  1
  Al  Al24  1  0.44641163  0.76209693  0.40249807  1
  Al  Al25  1  0.10000278  0.76587179  0.90159522  1
  Al  Al26  1  0.21815824  0.87373192  0.65912896  1
  Al  Al27  1  0.77782406  0.76485802  0.40452890  1
  Al  Al28  1  0.88222596  0.87774126  0.14419102  1
  Al  Al29  1  0.45129527  0.76236920  0.91394195  1
  Al  Al30  1  0.56514252  0.87045178  0.66205241  1
  B  B31  1  0.77565210  0.09843336  0.91296640  1
  B  B32  1  0.88794157  0.20460564  0.15552794  1
  B  B33  1  0.76318681  0.77062044  0.91344018  1
  B  B34  1  0.88022511  0.87608421  0.66264000  1
  B  B35  1  0.55392355  0.87276338  0.15709584  1
  N  N36  1  0.22112785  0.20481551  0.35055025  1
  N  N37  1  0.08383899  0.10653446  0.10722266  1
  N  N38  1  0.87466281  0.19099453  0.85335060  1
  N  N39  1  0.79032137  0.06635818  0.60138387  1
  N  N40  1  0.55784931  0.20338380  0.34769779  1
  N  N41  1  0.45486233  0.06895039  0.10768113  1
  N  N42  1  0.22256645  0.20263399  0.85526810  1
  N  N43  1  0.10650057  0.09565571  0.59736659  1
  N  N44  1  0.88526367  0.20245520  0.32628105  1
  N  N45  1  0.78789349  0.10479564  0.08289554  1
  N  N46  1  0.58022637  0.19200465  0.86138640  1
  N  N47  1  0.44572006  0.09169241  0.59965676  1
  N  N48  1  0.22013753  0.54072238  0.35502437  1
  N  N49  1  0.11056183  0.42744298  0.10180098  1
  N  N50  1  0.87302073  0.56487085  0.86093045  1
  N  N51  1  0.78168059  0.42300064  0.60063442  1
  N  N52  1  0.55544216  0.53727350  0.35108187  1
  N  N53  1  0.44335660  0.42744363  0.10191129  1
  N  N54  1  0.22347136  0.53724700  0.85003113  1
  N  N55  1  0.10764481  0.42734822  0.60310405  1
  N  N56  1  0.88579808  0.54126686  0.34720846  1
  N  N57  1  0.79032410  0.40101924  0.10572851  1
  N  N58  1  0.55579726  0.53990927  0.85325661  1
  N  N59  1  0.44626264  0.42318759  0.60424068  1
  N  N60  1  0.22027211  0.86977793  0.35186407  1
  N  N61  1  0.10992702  0.76084248  0.09444758  1
  N  N62  1  0.86525614  0.88403292  0.84734352  1
  N  N63  1  0.78981686  0.77502483  0.60139917  1
  N  N64  1  0.55919954  0.86981228  0.32646512  1
  N  N65  1  0.45548685  0.77333696  0.10826514  1
  N  N66  1  0.22527456  0.87190369  0.85252012  1
  N  N67  1  0.08249333  0.77508614  0.61168384  1
  N  N68  1  0.88767508  0.87155291  0.33644619  1
  N  N69  1  0.75276210  0.77366886  0.08392895  1
  N  N70  1  0.57968146  0.85917837  0.85356570  1
  N  N71  1  0.44688312  0.76277293  0.59809507  1
