# generated using pymatgen
data_Al31B5N36
_symmetry_space_group_name_H-M   'P 1'
_cell_length_a   9.14542462
_cell_length_b   9.13466280
_cell_length_c   10.32980578
_cell_angle_alpha   90.16644299
_cell_angle_beta   89.47700916
_cell_angle_gamma   60.08919432
_symmetry_Int_Tables_number   1
_chemical_formula_structural   Al31B5N36
_chemical_formula_sum   'Al31 B5 N36'
_cell_volume   747.95359363
_cell_formula_units_Z   1
loop_
 _symmetry_equiv_pos_site_id
 _symmetry_equiv_pos_as_xyz
  1  'x, y, z'
loop_
 _atom_site_type_symbol
 _atom_site_label
 _atom_site_symmetry_multiplicity
 _atom_site_fract_x
 _atom_site_fract_y
 _atom_site_fract_z
 _atom_site_occupancy
  Al  Al0  1  0.11605817  0.09344294  0.39909128  1
  Al  Al1  1  0.21224275  0.20630326  0.13566754  1
  Al  Al2  1  0.88764253  0.20020885  0.61728888  1
  Al  Al3  1  0.45661696  0.08094598  0.31502232  1
  Al  Al4  1  0.57292435  0.19316624  0.05664942  1
  Al  Al5  1  0.09748934  0.09501873  0.88506827  1
  Al  Al6  1  0.21397938  0.21223230  0.64670250  1
  Al  Al7  1  0.77990492  0.10627512  0.31522943  1
  Al  Al8  1  0.46225911  0.08321437  0.81342952  1
  Al  Al9  1  0.56123659  0.19801377  0.56490323  1
  Al  Al10  1  0.10956902  0.42184494  0.39144276  1
  Al  Al11  1  0.23082120  0.53492918  0.06556609  1
  Al  Al12  1  0.77706867  0.42123948  0.88289896  1
  Al  Al13  1  0.88882622  0.55507750  0.64469901  1
  Al  Al14  1  0.44157092  0.42211520  0.31471989  1
  Al  Al15  1  0.56560644  0.53869958  0.13665837  1
  Al  Al16  1  0.09919083  0.43254445  0.89137958  1
  Al  Al17  1  0.22532190  0.54236742  0.57137409  1
  Al  Al18  1  0.77488625  0.43076274  0.40182707  1
  Al  Al19  1  0.88205097  0.53725219  0.14415707  1
  Al  Al20  1  0.44722971  0.41535795  0.81664229  1
  Al  Al21  1  0.55692552  0.54653398  0.64883676  1
  Al  Al22  1  0.09962037  0.77580478  0.38523615  1
  Al  Al23  1  0.21664017  0.88021909  0.13925644  1
  Al  Al24  1  0.43928387  0.75500538  0.39260182  1
  Al  Al25  1  0.09502201  0.77194475  0.88827309  1
  Al  Al26  1  0.21366931  0.87515103  0.64751114  1
  Al  Al27  1  0.78397631  0.76074672  0.38217125  1
  Al  Al28  1  0.88312147  0.86974709  0.12983117  1
  Al  Al29  1  0.45382879  0.76347418  0.88963374  1
  Al  Al30  1  0.55491017  0.87684583  0.58088011  1
  B  B31  1  0.77417943  0.07776714  0.80481275  1
  B  B32  1  0.88710198  0.20564911  0.09436442  1
  B  B33  1  0.77146918  0.77593193  0.84753955  1
  B  B34  1  0.88633005  0.87210109  0.60932231  1
  B  B35  1  0.56108933  0.86706131  0.10126096  1
  N  N36  1  0.22004873  0.20520904  0.32070488  1
  N  N37  1  0.07926382  0.10919344  0.07701414  1
  N  N38  1  0.87659396  0.18996497  0.81964041  1
  N  N39  1  0.78219890  0.06290521  0.64195467  1
  N  N40  1  0.55781442  0.20182892  0.37877729  1
  N  N41  1  0.46531389  0.06195072  0.12077830  1
  N  N42  1  0.21444146  0.20746959  0.83412328  1
  N  N43  1  0.12075916  0.09057254  0.58338208  1
  N  N44  1  0.88602803  0.20115676  0.39382521  1
  N  N45  1  0.79240615  0.11462034  0.12434916  1
  N  N46  1  0.58461385  0.18735664  0.87076303  1
  N  N47  1  0.44440146  0.09924713  0.63039317  1
  N  N48  1  0.22680137  0.54173575  0.38272959  1
  N  N49  1  0.10311951  0.42830770  0.07834507  1
  N  N50  1  0.87533965  0.57115717  0.83211863  1
  N  N51  1  0.77516285  0.44252937  0.58804703  1
  N  N52  1  0.56260621  0.53841192  0.32231490  1
  N  N53  1  0.44658873  0.41646253  0.12676807  1
  N  N54  1  0.22832097  0.53497282  0.87651127  1
  N  N55  1  0.10686686  0.42666197  0.57978946  1
  N  N56  1  0.89016638  0.53397057  0.32918965  1
  N  N57  1  0.79274711  0.39789093  0.07381423  1
  N  N58  1  0.55562252  0.54101437  0.83487593  1
  N  N59  1  0.44658769  0.42123110  0.63100421  1
  N  N60  1  0.22160954  0.87522812  0.32376176  1
  N  N61  1  0.10852802  0.76787411  0.07620691  1
  N  N62  1  0.86177081  0.87791695  0.84948049  1
  N  N63  1  0.79869599  0.77542677  0.57487602  1
  N  N64  1  0.55235516  0.87440160  0.39004584  1
  N  N65  1  0.45471095  0.77719795  0.07992462  1
  N  N66  1  0.22422632  0.86995448  0.83162474  1
  N  N67  1  0.07643985  0.78605881  0.58316193  1
  N  N68  1  0.88866813  0.87168519  0.31585336  1
  N  N69  1  0.74353924  0.77057285  0.10848425  1
  N  N70  1  0.58778512  0.85255319  0.83267967  1
  N  N71  1  0.43227282  0.75679612  0.57904440  1
