# generated using pymatgen
data_Al31B5N36
_symmetry_space_group_name_H-M   'P 1'
_cell_length_a   9.18776231
_cell_length_b   9.21911552
_cell_length_c   10.12141467
_cell_angle_alpha   90.06139576
_cell_angle_beta   89.47498149
_cell_angle_gamma   59.72577876
_symmetry_Int_Tables_number   1
_chemical_formula_structural   Al31B5N36
_chemical_formula_sum   'Al31 B5 N36'
_cell_volume   740.34899591
_cell_formula_units_Z   1
loop_
 _symmetry_equiv_pos_site_id
 _symmetry_equiv_pos_as_xyz
  1  'x, y, z'
loop_
 _atom_site_type_symbol
 _atom_site_label
 _atom_site_symmetry_multiplicity
 _atom_site_fract_x
 _atom_site_fract_y
 _atom_site_fract_z
 _atom_site_occupancy
  Al  Al0  1  0.11356258  0.08594887  0.39357532  1
  Al  Al1  1  0.22640221  0.20372917  0.06611669  1
  Al  Al2  1  0.88464398  0.20316047  0.59107376  1
  Al  Al3  1  0.44921487  0.08922958  0.31112127  1
  Al  Al4  1  0.57383838  0.19924255  0.05812698  1
  Al  Al5  1  0.08906988  0.09781399  0.88368525  1
  Al  Al6  1  0.22891701  0.20847932  0.56988994  1
  Al  Al7  1  0.78076616  0.09642966  0.31663298  1
  Al  Al8  1  0.46178162  0.08247426  0.82174636  1
  Al  Al9  1  0.55870271  0.19901692  0.56685758  1
  Al  Al10  1  0.11166404  0.42792831  0.31717925  1
  Al  Al11  1  0.22778963  0.53244725  0.06233301  1
  Al  Al12  1  0.77116139  0.43564379  0.81128022  1
  Al  Al13  1  0.88806586  0.55105276  0.56512429  1
  Al  Al14  1  0.44405322  0.42701146  0.31772756  1
  Al  Al15  1  0.56170804  0.53401755  0.06749599  1
  Al  Al16  1  0.10759195  0.42830655  0.81621525  1
  Al  Al17  1  0.21072931  0.55070943  0.56868975  1
  Al  Al18  1  0.78202134  0.42036495  0.32337998  1
  Al  Al19  1  0.88602255  0.53464339  0.07174570  1
  Al  Al20  1  0.44832954  0.42694258  0.81187989  1
  Al  Al21  1  0.55260188  0.54639542  0.56345306  1
  Al  Al22  1  0.10779720  0.75833864  0.30823499  1
  Al  Al23  1  0.21722208  0.88387112  0.12337657  1
  Al  Al24  1  0.45218322  0.76304484  0.30976019  1
  Al  Al25  1  0.09196883  0.75762720  0.83565681  1
  Al  Al26  1  0.21274968  0.87850027  0.65086217  1
  Al  Al27  1  0.77135036  0.76293167  0.31718533  1
  Al  Al28  1  0.88370565  0.87227121  0.08517874  1
  Al  Al29  1  0.45518904  0.75910815  0.83085394  1
  Al  Al30  1  0.56121261  0.87436973  0.56920167  1
  B  B31  1  0.75618741  0.13148925  0.79663725  1
  B  B32  1  0.88714531  0.20689426  0.10381586  1
  B  B33  1  0.77924591  0.75713832  0.87829071  1
  B  B34  1  0.88002445  0.86980699  0.62427250  1
  B  B35  1  0.56486996  0.86263162  0.06824601  1
  N  N36  1  0.22726033  0.20734408  0.37585021  1
  N  N37  1  0.07552253  0.11391244  0.07790477  1
  N  N38  1  0.86731737  0.20041364  0.82838586  1
  N  N39  1  0.78126168  0.06979806  0.64749422  1
  N  N40  1  0.55599548  0.20376577  0.37765588  1
  N  N41  1  0.46394395  0.06854823  0.11585529  1
  N  N42  1  0.22549988  0.20187129  0.87695343  1
  N  N43  1  0.11825616  0.08792271  0.58397112  1
  N  N44  1  0.87902870  0.20708249  0.39326057  1
  N  N45  1  0.79503287  0.11222271  0.12256057  1
  N  N46  1  0.58385545  0.19569039  0.86546662  1
  N  N47  1  0.44650680  0.09383310  0.63508777  1
  N  N48  1  0.21983458  0.54289616  0.38023243  1
  N  N49  1  0.11257521  0.42638590  0.12817294  1
  N  N50  1  0.87455980  0.55751493  0.88029026  1
  N  N51  1  0.77431725  0.43945001  0.62490413  1
  N  N52  1  0.55283399  0.54312964  0.37345600  1
  N  N53  1  0.44868464  0.42149689  0.12717286  1
  N  N54  1  0.22821187  0.52798865  0.87593396  1
  N  N55  1  0.10886366  0.43002499  0.62953777  1
  N  N56  1  0.88775021  0.53843525  0.37518883  1
  N  N57  1  0.79344028  0.39742877  0.12749831  1
  N  N58  1  0.55479536  0.53670150  0.88206789  1
  N  N59  1  0.44341189  0.43089566  0.62401110  1
  N  N60  1  0.21985011  0.87875799  0.31663905  1
  N  N61  1  0.11749281  0.75263493  0.11478370  1
  N  N62  1  0.87357943  0.84391062  0.89720554  1
  N  N63  1  0.79029499  0.77960683  0.60965618  1
  N  N64  1  0.55071465  0.87466497  0.38287259  1
  N  N65  1  0.46219813  0.77131052  0.11448637  1
  N  N66  1  0.21607476  0.87178886  0.84395135  1
  N  N67  1  0.07393821  0.77702690  0.63828423  1
  N  N68  1  0.88459990  0.87346418  0.33323995  1
  N  N69  1  0.74910007  0.76434808  0.12670307  1
  N  N70  1  0.58281042  0.85666962  0.89904058  1
  N  N71  1  0.45068978  0.76211249  0.63769615  1
