# generated using pymatgen
data_Al31B5N36
_symmetry_space_group_name_H-M   'P 1'
_cell_length_a   9.16042396
_cell_length_b   9.22824811
_cell_length_c   10.26601022
_cell_angle_alpha   90.37536130
_cell_angle_beta   89.67863477
_cell_angle_gamma   59.81867624
_symmetry_Int_Tables_number   1
_chemical_formula_structural   Al31B5N36
_chemical_formula_sum   'Al31 B5 N36'
_cell_volume   750.13320246
_cell_formula_units_Z   1
loop_
 _symmetry_equiv_pos_site_id
 _symmetry_equiv_pos_as_xyz
  1  'x, y, z'
loop_
 _atom_site_type_symbol
 _atom_site_label
 _atom_site_symmetry_multiplicity
 _atom_site_fract_x
 _atom_site_fract_y
 _atom_site_fract_z
 _atom_site_occupancy
  Al  Al0  1  0.11622137  0.09430574  0.39767643  1
  Al  Al1  1  0.21768735  0.20240089  0.12878361  1
  Al  Al2  1  0.88552106  0.20202019  0.59212222  1
  Al  Al3  1  0.45423643  0.08547408  0.31601464  1
  Al  Al4  1  0.57627444  0.19551303  0.05914822  1
  Al  Al5  1  0.09292158  0.09958940  0.89022949  1
  Al  Al6  1  0.21908817  0.20280715  0.65025759  1
  Al  Al7  1  0.78172133  0.09578928  0.31938041  1
  Al  Al8  1  0.47107577  0.07830902  0.82119739  1
  Al  Al9  1  0.55729939  0.19810847  0.56925234  1
  Al  Al10  1  0.10677209  0.43557978  0.31744168  1
  Al  Al11  1  0.22756246  0.53501866  0.06389728  1
  Al  Al12  1  0.76923268  0.43830807  0.81481886  1
  Al  Al13  1  0.88887252  0.54980722  0.56775893  1
  Al  Al14  1  0.44355567  0.42392816  0.31930336  1
  Al  Al15  1  0.56406162  0.52764837  0.07465103  1
  Al  Al16  1  0.10080580  0.44050004  0.82473882  1
  Al  Al17  1  0.21073544  0.54890204  0.57313196  1
  Al  Al18  1  0.78202168  0.41876227  0.32541654  1
  Al  Al19  1  0.88215194  0.53714246  0.07114380  1
  Al  Al20  1  0.44846512  0.42757098  0.81616235  1
  Al  Al21  1  0.55740857  0.53198627  0.56677319  1
  Al  Al22  1  0.10856181  0.75747202  0.31222393  1
  Al  Al23  1  0.22359841  0.88280777  0.13899249  1
  Al  Al24  1  0.43269777  0.76645505  0.39292983  1
  Al  Al25  1  0.09306670  0.76169496  0.83677218  1
  Al  Al26  1  0.21808739  0.87579035  0.65180713  1
  Al  Al27  1  0.76964078  0.76078409  0.32130532  1
  Al  Al28  1  0.88716550  0.87013892  0.09102150  1
  Al  Al29  1  0.44859173  0.76909960  0.89407339  1
  Al  Al30  1  0.56466392  0.87498190  0.57428598  1
  B  B31  1  0.75801145  0.13403845  0.79994875  1
  B  B32  1  0.88835295  0.20521268  0.10625379  1
  B  B33  1  0.77673635  0.76027823  0.87551053  1
  B  B34  1  0.88263499  0.86916091  0.62765467  1
  B  B35  1  0.56015745  0.86715763  0.09846650  1
  N  N36  1  0.21955212  0.20250156  0.31988268  1
  N  N37  1  0.07904419  0.11082451  0.07970849  1
  N  N38  1  0.86963057  0.20120177  0.83343297  1
  N  N39  1  0.78195937  0.07094213  0.65176553  1
  N  N40  1  0.55588477  0.20281579  0.38197863  1
  N  N41  1  0.47032800  0.06218544  0.11869550  1
  N  N42  1  0.22067329  0.20229820  0.84424885  1
  N  N43  1  0.12061997  0.08931743  0.58303164  1
  N  N44  1  0.88005266  0.20644136  0.39722853  1
  N  N45  1  0.79636947  0.11159541  0.12649123  1
  N  N46  1  0.58569275  0.19646280  0.86937935  1
  N  N47  1  0.44968027  0.09224388  0.63629904  1
  N  N48  1  0.21970853  0.54225559  0.38553808  1
  N  N49  1  0.10559629  0.43789652  0.12714220  1
  N  N50  1  0.87191177  0.55914012  0.88483373  1
  N  N51  1  0.77500037  0.43838641  0.63039280  1
  N  N52  1  0.55580572  0.53329443  0.37627275  1
  N  N53  1  0.44851545  0.41699372  0.13088630  1
  N  N54  1  0.22865802  0.53274418  0.88050294  1
  N  N55  1  0.10573127  0.43444247  0.63621281  1
  N  N56  1  0.88648931  0.53744082  0.37992532  1
  N  N57  1  0.79575456  0.39560249  0.13163742  1
  N  N58  1  0.55454299  0.53589555  0.88855263  1
  N  N59  1  0.44317426  0.42677620  0.63042287  1
  N  N60  1  0.21990555  0.88024178  0.32498180  1
  N  N61  1  0.12330344  0.75296564  0.12188854  1
  N  N62  1  0.87811966  0.84068225  0.90473166  1
  N  N63  1  0.79512319  0.77876013  0.60627689  1
  N  N64  1  0.55238744  0.87687067  0.38659955  1
  N  N65  1  0.45580121  0.77929274  0.08702591  1
  N  N66  1  0.22192835  0.87375638  0.83943744  1
  N  N67  1  0.07591899  0.77727958  0.64215002  1
  N  N68  1  0.88370798  0.87213757  0.32808647  1
  N  N69  1  0.74418512  0.76402373  0.13176127  1
  N  N70  1  0.59156803  0.85355935  0.86547678  1
  N  N71  1  0.43610512  0.76267712  0.58431202  1
