# generated using pymatgen
data_Al31B5N36
_symmetry_space_group_name_H-M   'P 1'
_cell_length_a   9.15106600
_cell_length_b   9.13181960
_cell_length_c   10.22589174
_cell_angle_alpha   90.20853764
_cell_angle_beta   89.44847450
_cell_angle_gamma   60.01520649
_symmetry_Int_Tables_number   1
_chemical_formula_structural   Al31B5N36
_chemical_formula_sum   'Al31 B5 N36'
_cell_volume   740.09346263
_cell_formula_units_Z   1
loop_
 _symmetry_equiv_pos_site_id
 _symmetry_equiv_pos_as_xyz
  1  'x, y, z'
loop_
 _atom_site_type_symbol
 _atom_site_label
 _atom_site_symmetry_multiplicity
 _atom_site_fract_x
 _atom_site_fract_y
 _atom_site_fract_z
 _atom_site_occupancy
  Al  Al0  1  0.11529566  0.09310127  0.39843194  1
  Al  Al1  1  0.21156042  0.20571785  0.13395550  1
  Al  Al2  1  0.88765005  0.20018457  0.61553638  1
  Al  Al3  1  0.45434391  0.08267567  0.31540831  1
  Al  Al4  1  0.57623478  0.18509286  0.05821847  1
  Al  Al5  1  0.09759703  0.09546427  0.88502937  1
  Al  Al6  1  0.21297321  0.21370406  0.64681929  1
  Al  Al7  1  0.77970432  0.10579849  0.31634970  1
  Al  Al8  1  0.46150587  0.08676498  0.81524468  1
  Al  Al9  1  0.56471281  0.19167699  0.56634012  1
  Al  Al10  1  0.11157960  0.42474373  0.39051742  1
  Al  Al11  1  0.22310086  0.53712799  0.14230207  1
  Al  Al12  1  0.77928243  0.42158335  0.88095017  1
  Al  Al13  1  0.88740500  0.55437663  0.64391230  1
  Al  Al14  1  0.44215908  0.43256077  0.39004292  1
  Al  Al15  1  0.56176118  0.53185673  0.13753632  1
  Al  Al16  1  0.10404499  0.43845282  0.89353791  1
  Al  Al17  1  0.21725358  0.54329875  0.63960579  1
  Al  Al18  1  0.77544930  0.43145516  0.40166474  1
  Al  Al19  1  0.88035760  0.53724129  0.14292190  1
  Al  Al20  1  0.44564399  0.42798362  0.88606209  1
  Al  Al21  1  0.55226437  0.54182346  0.64759832  1
  Al  Al22  1  0.10264291  0.76818931  0.38950647  1
  Al  Al23  1  0.21738417  0.87729152  0.13914913  1
  Al  Al24  1  0.43928211  0.75762421  0.39300216  1
  Al  Al25  1  0.09890734  0.76578151  0.88996853  1
  Al  Al26  1  0.21480002  0.87482134  0.64758999  1
  Al  Al27  1  0.78277652  0.76215414  0.38187937  1
  Al  Al28  1  0.88517763  0.86799089  0.13062507  1
  Al  Al29  1  0.45507676  0.76465840  0.88887037  1
  Al  Al30  1  0.55546347  0.87601778  0.58576747  1
  B  B31  1  0.77495604  0.07867124  0.80461618  1
  B  B32  1  0.88716068  0.20497858  0.09476695  1
  B  B33  1  0.77266336  0.77599788  0.84747052  1
  B  B34  1  0.88756035  0.86979584  0.61089163  1
  B  B35  1  0.56107104  0.86543006  0.10241594  1
  N  N36  1  0.21811754  0.20551013  0.32096311  1
  N  N37  1  0.07905997  0.10759563  0.07815518  1
  N  N38  1  0.87734399  0.19017319  0.81945788  1
  N  N39  1  0.78443160  0.06143651  0.64145153  1
  N  N40  1  0.55950654  0.19716342  0.37746375  1
  N  N41  1  0.46400853  0.06115799  0.11997505  1
  N  N42  1  0.21360203  0.21047355  0.83716774  1
  N  N43  1  0.12102824  0.09078354  0.58428613  1
  N  N44  1  0.88485979  0.20178391  0.39556425  1
  N  N45  1  0.79331595  0.11323362  0.12508377  1
  N  N46  1  0.58774093  0.18604855  0.86984513  1
  N  N47  1  0.44284690  0.10115176  0.63160943  1
  N  N48  1  0.22103710  0.54063906  0.33000186  1
  N  N49  1  0.10625836  0.43168185  0.07919429  1
  N  N50  1  0.87637981  0.57121409  0.83387759  1
  N  N51  1  0.77380511  0.44281011  0.58972961  1
  N  N52  1  0.55897118  0.53622193  0.32373926  1
  N  N53  1  0.44373477  0.42480306  0.07540431  1
  N  N54  1  0.22241462  0.53966224  0.82535389  1
  N  N55  1  0.10902005  0.43009459  0.57784157  1
  N  N56  1  0.88937836  0.53448238  0.32969874  1
  N  N57  1  0.79281651  0.39706393  0.07491575  1
  N  N58  1  0.55525373  0.54037786  0.83255133  1
  N  N59  1  0.44356171  0.43192803  0.57917661  1
  N  N60  1  0.22071968  0.87310314  0.32591835  1
  N  N61  1  0.11287698  0.75809632  0.07616226  1
  N  N62  1  0.86441212  0.87646321  0.84867842  1
  N  N63  1  0.79866690  0.77515414  0.57601317  1
  N  N64  1  0.55184538  0.87554461  0.39057363  1
  N  N65  1  0.45647234  0.77467597  0.08138502  1
  N  N66  1  0.22465095  0.86956914  0.83386861  1
  N  N67  1  0.08026333  0.77966771  0.58331604  1
  N  N68  1  0.89081674  0.87097778  0.31826472  1
  N  N69  1  0.74365826  0.77138702  0.10905388  1
  N  N70  1  0.58853868  0.85373225  0.83067359  1
  N  N71  1  0.43394712  0.75728805  0.58158565  1
