# generated using pymatgen
data_Al31B5N36
_symmetry_space_group_name_H-M   'P 1'
_cell_length_a   9.17322509
_cell_length_b   9.14943792
_cell_length_c   10.20070626
_cell_angle_alpha   90.08525204
_cell_angle_beta   89.46711512
_cell_angle_gamma   60.00858534
_symmetry_Int_Tables_number   1
_chemical_formula_structural   Al31B5N36
_chemical_formula_sum   'Al31 B5 N36'
_cell_volume   741.45571368
_cell_formula_units_Z   1
loop_
 _symmetry_equiv_pos_site_id
 _symmetry_equiv_pos_as_xyz
  1  'x, y, z'
loop_
 _atom_site_type_symbol
 _atom_site_label
 _atom_site_symmetry_multiplicity
 _atom_site_fract_x
 _atom_site_fract_y
 _atom_site_fract_z
 _atom_site_occupancy
  Al  Al0  1  0.11551401  0.09330412  0.39713073  1
  Al  Al1  1  0.21216104  0.20581848  0.13246119  1
  Al  Al2  1  0.88749354  0.19969798  0.61463086  1
  Al  Al3  1  0.45491031  0.08185432  0.31428994  1
  Al  Al4  1  0.57211968  0.19416160  0.05647669  1
  Al  Al5  1  0.09731319  0.09525751  0.88371788  1
  Al  Al6  1  0.21383826  0.21288059  0.64529033  1
  Al  Al7  1  0.78140900  0.10458480  0.31531961  1
  Al  Al8  1  0.46137514  0.08388900  0.81441236  1
  Al  Al9  1  0.56144671  0.19713752  0.56582644  1
  Al  Al10  1  0.11155080  0.42462064  0.38987961  1
  Al  Al11  1  0.21645717  0.54112714  0.13888543  1
  Al  Al12  1  0.77966900  0.42096982  0.88113091  1
  Al  Al13  1  0.88860484  0.55409694  0.64298940  1
  Al  Al14  1  0.44742848  0.42185901  0.32939774  1
  Al  Al15  1  0.56381217  0.53643295  0.13340913  1
  Al  Al16  1  0.10324068  0.43798094  0.89259330  1
  Al  Al17  1  0.21350252  0.54565966  0.63749551  1
  Al  Al18  1  0.77637436  0.43121699  0.40061333  1
  Al  Al19  1  0.88016282  0.53763558  0.14194218  1
  Al  Al20  1  0.45128519  0.41591490  0.82617898  1
  Al  Al21  1  0.55700000  0.54539743  0.64653836  1
  Al  Al22  1  0.10214435  0.76912525  0.38863290  1
  Al  Al23  1  0.21665223  0.87822258  0.13818130  1
  Al  Al24  1  0.43927291  0.75746898  0.39229234  1
  Al  Al25  1  0.09865253  0.76597413  0.88923079  1
  Al  Al26  1  0.21492491  0.87489940  0.64646070  1
  Al  Al27  1  0.78315774  0.76162630  0.37979105  1
  Al  Al28  1  0.88267080  0.87049893  0.12772735  1
  Al  Al29  1  0.45426548  0.76454837  0.88870831  1
  Al  Al30  1  0.55645893  0.87622432  0.58403006  1
  B  B31  1  0.77595069  0.07603559  0.80300317  1
  B  B32  1  0.88709744  0.20511824  0.09387263  1
  B  B33  1  0.77260248  0.77504234  0.84675769  1
  B  B34  1  0.88705279  0.87019841  0.60910277  1
  B  B35  1  0.56053667  0.86745719  0.10107763  1
  N  N36  1  0.21910805  0.20555414  0.32017113  1
  N  N37  1  0.07888062  0.10821542  0.07728944  1
  N  N38  1  0.87671793  0.18975873  0.81835961  1
  N  N39  1  0.78409576  0.06082886  0.63990242  1
  N  N40  1  0.55937890  0.19876380  0.37814569  1
  N  N41  1  0.46445218  0.06238036  0.11837288  1
  N  N42  1  0.21389012  0.20986287  0.83620624  1
  N  N43  1  0.12069311  0.09095251  0.58344509  1
  N  N44  1  0.88531547  0.20177316  0.39399687  1
  N  N45  1  0.79287829  0.11398568  0.12298163  1
  N  N46  1  0.58641221  0.18523948  0.86898467  1
  N  N47  1  0.44325051  0.10013309  0.62967543  1
  N  N48  1  0.21556578  0.54407498  0.33059726  1
  N  N49  1  0.10482268  0.43177293  0.07785296  1
  N  N50  1  0.87605003  0.57073073  0.83297002  1
  N  N51  1  0.77623654  0.44233181  0.58827715  1
  N  N52  1  0.56249048  0.53940359  0.32310494  1
  N  N53  1  0.44686521  0.41881802  0.11350679  1
  N  N54  1  0.21611845  0.54264761  0.82624287  1
  N  N55  1  0.10944889  0.42945316  0.57677715  1
  N  N56  1  0.89008117  0.53417185  0.32869680  1
  N  N57  1  0.79377479  0.39709977  0.07390722  1
  N  N58  1  0.55690767  0.54158368  0.83541616  1
  N  N59  1  0.44973922  0.42199213  0.62128967  1
  N  N60  1  0.22075325  0.87329692  0.32519126  1
  N  N61  1  0.11107247  0.76061406  0.07505949  1
  N  N62  1  0.86361874  0.87638966  0.84854299  1
  N  N63  1  0.79952495  0.77459335  0.57472478  1
  N  N64  1  0.55255330  0.87509151  0.38913829  1
  N  N65  1  0.45523455  0.77743719  0.08046849  1
  N  N66  1  0.22438597  0.86956118  0.83288086  1
  N  N67  1  0.07987549  0.78064416  0.58210821  1
  N  N68  1  0.89030240  0.87143998  0.31674226  1
  N  N69  1  0.74290038  0.77169984  0.10802309  1
  N  N70  1  0.58886020  0.85221529  0.82950082  1
  N  N71  1  0.43371477  0.75803355  0.58029846  1
