# generated using pymatgen
data_Al31B5N36
_symmetry_space_group_name_H-M   'P 1'
_cell_length_a   9.20151765
_cell_length_b   9.24010527
_cell_length_c   10.08485051
_cell_angle_alpha   90.10015758
_cell_angle_beta   89.50274196
_cell_angle_gamma   59.73739401
_symmetry_Int_Tables_number   1
_chemical_formula_structural   Al31B5N36
_chemical_formula_sum   'Al31 B5 N36'
_cell_volume   740.54916104
_cell_formula_units_Z   1
loop_
 _symmetry_equiv_pos_site_id
 _symmetry_equiv_pos_as_xyz
  1  'x, y, z'
loop_
 _atom_site_type_symbol
 _atom_site_label
 _atom_site_symmetry_multiplicity
 _atom_site_fract_x
 _atom_site_fract_y
 _atom_site_fract_z
 _atom_site_occupancy
  Al  Al0  1  0.11698421  0.08894274  0.39635082  1
  Al  Al1  1  0.22481770  0.20431652  0.08027482  1
  Al  Al2  1  0.88403828  0.20273489  0.59408963  1
  Al  Al3  1  0.45033955  0.08783818  0.31241992  1
  Al  Al4  1  0.57549786  0.19992063  0.06246331  1
  Al  Al5  1  0.08912953  0.09787539  0.88935763  1
  Al  Al6  1  0.22550697  0.20441253  0.61086243  1
  Al  Al7  1  0.78146584  0.09611499  0.32156095  1
  Al  Al8  1  0.46588390  0.08081038  0.83234757  1
  Al  Al9  1  0.55771960  0.19813149  0.57106101  1
  Al  Al10  1  0.11080332  0.42806505  0.31781439  1
  Al  Al11  1  0.22798565  0.53512828  0.06630986  1
  Al  Al12  1  0.77074188  0.43579613  0.81541105  1
  Al  Al13  1  0.88814500  0.55018431  0.56918049  1
  Al  Al14  1  0.44372393  0.42588432  0.32240252  1
  Al  Al15  1  0.56088211  0.53515917  0.07268576  1
  Al  Al16  1  0.10438082  0.43424106  0.82699062  1
  Al  Al17  1  0.21086001  0.54848852  0.57314473  1
  Al  Al18  1  0.78293288  0.41908022  0.32796387  1
  Al  Al19  1  0.88348196  0.53657292  0.07576510  1
  Al  Al20  1  0.44860916  0.42742132  0.81621350  1
  Al  Al21  1  0.55268391  0.54523252  0.56725964  1
  Al  Al22  1  0.10799879  0.75764817  0.31406044  1
  Al  Al23  1  0.21665476  0.88500903  0.13063676  1
  Al  Al24  1  0.45164705  0.76287338  0.31552294  1
  Al  Al25  1  0.09109080  0.75988260  0.84046728  1
  Al  Al26  1  0.21280309  0.87606891  0.65305645  1
  Al  Al27  1  0.77083920  0.76225411  0.32191944  1
  Al  Al28  1  0.88365607  0.87195295  0.09247734  1
  Al  Al29  1  0.45434035  0.75930408  0.83485654  1
  Al  Al30  1  0.56150182  0.87329435  0.57359728  1
  B  B31  1  0.75667495  0.13258095  0.80000652  1
  B  B32  1  0.88692753  0.20726174  0.10829969  1
  B  B33  1  0.77893837  0.75698398  0.88290463  1
  B  B34  1  0.88006291  0.86896762  0.62785838  1
  B  B35  1  0.56528788  0.86293383  0.07186724  1
  N  N36  1  0.22456246  0.20385725  0.35234826  1
  N  N37  1  0.07522143  0.11386577  0.08222577  1
  N  N38  1  0.86811429  0.20067794  0.83144304  1
  N  N39  1  0.78148793  0.06910736  0.65103206  1
  N  N40  1  0.55613008  0.20244933  0.38183460  1
  N  N41  1  0.46817770  0.06751545  0.11552689  1
  N  N42  1  0.22407109  0.20298246  0.87763157  1
  N  N43  1  0.11852024  0.08728014  0.58814698  1
  N  N44  1  0.88070682  0.20577497  0.39789511  1
  N  N45  1  0.79556127  0.11279411  0.12715831  1
  N  N46  1  0.58537984  0.19690100  0.86993716  1
  N  N47  1  0.45052152  0.09035128  0.64391529  1
  N  N48  1  0.21919860  0.54128241  0.38444361  1
  N  N49  1  0.10927123  0.43260600  0.12712488  1
  N  N50  1  0.87195614  0.55910174  0.88438693  1
  N  N51  1  0.77433206  0.43883563  0.62849621  1
  N  N52  1  0.55326415  0.54187253  0.37710441  1
  N  N53  1  0.44854164  0.42165941  0.13138646  1
  N  N54  1  0.22887796  0.53091620  0.87984352  1
  N  N55  1  0.10703808  0.43152036  0.63801891  1
  N  N56  1  0.88806849  0.53785692  0.37919803  1
  N  N57  1  0.79340023  0.39749910  0.13144607  1
  N  N58  1  0.55462963  0.53730387  0.88631557  1
  N  N59  1  0.44340538  0.42969677  0.62784880  1
  N  N60  1  0.21969059  0.87719073  0.32496894  1
  N  N61  1  0.11805694  0.75415267  0.11947863  1
  N  N62  1  0.87369087  0.84285149  0.90264012  1
  N  N63  1  0.79076214  0.77878721  0.61272588  1
  N  N64  1  0.55049918  0.87487950  0.38725574  1
  N  N65  1  0.46090904  0.77292183  0.11934961  1
  N  N66  1  0.21547080  0.87305894  0.84656985  1
  N  N67  1  0.07367364  0.77615077  0.64128006  1
  N  N68  1  0.88405095  0.87299550  0.33411970  1
  N  N69  1  0.74800890  0.76415001  0.13125982  1
  N  N70  1  0.58334087  0.85511106  0.90306890  1
  N  N71  1  0.45045998  0.76116490  0.64084919  1
