# generated using pymatgen
data_Al31B5N36
_symmetry_space_group_name_H-M   'P 1'
_cell_length_a   9.16717845
_cell_length_b   9.16299912
_cell_length_c   9.84434773
_cell_angle_alpha   90.03972863
_cell_angle_beta   90.14088828
_cell_angle_gamma   60.08249637
_symmetry_Int_Tables_number   1
_chemical_formula_structural   Al31B5N36
_chemical_formula_sum   'Al31 B5 N36'
_cell_volume   716.72068216
_cell_formula_units_Z   1
loop_
 _symmetry_equiv_pos_site_id
 _symmetry_equiv_pos_as_xyz
  1  'x, y, z'
loop_
 _atom_site_type_symbol
 _atom_site_label
 _atom_site_symmetry_multiplicity
 _atom_site_fract_x
 _atom_site_fract_y
 _atom_site_fract_z
 _atom_site_occupancy
  Al  Al0  1  0.10568187  0.09590020  0.39702650  1
  Al  Al1  1  0.21880123  0.20221250  0.15269373  1
  Al  Al2  1  0.88798619  0.19412971  0.65655882  1
  Al  Al3  1  0.44643821  0.09039792  0.39699630  1
  Al  Al4  1  0.56229578  0.20047622  0.14888122  1
  Al  Al5  1  0.10075092  0.09354924  0.90784537  1
  Al  Al6  1  0.22197576  0.20325096  0.65394235  1
  Al  Al7  1  0.78093683  0.08927402  0.39352359  1
  Al  Al8  1  0.45537022  0.08483278  0.90889276  1
  Al  Al9  1  0.56650340  0.19312256  0.65909911  1
  Al  Al10  1  0.10830075  0.42759749  0.40366413  1
  Al  Al11  1  0.22141411  0.53979321  0.15510586  1
  Al  Al12  1  0.77854983  0.42110857  0.90638690  1
  Al  Al13  1  0.88690309  0.54817564  0.65920675  1
  Al  Al14  1  0.44564661  0.42501320  0.40478746  1
  Al  Al15  1  0.56038781  0.53627725  0.15360404  1
  Al  Al16  1  0.10581364  0.43364160  0.90433816  1
  Al  Al17  1  0.21704549  0.54098123  0.65324242  1
  Al  Al18  1  0.78018206  0.42298213  0.39788920  1
  Al  Al19  1  0.88210732  0.54084652  0.14656625  1
  Al  Al20  1  0.44747218  0.42480769  0.90384989  1
  Al  Al21  1  0.55761663  0.53815300  0.65458627  1
  Al  Al22  1  0.10386558  0.76404211  0.40053904  1
  Al  Al23  1  0.21913273  0.87613707  0.15342618  1
  Al  Al24  1  0.44701615  0.76194417  0.39711936  1
  Al  Al25  1  0.09740969  0.76696091  0.89989517  1
  Al  Al26  1  0.21838393  0.87404342  0.65285058  1
  Al  Al27  1  0.77741364  0.76426672  0.39313047  1
  Al  Al28  1  0.88240041  0.87818021  0.13333132  1
  Al  Al29  1  0.45164417  0.76243996  0.90765052  1
  Al  Al30  1  0.56655451  0.87109913  0.65671611  1
  B  B31  1  0.77596999  0.09186914  0.91139062  1
  B  B32  1  0.88618899  0.20543787  0.14883607  1
  B  B33  1  0.76209655  0.78106098  0.91267121  1
  B  B34  1  0.88607418  0.87284075  0.62380796  1
  B  B35  1  0.55445843  0.87181360  0.15080128  1
  N  N36  1  0.22126045  0.20501509  0.34385999  1
  N  N37  1  0.08378070  0.10663713  0.10047428  1
  N  N38  1  0.87467192  0.18816001  0.84713014  1
  N  N39  1  0.79227370  0.06404639  0.59061620  1
  N  N40  1  0.55694255  0.20403433  0.34134121  1
  N  N41  1  0.45446456  0.06955653  0.10131136  1
  N  N42  1  0.22204763  0.20274057  0.84840410  1
  N  N43  1  0.10692162  0.09546460  0.59064259  1
  N  N44  1  0.88601004  0.20352594  0.31998583  1
  N  N45  1  0.78655013  0.10907833  0.08151825  1
  N  N46  1  0.57933323  0.19206495  0.85508027  1
  N  N47  1  0.44622577  0.09159934  0.59292125  1
  N  N48  1  0.22145387  0.53913834  0.34824090  1
  N  N49  1  0.11039063  0.42790016  0.09494303  1
  N  N50  1  0.87415570  0.56414056  0.85413141  1
  N  N51  1  0.78217443  0.42257522  0.59447074  1
  N  N52  1  0.55561965  0.53737607  0.34452938  1
  N  N53  1  0.44339436  0.42751590  0.09482672  1
  N  N54  1  0.22193613  0.53948850  0.84283295  1
  N  N55  1  0.10806528  0.42720033  0.59597754  1
  N  N56  1  0.88658761  0.54023154  0.34017490  1
  N  N57  1  0.78994756  0.40157911  0.09894134  1
  N  N58  1  0.55612872  0.53986551  0.84673665  1
  N  N59  1  0.44691491  0.42277656  0.59809763  1
  N  N60  1  0.22145034  0.87063241  0.34549757  1
  N  N61  1  0.11349989  0.75948219  0.09169470  1
  N  N62  1  0.85924216  0.88693136  0.87105373  1
  N  N63  1  0.79175510  0.77526371  0.59076342  1
  N  N64  1  0.55787415  0.87045962  0.32037796  1
  N  N65  1  0.45498970  0.77364570  0.10145493  1
  N  N66  1  0.22407358  0.87092873  0.84526782  1
  N  N67  1  0.08125101  0.77557559  0.59944701  1
  N  N68  1  0.88795694  0.87159461  0.32774737  1
  N  N69  1  0.74884702  0.77389752  0.08228501  1
  N  N70  1  0.57959817  0.86088885  0.84766900  1
  N  N71  1  0.44780812  0.76264945  0.59230909  1
