# generated using pymatgen
data_Al31B5N36
_symmetry_space_group_name_H-M   'P 1'
_cell_length_a   9.20844721
_cell_length_b   9.21110787
_cell_length_c   9.80168727
_cell_angle_alpha   89.44515075
_cell_angle_beta   89.28045441
_cell_angle_gamma   59.73943150
_symmetry_Int_Tables_number   1
_chemical_formula_structural   Al31B5N36
_chemical_formula_sum   'Al31 B5 N36'
_cell_volume   718.03548921
_cell_formula_units_Z   1
loop_
 _symmetry_equiv_pos_site_id
 _symmetry_equiv_pos_as_xyz
  1  'x, y, z'
loop_
 _atom_site_type_symbol
 _atom_site_label
 _atom_site_symmetry_multiplicity
 _atom_site_fract_x
 _atom_site_fract_y
 _atom_site_fract_z
 _atom_site_occupancy
  Al  Al0  1  0.10413557  0.09757588  0.30611755  1
  Al  Al1  1  0.22203176  0.20313346  0.05755899  1
  Al  Al2  1  0.88555759  0.19842216  0.56992212  1
  Al  Al3  1  0.44868939  0.08772491  0.30090942  1
  Al  Al4  1  0.57334164  0.19691381  0.05052882  1
  Al  Al5  1  0.10634219  0.09902088  0.81628546  1
  Al  Al6  1  0.22084889  0.20302189  0.55790525  1
  Al  Al7  1  0.78206333  0.09295386  0.30915816  1
  Al  Al8  1  0.45303032  0.08474043  0.81267857  1
  Al  Al9  1  0.55648479  0.19795991  0.55831995  1
  Al  Al10  1  0.10908013  0.42880145  0.30686041  1
  Al  Al11  1  0.22174570  0.54112234  0.05504012  1
  Al  Al12  1  0.78045307  0.43011148  0.81626335  1
  Al  Al13  1  0.88634932  0.54387725  0.56450326  1
  Al  Al14  1  0.44514099  0.42564256  0.30554523  1
  Al  Al15  1  0.56315299  0.53643210  0.05840840  1
  Al  Al16  1  0.10837137  0.43352104  0.80730490  1
  Al  Al17  1  0.21656282  0.54174623  0.55693978  1
  Al  Al18  1  0.78155588  0.42253180  0.30658686  1
  Al  Al19  1  0.88211199  0.54695211  0.05408249  1
  Al  Al20  1  0.45335275  0.42208646  0.80454168  1
  Al  Al21  1  0.55621002  0.53901951  0.55647344  1
  Al  Al22  1  0.10419353  0.76425425  0.31393205  1
  Al  Al23  1  0.21828311  0.87901933  0.05851029  1
  Al  Al24  1  0.44722125  0.76469984  0.30264600  1
  Al  Al25  1  0.09832686  0.76897724  0.80295152  1
  Al  Al26  1  0.21668250  0.87390967  0.55862844  1
  Al  Al27  1  0.77366609  0.76588637  0.31083588  1
  Al  Al28  1  0.87901965  0.88382501  0.05044285  1
  Al  Al29  1  0.44892610  0.76030871  0.81486028  1
  Al  Al30  1  0.55951344  0.87094606  0.56372400  1
  B  B31  1  0.75619801  0.05711659  0.78746668  1
  B  B32  1  0.89414648  0.21014165  0.05149099  1
  B  B33  1  0.77653426  0.76618666  0.80674561  1
  B  B34  1  0.88677695  0.86809972  0.56579974  1
  B  B35  1  0.56558562  0.86934963  0.05162842  1
  N  N36  1  0.22324402  0.20290194  0.36214874  1
  N  N37  1  0.08889945  0.10778615  0.11288846  1
  N  N38  1  0.89595812  0.21732159  0.89402406  1
  N  N39  1  0.78418140  0.06381626  0.63265410  1
  N  N40  1  0.55645213  0.20145677  0.36484859  1
  N  N41  1  0.46231135  0.06928329  0.10281794  1
  N  N42  1  0.22752643  0.20706657  0.86687826  1
  N  N43  1  0.10797182  0.09429763  0.62280975  1
  N  N44  1  0.88580729  0.20410599  0.37823444  1
  N  N45  1  0.79499916  0.10549665  0.11407583  1
  N  N46  1  0.58740393  0.18414489  0.85254079  1
  N  N47  1  0.44204260  0.09229344  0.62070294  1
  N  N48  1  0.22142847  0.53849922  0.36500224  1
  N  N49  1  0.10871820  0.43058715  0.11365397  1
  N  N50  1  0.87600254  0.57321054  0.85906635  1
  N  N51  1  0.77719593  0.42552623  0.62273154  1
  N  N52  1  0.55498423  0.53974954  0.36164552  1
  N  N53  1  0.44674172  0.42340153  0.11146361  1
  N  N54  1  0.22412928  0.54133498  0.86202150  1
  N  N55  1  0.11054280  0.42611595  0.61583391  1
  N  N56  1  0.88533282  0.54146664  0.36893181  1
  N  N57  1  0.79236083  0.40744818  0.11215158  1
  N  N58  1  0.55588609  0.53710767  0.86859305  1
  N  N59  1  0.44464885  0.42567693  0.61277042  1
  N  N60  1  0.22205560  0.87218169  0.36378248  1
  N  N61  1  0.10339807  0.76491911  0.11729210  1
  N  N62  1  0.86071551  0.88223358  0.85496904  1
  N  N63  1  0.78551090  0.77200756  0.63321777  1
  N  N64  1  0.55463746  0.87173955  0.37331368  1
  N  N65  1  0.45853300  0.77516370  0.10610567  1
  N  N66  1  0.21912370  0.87145745  0.86673784  1
  N  N67  1  0.08343203  0.77350354  0.60973318  1
  N  N68  1  0.88264754  0.87364112  0.39411428  1
  N  N69  1  0.75469816  0.77798015  0.11437639  1
  N  N70  1  0.58090366  0.85814984  0.87672949  1
  N  N71  1  0.44273269  0.76087343  0.62054354  1
