# generated using pymatgen
data_Al31B5N36
_symmetry_space_group_name_H-M   'P 1'
_cell_length_a   9.15130242
_cell_length_b   9.21881954
_cell_length_c   10.33320805
_cell_angle_alpha   90.60920114
_cell_angle_beta   89.82985522
_cell_angle_gamma   59.90049053
_symmetry_Int_Tables_number   1
_chemical_formula_structural   Al31B5N36
_chemical_formula_sum   'Al31 B5 N36'
_cell_volume   754.12463614
_cell_formula_units_Z   1
loop_
 _symmetry_equiv_pos_site_id
 _symmetry_equiv_pos_as_xyz
  1  'x, y, z'
loop_
 _atom_site_type_symbol
 _atom_site_label
 _atom_site_symmetry_multiplicity
 _atom_site_fract_x
 _atom_site_fract_y
 _atom_site_fract_z
 _atom_site_occupancy
  Al  Al0  1  0.11695710  0.09178890  0.39777999  1
  Al  Al1  1  0.21218732  0.20662951  0.13654950  1
  Al  Al2  1  0.88583586  0.20125404  0.58938761  1
  Al  Al3  1  0.45367703  0.08721362  0.31699335  1
  Al  Al4  1  0.57367593  0.19525821  0.05901540  1
  Al  Al5  1  0.09281268  0.09629410  0.88930116  1
  Al  Al6  1  0.21338849  0.21157925  0.64870960  1
  Al  Al7  1  0.78218326  0.09607269  0.32018928  1
  Al  Al8  1  0.47065951  0.07726517  0.81569328  1
  Al  Al9  1  0.55650377  0.19960254  0.56761158  1
  Al  Al10  1  0.11557406  0.42223379  0.38840048  1
  Al  Al11  1  0.23175812  0.53803797  0.06450836  1
  Al  Al12  1  0.77041312  0.43626937  0.81604296  1
  Al  Al13  1  0.88195387  0.55453776  0.57244658  1
  Al  Al14  1  0.44465682  0.42598969  0.31750663  1
  Al  Al15  1  0.56622771  0.52619216  0.07196074  1
  Al  Al16  1  0.10655461  0.42479400  0.89204331  1
  Al  Al17  1  0.21589753  0.55369436  0.57156359  1
  Al  Al18  1  0.78259424  0.41935292  0.32398906  1
  Al  Al19  1  0.87748019  0.54100584  0.08362139  1
  Al  Al20  1  0.44891870  0.42620780  0.81490340  1
  Al  Al21  1  0.55850544  0.53226056  0.56590237  1
  Al  Al22  1  0.10624326  0.75935065  0.31226371  1
  Al  Al23  1  0.22386619  0.88182107  0.13813868  1
  Al  Al24  1  0.43395915  0.76619440  0.39235076  1
  Al  Al25  1  0.09283122  0.75702615  0.83066821  1
  Al  Al26  1  0.21850687  0.87693519  0.65204174  1
  Al  Al27  1  0.77210721  0.76630899  0.32439643  1
  Al  Al28  1  0.88593438  0.87228583  0.07861814  1
  Al  Al29  1  0.45006584  0.76800455  0.89286750  1
  Al  Al30  1  0.56175836  0.87788127  0.57438574  1
  B  B31  1  0.75770599  0.13200447  0.79989984  1
  B  B32  1  0.88866171  0.20277455  0.10527851  1
  B  B33  1  0.77546971  0.75724257  0.87046279  1
  B  B34  1  0.88173870  0.87079778  0.62450965  1
  B  B35  1  0.55811480  0.87024468  0.10445967  1
  N  N36  1  0.21691655  0.20674572  0.32052213  1
  N  N37  1  0.07960536  0.10892732  0.07924848  1
  N  N38  1  0.86875061  0.19925443  0.83565404  1
  N  N39  1  0.78131279  0.07199293  0.65055785  1
  N  N40  1  0.55485121  0.20569788  0.38106413  1
  N  N41  1  0.46622106  0.06380684  0.12154293  1
  N  N42  1  0.21661327  0.20207882  0.83575626  1
  N  N43  1  0.12078037  0.08874120  0.58231407  1
  N  N44  1  0.88083559  0.20827983  0.39636839  1
  N  N45  1  0.79572649  0.10892287  0.12624178  1
  N  N46  1  0.58425105  0.19504512  0.86912006  1
  N  N47  1  0.44636980  0.09623887  0.63368010  1
  N  N48  1  0.22549603  0.54735243  0.38361559  1
  N  N49  1  0.11223012  0.42436842  0.08134255  1
  N  N50  1  0.86743878  0.56095617  0.88525879  1
  N  N51  1  0.77572334  0.43711051  0.63209980  1
  N  N52  1  0.55810977  0.53317343  0.37690444  1
  N  N53  1  0.45008013  0.41776774  0.13054685  1
  N  N54  1  0.23052493  0.53276811  0.87812699  1
  N  N55  1  0.11420211  0.42240188  0.57878780  1
  N  N56  1  0.88395523  0.54171133  0.36936527  1
  N  N57  1  0.79530916  0.39347526  0.13207570  1
  N  N58  1  0.55477398  0.53449513  0.88829889  1
  N  N59  1  0.44484070  0.42738554  0.63081728  1
  N  N60  1  0.22230841  0.88008251  0.32195632  1
  N  N61  1  0.11718717  0.75492884  0.12346444  1
  N  N62  1  0.87676072  0.84063101  0.89809225  1
  N  N63  1  0.79281686  0.78037040  0.60744190  1
  N  N64  1  0.55215757  0.87891931  0.38694533  1
  N  N65  1  0.45853567  0.77829740  0.08638895  1
  N  N66  1  0.22248836  0.87089051  0.83875502  1
  N  N67  1  0.07557210  0.77733136  0.64115785  1
  N  N68  1  0.88573132  0.87633170  0.34763287  1
  N  N69  1  0.74428807  0.77229708  0.13362257  1
  N  N70  1  0.59056758  0.85218194  0.85620376  1
  N  N71  1  0.43537574  0.76312179  0.58248484  1
