# generated using pymatgen
data_Al31B5N36
_symmetry_space_group_name_H-M   'P 1'
_cell_length_a   9.15036081
_cell_length_b   9.12931699
_cell_length_c   10.32632455
_cell_angle_alpha   90.14851185
_cell_angle_beta   89.59860035
_cell_angle_gamma   60.14587671
_symmetry_Int_Tables_number   1
_chemical_formula_structural   Al31B5N36
_chemical_formula_sum   'Al31 B5 N36'
_cell_volume   748.11454261
_cell_formula_units_Z   1
loop_
 _symmetry_equiv_pos_site_id
 _symmetry_equiv_pos_as_xyz
  1  'x, y, z'
loop_
 _atom_site_type_symbol
 _atom_site_label
 _atom_site_symmetry_multiplicity
 _atom_site_fract_x
 _atom_site_fract_y
 _atom_site_fract_z
 _atom_site_occupancy
  Al  Al0  1  0.11483913  0.09084560  0.39849536  1
  Al  Al1  1  0.21225729  0.20825277  0.13692281  1
  Al  Al2  1  0.88690098  0.19889294  0.61628207  1
  Al  Al3  1  0.45712137  0.07950135  0.31605378  1
  Al  Al4  1  0.57110787  0.19538578  0.05772744  1
  Al  Al5  1  0.09706865  0.09484312  0.88606510  1
  Al  Al6  1  0.21335506  0.21289517  0.64576667  1
  Al  Al7  1  0.78052715  0.10433984  0.31494997  1
  Al  Al8  1  0.46106439  0.08373492  0.81377140  1
  Al  Al9  1  0.56024616  0.19822034  0.56599639  1
  Al  Al10  1  0.10937181  0.42175937  0.39220095  1
  Al  Al11  1  0.23094233  0.53842349  0.06277529  1
  Al  Al12  1  0.77690966  0.42162638  0.88377629  1
  Al  Al13  1  0.88980458  0.55432392  0.64551790  1
  Al  Al14  1  0.44212276  0.42106621  0.31610187  1
  Al  Al15  1  0.56608006  0.53818751  0.13773882  1
  Al  Al16  1  0.09892230  0.43233571  0.89294315  1
  Al  Al17  1  0.22040509  0.55073159  0.56989232  1
  Al  Al18  1  0.77495575  0.43124540  0.40203351  1
  Al  Al19  1  0.88272013  0.53829330  0.14441069  1
  Al  Al20  1  0.44603147  0.41655044  0.81618214  1
  Al  Al21  1  0.55723683  0.54556099  0.64853395  1
  Al  Al22  1  0.11092228  0.75657899  0.30690728  1
  Al  Al23  1  0.22395078  0.88423868  0.13426941  1
  Al  Al24  1  0.43799599  0.75567742  0.39324568  1
  Al  Al25  1  0.09208368  0.76426787  0.83241441  1
  Al  Al26  1  0.21771737  0.87682438  0.65006449  1
  Al  Al27  1  0.78607773  0.76182271  0.38472052  1
  Al  Al28  1  0.87835467  0.87422607  0.11336118  1
  Al  Al29  1  0.45473735  0.76247236  0.89014739  1
  Al  Al30  1  0.55602298  0.87651471  0.58091100  1
  B  B31  1  0.77206038  0.08199336  0.81085515  1
  B  B32  1  0.88671129  0.20721394  0.09357299  1
  B  B33  1  0.76877982  0.77647454  0.85546233  1
  B  B34  1  0.88636412  0.87031636  0.61782982  1
  B  B35  1  0.56211866  0.86619537  0.10038622  1
  N  N36  1  0.21994917  0.20514034  0.32176869  1
  N  N37  1  0.07925656  0.11098284  0.07603557  1
  N  N38  1  0.87555892  0.19028085  0.82155716  1
  N  N39  1  0.78157151  0.06112334  0.64605384  1
  N  N40  1  0.55770744  0.20150161  0.37971341  1
  N  N41  1  0.46582442  0.06128401  0.12129164  1
  N  N42  1  0.21318652  0.20869407  0.83344312  1
  N  N43  1  0.11992679  0.08956090  0.58335042  1
  N  N44  1  0.88436566  0.20157200  0.39532221  1
  N  N45  1  0.79219648  0.11677876  0.12243401  1
  N  N46  1  0.58199192  0.18983043  0.87169586  1
  N  N47  1  0.44375379  0.09868523  0.63079089  1
  N  N48  1  0.22429551  0.54631956  0.38316786  1
  N  N49  1  0.10398768  0.42927897  0.07842975  1
  N  N50  1  0.87539156  0.57248207  0.83345543  1
  N  N51  1  0.77553229  0.44213909  0.58885202  1
  N  N52  1  0.56200653  0.53859063  0.32333528  1
  N  N53  1  0.44618157  0.41663550  0.12726394  1
  N  N54  1  0.22680848  0.53819601  0.87831163  1
  N  N55  1  0.10727446  0.42744456  0.57901844  1
  N  N56  1  0.89012664  0.53504658  0.32961772  1
  N  N57  1  0.79290719  0.39924631  0.07452054  1
  N  N58  1  0.55600482  0.54056780  0.83460683  1
  N  N59  1  0.44388726  0.42281654  0.63044877  1
  N  N60  1  0.22529004  0.87761196  0.32035617  1
  N  N61  1  0.11668142  0.75746244  0.11627139  1
  N  N62  1  0.85764964  0.88241475  0.86882761  1
  N  N63  1  0.80022121  0.77517630  0.57741505  1
  N  N64  1  0.55404780  0.87272100  0.39124817  1
  N  N65  1  0.45769334  0.77568773  0.07888552  1
  N  N66  1  0.22660547  0.87034528  0.83606756  1
  N  N67  1  0.07654697  0.77597307  0.63623102  1
  N  N68  1  0.88216810  0.87431488  0.31275185  1
  N  N69  1  0.74370791  0.76888541  0.10389228  1
  N  N70  1  0.58718321  0.85324064  0.83375882  1
  N  N71  1  0.43270359  0.75661888  0.57983062  1
