# generated using pymatgen
data_Al31B5N36
_symmetry_space_group_name_H-M   'P 1'
_cell_length_a   9.15107362
_cell_length_b   9.13181929
_cell_length_c   10.22589055
_cell_angle_alpha   90.20773297
_cell_angle_beta   89.44863436
_cell_angle_gamma   60.01536806
_symmetry_Int_Tables_number   1
_chemical_formula_structural   Al31B5N36
_chemical_formula_sum   'Al31 B5 N36'
_cell_volume   740.09531996
_cell_formula_units_Z   1
loop_
 _symmetry_equiv_pos_site_id
 _symmetry_equiv_pos_as_xyz
  1  'x, y, z'
loop_
 _atom_site_type_symbol
 _atom_site_label
 _atom_site_symmetry_multiplicity
 _atom_site_fract_x
 _atom_site_fract_y
 _atom_site_fract_z
 _atom_site_occupancy
  Al  Al0  1  0.11531564  0.09313572  0.39684467  1
  Al  Al1  1  0.21158667  0.20575294  0.13238480  1
  Al  Al2  1  0.88766683  0.20020984  0.61395860  1
  Al  Al3  1  0.45437702  0.08268839  0.31384441  1
  Al  Al4  1  0.57626923  0.18510390  0.05665582  1
  Al  Al5  1  0.09762210  0.09547757  0.88345364  1
  Al  Al6  1  0.21300253  0.21371066  0.64522517  1
  Al  Al7  1  0.77972940  0.10583416  0.31477074  1
  Al  Al8  1  0.46153190  0.08677443  0.81365043  1
  Al  Al9  1  0.56473534  0.19168682  0.56473604  1
  Al  Al10  1  0.11159876  0.42477886  0.38892304  1
  Al  Al11  1  0.22312214  0.53716471  0.14071162  1
  Al  Al12  1  0.77930618  0.42158259  0.87938039  1
  Al  Al13  1  0.88744998  0.55434838  0.64231968  1
  Al  Al14  1  0.44217371  0.43259618  0.38845299  1
  Al  Al15  1  0.56178219  0.53189028  0.13595868  1
  Al  Al16  1  0.10407417  0.43845431  0.89195488  1
  Al  Al17  1  0.21729082  0.54329977  0.63802757  1
  Al  Al18  1  0.77545986  0.43150099  0.40006705  1
  Al  Al19  1  0.88037307  0.53729303  0.14133691  1
  Al  Al20  1  0.44567620  0.42797710  0.88449186  1
  Al  Al21  1  0.55228439  0.54182682  0.64601797  1
  Al  Al22  1  0.10266572  0.76822132  0.38794828  1
  Al  Al23  1  0.21740757  0.87732659  0.13756659  1
  Al  Al24  1  0.43930379  0.75766557  0.39143284  1
  Al  Al25  1  0.09893243  0.76578843  0.88836782  1
  Al  Al26  1  0.21482213  0.87483614  0.64601057  1
  Al  Al27  1  0.78280830  0.76219020  0.38037647  1
  Al  Al28  1  0.88521599  0.86800771  0.12909777  1
  Al  Al29  1  0.45510650  0.76466296  0.88727635  1
  Al  Al30  1  0.55550761  0.87599720  0.58427219  1
  B  B31  1  0.77496923  0.07868808  0.80299676  1
  B  B32  1  0.88719168  0.20500455  0.09320524  1
  B  B33  1  0.77270281  0.77596216  0.84581651  1
  B  B34  1  0.88760081  0.86978125  0.60941349  1
  B  B35  1  0.56110968  0.86546273  0.10083280  1
  N  N36  1  0.21814992  0.20553966  0.31938646  1
  N  N37  1  0.07908877  0.10763082  0.07658051  1
  N  N38  1  0.87736938  0.19018354  0.81787585  1
  N  N39  1  0.78443778  0.06147500  0.63986658  1
  N  N40  1  0.55953002  0.19720001  0.37586468  1
  N  N41  1  0.46403251  0.06118499  0.11840409  1
  N  N42  1  0.21363167  0.21047865  0.83557981  1
  N  N43  1  0.12103908  0.09080041  0.58269919  1
  N  N44  1  0.88489025  0.20183601  0.39394019  1
  N  N45  1  0.79335678  0.11324380  0.12350399  1
  N  N46  1  0.58777903  0.18602982  0.86828014  1
  N  N47  1  0.44286961  0.10117167  0.63001588  1
  N  N48  1  0.22105112  0.54068128  0.32841188  1
  N  N49  1  0.10627933  0.43171367  0.07761270  1
  N  N50  1  0.87641135  0.57119285  0.83228019  1
  N  N51  1  0.77381786  0.44282333  0.58813374  1
  N  N52  1  0.55897658  0.53626985  0.32215531  1
  N  N53  1  0.44376582  0.42482009  0.07383125  1
  N  N54  1  0.22245058  0.53965837  0.82377762  1
  N  N55  1  0.10905647  0.43010058  0.57624743  1
  N  N56  1  0.88938839  0.53454198  0.32811613  1
  N  N57  1  0.79284012  0.39709215  0.07334915  1
  N  N58  1  0.55528030  0.54037428  0.83097547  1
  N  N59  1  0.44358802  0.43193439  0.57758700  1
  N  N60  1  0.22073993  0.87313523  0.32433713  1
  N  N61  1  0.11288516  0.75813960  0.07456863  1
  N  N62  1  0.86447128  0.87641418  0.84694757  1
  N  N63  1  0.79871213  0.77514432  0.57446450  1
  N  N64  1  0.55188144  0.87556778  0.38902548  1
  N  N65  1  0.45650403  0.77471043  0.07979220  1
  N  N66  1  0.22467629  0.86958459  0.83228984  1
  N  N67  1  0.08030058  0.77967084  0.58175789  1
  N  N68  1  0.89083341  0.87101212  0.31671440  1
  N  N69  1  0.74368286  0.77143948  0.10741360  1
  N  N70  1  0.58857165  0.85370830  0.82898355  1
  N  N71  1  0.43396321  0.75729396  0.58001109  1
