# generated using pymatgen
data_Al31B5N36
_symmetry_space_group_name_H-M   'P 1'
_cell_length_a   9.18047946
_cell_length_b   9.17876592
_cell_length_c   9.83620130
_cell_angle_alpha   89.72648692
_cell_angle_beta   89.48030522
_cell_angle_gamma   60.00202302
_symmetry_Int_Tables_number   1
_chemical_formula_structural   Al31B5N36
_chemical_formula_sum   'Al31 B5 N36'
_cell_volume   717.79209085
_cell_formula_units_Z   1
loop_
 _symmetry_equiv_pos_site_id
 _symmetry_equiv_pos_as_xyz
  1  'x, y, z'
loop_
 _atom_site_type_symbol
 _atom_site_label
 _atom_site_symmetry_multiplicity
 _atom_site_fract_x
 _atom_site_fract_y
 _atom_site_fract_z
 _atom_site_occupancy
  Al  Al0  1  0.10546052  0.09671300  0.32467430  1
  Al  Al1  1  0.21883647  0.20311128  0.06259098  1
  Al  Al2  1  0.88640199  0.19875123  0.58703540  1
  Al  Al3  1  0.44923295  0.08793369  0.30562403  1
  Al  Al4  1  0.57085139  0.20011013  0.05507645  1
  Al  Al5  1  0.10411811  0.09162356  0.81077657  1
  Al  Al6  1  0.22492857  0.20454662  0.56250568  1
  Al  Al7  1  0.78143425  0.09211295  0.32412803  1
  Al  Al8  1  0.45380474  0.08743260  0.81926033  1
  Al  Al9  1  0.55963553  0.19706719  0.56578878  1
  Al  Al10  1  0.10984159  0.42935774  0.31161213  1
  Al  Al11  1  0.22129010  0.54060572  0.06016852  1
  Al  Al12  1  0.77675595  0.42410057  0.81151900  1
  Al  Al13  1  0.88694099  0.54847920  0.56850768  1
  Al  Al14  1  0.44452067  0.42584820  0.31166965  1
  Al  Al15  1  0.56257422  0.53479096  0.06366423  1
  Al  Al16  1  0.10671221  0.43252212  0.81209142  1
  Al  Al17  1  0.21727710  0.54276879  0.56291183  1
  Al  Al18  1  0.78187096  0.42296321  0.31927254  1
  Al  Al19  1  0.88319084  0.54455259  0.05819203  1
  Al  Al20  1  0.45166624  0.42271728  0.81049888  1
  Al  Al21  1  0.55530352  0.54125422  0.55977178  1
  Al  Al22  1  0.10403499  0.76339096  0.31961374  1
  Al  Al23  1  0.21750287  0.87744403  0.06396751  1
  Al  Al24  1  0.44780480  0.76498695  0.30672827  1
  Al  Al25  1  0.09741573  0.76779300  0.80902432  1
  Al  Al26  1  0.21995781  0.87024707  0.56325737  1
  Al  Al27  1  0.77334744  0.76667474  0.31504673  1
  Al  Al28  1  0.88093074  0.88214168  0.05522068  1
  Al  Al29  1  0.45105677  0.75999095  0.82051674  1
  Al  Al30  1  0.55999159  0.87237813  0.57018190  1
  B  B31  1  0.77678952  0.08501623  0.79971549  1
  B  B32  1  0.89106137  0.20368671  0.10342405  1
  B  B33  1  0.77615002  0.77354464  0.81247999  1
  B  B34  1  0.88307444  0.87331835  0.57406916  1
  B  B35  1  0.56576731  0.86949737  0.05516431  1
  N  N36  1  0.22521298  0.20460828  0.36709325  1
  N  N37  1  0.08209889  0.10868792  0.12226660  1
  N  N38  1  0.87228076  0.18658613  0.83209151  1
  N  N39  1  0.78470828  0.06384158  0.63121449  1
  N  N40  1  0.55522733  0.20259932  0.37123206  1
  N  N41  1  0.46062933  0.06972569  0.10770484  1
  N  N42  1  0.21809108  0.20494568  0.87213199  1
  N  N43  1  0.11695411  0.09088356  0.61835519  1
  N  N44  1  0.88555039  0.20548148  0.38839139  1
  N  N45  1  0.79523755  0.10708168  0.12557841  1
  N  N46  1  0.58233763  0.19103066  0.86140065  1
  N  N47  1  0.44310039  0.09355829  0.62801533  1
  N  N48  1  0.22185731  0.53880265  0.37134942  1
  N  N49  1  0.10834486  0.42949886  0.11930829  1
  N  N50  1  0.87582210  0.56558049  0.86516015  1
  N  N51  1  0.77514092  0.43414504  0.62005346  1
  N  N52  1  0.55451404  0.54109774  0.36537756  1
  N  N53  1  0.44532744  0.42449870  0.11892534  1
  N  N54  1  0.22326852  0.54007758  0.86834806  1
  N  N55  1  0.11072371  0.42730053  0.62124949  1
  N  N56  1  0.88674323  0.54316266  0.37255851  1
  N  N57  1  0.79546434  0.39790555  0.11881296  1
  N  N58  1  0.55726308  0.53650105  0.87503529  1
  N  N59  1  0.44542127  0.42680900  0.61845789  1
  N  N60  1  0.22437057  0.86930685  0.36889129  1
  N  N61  1  0.10342566  0.76407074  0.12406535  1
  N  N62  1  0.86430575  0.88314394  0.86281525  1
  N  N63  1  0.78574732  0.77448279  0.64041095  1
  N  N64  1  0.55486208  0.87253816  0.37911838  1
  N  N65  1  0.45866969  0.77452472  0.11081856  1
  N  N66  1  0.22063660  0.86986472  0.87310355  1
  N  N67  1  0.08406057  0.77395715  0.61615369  1
  N  N68  1  0.88355906  0.87214603  0.39873563  1
  N  N69  1  0.75441057  0.77699828  0.11902972  1
  N  N70  1  0.58135409  0.85994047  0.88291682  1
  N  N71  1  0.44402883  0.76092160  0.62694425  1
