# generated using pymatgen
data_Al31B5N36
_symmetry_space_group_name_H-M   'P 1'
_cell_length_a   9.15003956
_cell_length_b   9.22384992
_cell_length_c   10.33087734
_cell_angle_alpha   90.62675272
_cell_angle_beta   89.83067306
_cell_angle_gamma   59.91733457
_symmetry_Int_Tables_number   1
_chemical_formula_structural   Al31B5N36
_chemical_formula_sum   'Al31 B5 N36'
_cell_volume   754.38671519
_cell_formula_units_Z   1
loop_
 _symmetry_equiv_pos_site_id
 _symmetry_equiv_pos_as_xyz
  1  'x, y, z'
loop_
 _atom_site_type_symbol
 _atom_site_label
 _atom_site_symmetry_multiplicity
 _atom_site_fract_x
 _atom_site_fract_y
 _atom_site_fract_z
 _atom_site_occupancy
  Al  Al0  1  0.11728311  0.09170540  0.39758505  1
  Al  Al1  1  0.21298191  0.20574346  0.13642549  1
  Al  Al2  1  0.88612891  0.20051868  0.58929472  1
  Al  Al3  1  0.45341313  0.08746026  0.31691078  1
  Al  Al4  1  0.57350722  0.19536982  0.05904381  1
  Al  Al5  1  0.09300250  0.09632626  0.88927748  1
  Al  Al6  1  0.21351736  0.21118791  0.64885734  1
  Al  Al7  1  0.78231918  0.09598034  0.31998355  1
  Al  Al8  1  0.47035448  0.07736754  0.81598017  1
  Al  Al9  1  0.55648182  0.19965987  0.56741014  1
  Al  Al10  1  0.11259357  0.42381442  0.38757286  1
  Al  Al11  1  0.23210146  0.53800423  0.06418211  1
  Al  Al12  1  0.77029059  0.43546162  0.81736854  1
  Al  Al13  1  0.88421990  0.55516121  0.59487995  1
  Al  Al14  1  0.44429776  0.42595601  0.31731531  1
  Al  Al15  1  0.56684395  0.52627307  0.07132168  1
  Al  Al16  1  0.10356665  0.42639227  0.89338997  1
  Al  Al17  1  0.21605419  0.55386665  0.57072881  1
  Al  Al18  1  0.78163216  0.41786491  0.32394966  1
  Al  Al19  1  0.88269619  0.53878183  0.10958855  1
  Al  Al20  1  0.44853205  0.42615839  0.81504667  1
  Al  Al21  1  0.55785886  0.53251369  0.56571185  1
  Al  Al22  1  0.10601079  0.75932049  0.31234659  1
  Al  Al23  1  0.22382336  0.88154356  0.13799580  1
  Al  Al24  1  0.43395560  0.76613384  0.39206717  1
  Al  Al25  1  0.09302667  0.75672958  0.83077120  1
  Al  Al26  1  0.21856235  0.87691466  0.65219094  1
  Al  Al27  1  0.77138096  0.76875120  0.32500863  1
  Al  Al28  1  0.88547189  0.87244048  0.07700005  1
  Al  Al29  1  0.45042229  0.76805013  0.89279060  1
  Al  Al30  1  0.56087735  0.87827745  0.57416696  1
  B  B31  1  0.75799104  0.13107781  0.80020215  1
  B  B32  1  0.88842799  0.20212438  0.10486476  1
  B  B33  1  0.77652168  0.75571017  0.86929399  1
  B  B34  1  0.88206350  0.87180851  0.62364676  1
  B  B35  1  0.55806813  0.87087010  0.10348482  1
  N  N36  1  0.21709570  0.20681216  0.32089237  1
  N  N37  1  0.07969910  0.10853833  0.07922765  1
  N  N38  1  0.86898194  0.19873516  0.83531396  1
  N  N39  1  0.78138667  0.07175986  0.65011801  1
  N  N40  1  0.55493678  0.20575448  0.38090680  1
  N  N41  1  0.46553891  0.06443392  0.12138361  1
  N  N42  1  0.21598879  0.20296486  0.83563204  1
  N  N43  1  0.12093206  0.08855436  0.58228441  1
  N  N44  1  0.88103603  0.20809006  0.39674736  1
  N  N45  1  0.79577303  0.10800789  0.12623924  1
  N  N46  1  0.58415620  0.19514020  0.86898893  1
  N  N47  1  0.44618060  0.09655968  0.63350773  1
  N  N48  1  0.22522495  0.54719286  0.38372237  1
  N  N49  1  0.11322076  0.42344757  0.08066664  1
  N  N50  1  0.86920369  0.56207283  0.87358782  1
  N  N51  1  0.77486973  0.43612024  0.63171836  1
  N  N52  1  0.55795545  0.53316703  0.37724103  1
  N  N53  1  0.45019819  0.41803690  0.13046251  1
  N  N54  1  0.23027744  0.53263449  0.87818757  1
  N  N55  1  0.11267441  0.42275171  0.57737046  1
  N  N56  1  0.88828842  0.53962919  0.34466657  1
  N  N57  1  0.79439848  0.39140552  0.13111096  1
  N  N58  1  0.55442287  0.53465144  0.88804412  1
  N  N59  1  0.44442974  0.42736349  0.63070310  1
  N  N60  1  0.22230722  0.87992543  0.32191583  1
  N  N61  1  0.11653210  0.75479948  0.12358904  1
  N  N62  1  0.87638232  0.84162035  0.89695039  1
  N  N63  1  0.79222115  0.78163302  0.60570528  1
  N  N64  1  0.55186977  0.87911643  0.38710460  1
  N  N65  1  0.45857072  0.77834148  0.08632620  1
  N  N66  1  0.22254127  0.87085824  0.83865590  1
  N  N67  1  0.07546697  0.77711334  0.64085434  1
  N  N68  1  0.88607554  0.87706112  0.34972229  1
  N  N69  1  0.74324711  0.77533759  0.13248672  1
  N  N70  1  0.59043487  0.85246748  0.85583448  1
  N  N71  1  0.43528722  0.76306968  0.58239367  1
