# generated using pymatgen
data_Al31B5N36
_symmetry_space_group_name_H-M   'P 1'
_cell_length_a   9.20845296
_cell_length_b   9.21111325
_cell_length_c   9.80166452
_cell_angle_alpha   89.44509152
_cell_angle_beta   89.28043249
_cell_angle_gamma   59.73944839
_symmetry_Int_Tables_number   1
_chemical_formula_structural   Al31B5N36
_chemical_formula_sum   'Al31 B5 N36'
_cell_volume   718.03480771
_cell_formula_units_Z   1
loop_
 _symmetry_equiv_pos_site_id
 _symmetry_equiv_pos_as_xyz
  1  'x, y, z'
loop_
 _atom_site_type_symbol
 _atom_site_label
 _atom_site_symmetry_multiplicity
 _atom_site_fract_x
 _atom_site_fract_y
 _atom_site_fract_z
 _atom_site_occupancy
  Al  Al0  1  0.10417039  0.09760001  0.30399229  1
  Al  Al1  1  0.22206728  0.20315751  0.05543387  1
  Al  Al2  1  0.88559342  0.19844603  0.56780175  1
  Al  Al3  1  0.44872592  0.08774892  0.29878420  1
  Al  Al4  1  0.57337837  0.19693782  0.04840376  1
  Al  Al5  1  0.10637858  0.09904441  0.81416021  1
  Al  Al6  1  0.22088545  0.20304570  0.55577801  1
  Al  Al7  1  0.78209952  0.09297827  0.30703619  1
  Al  Al8  1  0.45306635  0.08476433  0.81055518  1
  Al  Al9  1  0.55652110  0.19798372  0.55619656  1
  Al  Al10  1  0.10911626  0.42882546  0.30473374  1
  Al  Al11  1  0.22178186  0.54114618  0.05291538  1
  Al  Al12  1  0.78048857  0.43013604  0.81413919  1
  Al  Al13  1  0.88638559  0.54390123  0.56237728  1
  Al  Al14  1  0.44517722  0.42566582  0.30342005  1
  Al  Al15  1  0.56318861  0.53645734  0.05628645  1
  Al  Al16  1  0.10840672  0.43354568  0.80517880  1
  Al  Al17  1  0.21659866  0.54177091  0.55481411  1
  Al  Al18  1  0.78159262  0.42255436  0.30446139  1
  Al  Al19  1  0.88214729  0.54697739  0.05196102  1
  Al  Al20  1  0.45338878  0.42211118  0.80241766  1
  Al  Al21  1  0.55624640  0.53904264  0.55434699  1
  Al  Al22  1  0.10422930  0.76427853  0.31180806  1
  Al  Al23  1  0.21832016  0.87904313  0.05638764  1
  Al  Al24  1  0.44725696  0.76472425  0.30052589  1
  Al  Al25  1  0.09836238  0.76900141  0.80083171  1
  Al  Al26  1  0.21671727  0.87393358  0.55650491  1
  Al  Al27  1  0.77370212  0.76591084  0.30871554  1
  Al  Al28  1  0.87905488  0.88384943  0.04832102  1
  Al  Al29  1  0.44896253  0.76033216  0.81273332  1
  Al  Al30  1  0.55954966  0.87097095  0.56159957  1
  B  B31  1  0.75623452  0.05714094  0.78534467  1
  B  B32  1  0.89418206  0.21016426  0.04936622  1
  B  B33  1  0.77656940  0.76621094  0.80462326  1
  B  B34  1  0.88681325  0.86812340  0.56367776  1
  B  B35  1  0.56562133  0.86937327  0.04950683  1
  N  N36  1  0.22328016  0.20292555  0.36002241  1
  N  N37  1  0.08893489  0.10781019  0.11076415  1
  N  N38  1  0.89599296  0.21734328  0.89189866  1
  N  N39  1  0.78421766  0.06384032  0.63053188  1
  N  N40  1  0.55648849  0.20148040  0.36272554  1
  N  N41  1  0.46234762  0.06930679  0.10069413  1
  N  N42  1  0.22756192  0.20709089  0.86475378  1
  N  N43  1  0.10800831  0.09432145  0.62068513  1
  N  N44  1  0.88584317  0.20412986  0.37611323  1
  N  N45  1  0.79503542  0.10552096  0.11195368  1
  N  N46  1  0.58743978  0.18416879  0.85041739  1
  N  N47  1  0.44207877  0.09231777  0.61857916  1
  N  N48  1  0.22146451  0.53852335  0.36287713  1
  N  N49  1  0.10875415  0.43061112  0.11152916  1
  N  N50  1  0.87603837  0.57323488  0.85694463  1
  N  N51  1  0.77723148  0.42555106  0.62060717  1
  N  N52  1  0.55502092  0.53977246  0.35952063  1
  N  N53  1  0.44677774  0.42342519  0.10933977  1
  N  N54  1  0.22416523  0.54135865  0.85989741  1
  N  N55  1  0.11057886  0.42614007  0.61370775  1
  N  N56  1  0.88536886  0.54149018  0.36680694  1
  N  N57  1  0.79239741  0.40747155  0.11002732  1
  N  N58  1  0.55592152  0.53713279  0.86647059  1
  N  N59  1  0.44468504  0.42570093  0.61064601  1
  N  N60  1  0.22209055  0.87220616  0.36165986  1
  N  N61  1  0.10343387  0.76494324  0.11516908  1
  N  N62  1  0.86075063  0.88225791  0.85284763  1
  N  N63  1  0.78554747  0.77203200  0.63109424  1
  N  N64  1  0.55467328  0.87176465  0.37119053  1
  N  N65  1  0.45856925  0.77518847  0.10398560  1
  N  N66  1  0.21916100  0.87148098  0.86461528  1
  N  N67  1  0.08346779  0.77352731  0.60761280  1
  N  N68  1  0.88268387  0.87366547  0.39199289  1
  N  N69  1  0.75473345  0.77800503  0.11225609  1
  N  N70  1  0.58094032  0.85817286  0.87460590  1
  N  N71  1  0.44276912  0.76089675  0.61841741  1
