# generated using pymatgen
data_Al31B5N36
_symmetry_space_group_name_H-M   'P 1'
_cell_length_a   9.10542843
_cell_length_b   9.12379358
_cell_length_c   10.52714875
_cell_angle_alpha   90.82340030
_cell_angle_beta   90.15312900
_cell_angle_gamma   60.02165668
_symmetry_Int_Tables_number   1
_chemical_formula_structural   Al31B5N36
_chemical_formula_sum   'Al31 B5 N36'
_cell_volume   757.46266245
_cell_formula_units_Z   1
loop_
 _symmetry_equiv_pos_site_id
 _symmetry_equiv_pos_as_xyz
  1  'x, y, z'
loop_
 _atom_site_type_symbol
 _atom_site_label
 _atom_site_symmetry_multiplicity
 _atom_site_fract_x
 _atom_site_fract_y
 _atom_site_fract_z
 _atom_site_occupancy
  Al  Al0  1  0.12188033  0.08933426  0.39401538  1
  Al  Al1  1  0.20917077  0.21099847  0.13844372  1
  Al  Al2  1  0.88679111  0.19404170  0.57447480  1
  Al  Al3  1  0.45507061  0.08276664  0.31488703  1
  Al  Al4  1  0.56428937  0.19901499  0.06876787  1
  Al  Al5  1  0.09549807  0.09147522  0.89397711  1
  Al  Al6  1  0.20969398  0.21210814  0.64658704  1
  Al  Al7  1  0.77918748  0.09915215  0.32114775  1
  Al  Al8  1  0.45921459  0.08579317  0.81521971  1
  Al  Al9  1  0.55973028  0.19496748  0.56217493  1
  Al  Al10  1  0.10720454  0.42467506  0.39390894  1
  Al  Al11  1  0.23101767  0.54079542  0.06098928  1
  Al  Al12  1  0.77413617  0.41627327  0.81666530  1
  Al  Al13  1  0.89105185  0.55547934  0.64602833  1
  Al  Al14  1  0.44168936  0.42788475  0.31764449  1
  Al  Al15  1  0.57017781  0.52740643  0.07010333  1
  Al  Al16  1  0.09794963  0.43291946  0.89315842  1
  Al  Al17  1  0.21916524  0.55046642  0.57078608  1
  Al  Al18  1  0.78034510  0.41982475  0.32270097  1
  Al  Al19  1  0.88587431  0.54858135  0.14506766  1
  Al  Al20  1  0.45176035  0.42116844  0.81668176  1
  Al  Al21  1  0.56339605  0.52578804  0.56893808  1
  Al  Al22  1  0.10975584  0.75564436  0.30644998  1
  Al  Al23  1  0.22726195  0.88178988  0.13744317  1
  Al  Al24  1  0.43560036  0.76344038  0.39691179  1
  Al  Al25  1  0.09120126  0.76364227  0.82603960  1
  Al  Al26  1  0.21911900  0.87564835  0.65087498  1
  Al  Al27  1  0.78500811  0.76503140  0.39083546  1
  Al  Al28  1  0.87992846  0.87728794  0.09954886  1
  Al  Al29  1  0.45461780  0.76519762  0.88939215  1
  Al  Al30  1  0.55517893  0.87874713  0.58246940  1
  B  B31  1  0.77261155  0.08694155  0.86310015  1
  B  B32  1  0.88679897  0.20653124  0.10684857  1
  B  B33  1  0.76754878  0.77649705  0.86023275  1
  B  B34  1  0.88475316  0.87608965  0.60545582  1
  B  B35  1  0.56065185  0.86924845  0.10122774  1
  N  N36  1  0.21653652  0.20978324  0.31967382  1
  N  N37  1  0.08020050  0.10928053  0.08036632  1
  N  N38  1  0.86769303  0.17893833  0.85304160  1
  N  N39  1  0.79061212  0.05881399  0.60169853  1
  N  N40  1  0.55159782  0.20689805  0.37752555  1
  N  N41  1  0.46249768  0.06469923  0.12499991  1
  N  N42  1  0.20537865  0.20903687  0.83175851  1
  N  N43  1  0.12291835  0.08500531  0.57646538  1
  N  N44  1  0.88654188  0.20816704  0.38948622  1
  N  N45  1  0.79029716  0.11538223  0.12944208  1
  N  N46  1  0.57738601  0.19132796  0.88362097  1
  N  N47  1  0.44347407  0.10077904  0.63614237  1
  N  N48  1  0.22310498  0.54824849  0.38653081  1
  N  N49  1  0.10479268  0.42969645  0.07504047  1
  N  N50  1  0.87675718  0.57854105  0.83147422  1
  N  N51  1  0.78128164  0.42292439  0.63663351  1
  N  N52  1  0.56095604  0.52924547  0.38282348  1
  N  N53  1  0.44621869  0.42531380  0.13310449  1
  N  N54  1  0.22850876  0.53816975  0.87881024  1
  N  N55  1  0.10673161  0.42522895  0.57703490  1
  N  N56  1  0.89060259  0.54378920  0.32742451  1
  N  N57  1  0.79491152  0.39625209  0.13310643  1
  N  N58  1  0.56176103  0.52921134  0.88937350  1
  N  N59  1  0.44676144  0.42254769  0.63378162  1
  N  N60  1  0.22784836  0.87555508  0.31863419  1
  N  N61  1  0.11628777  0.75732259  0.11992722  1
  N  N62  1  0.85784767  0.88793955  0.88339776  1
  N  N63  1  0.79803522  0.77228807  0.57841968  1
  N  N64  1  0.55054255  0.87976458  0.39355740  1
  N  N65  1  0.45771969  0.77971956  0.07949414  1
  N  N66  1  0.22765736  0.86947027  0.83392850  1
  N  N67  1  0.07646020  0.77383342  0.63945566  1
  N  N68  1  0.88364658  0.87303542  0.32096191  1
  N  N69  1  0.74390653  0.77410420  0.10038642  1
  N  N70  1  0.58646713  0.85526693  0.83674360  1
  N  N71  1  0.43582851  0.75825973  0.58348735  1
