# generated using pymatgen
data_Al31B5N36
_symmetry_space_group_name_H-M   'P 1'
_cell_length_a   9.15958479
_cell_length_b   9.16629023
_cell_length_c   10.33197587
_cell_angle_alpha   90.26385266
_cell_angle_beta   89.61575670
_cell_angle_gamma   60.07529252
_symmetry_Int_Tables_number   1
_chemical_formula_structural   Al31B5N36
_chemical_formula_sum   'Al31 B5 N36'
_cell_volume   751.76891304
_cell_formula_units_Z   1
loop_
 _symmetry_equiv_pos_site_id
 _symmetry_equiv_pos_as_xyz
  1  'x, y, z'
loop_
 _atom_site_type_symbol
 _atom_site_label
 _atom_site_symmetry_multiplicity
 _atom_site_fract_x
 _atom_site_fract_y
 _atom_site_fract_z
 _atom_site_occupancy
  Al  Al0  1  0.11815129  0.08944376  0.39945507  1
  Al  Al1  1  0.21117861  0.20823465  0.13618892  1
  Al  Al2  1  0.89002776  0.18958798  0.61178821  1
  Al  Al3  1  0.45637494  0.08231526  0.31567080  1
  Al  Al4  1  0.57299823  0.19457960  0.05943132  1
  Al  Al5  1  0.09244399  0.09568594  0.88960549  1
  Al  Al6  1  0.21106856  0.21312854  0.64720624  1
  Al  Al7  1  0.77988501  0.10432112  0.31669157  1
  Al  Al8  1  0.45811667  0.08768385  0.81544612  1
  Al  Al9  1  0.55794810  0.19692138  0.56571077  1
  Al  Al10  1  0.11223457  0.42191612  0.39075465  1
  Al  Al11  1  0.23105484  0.53858541  0.06410353  1
  Al  Al12  1  0.77373252  0.42539726  0.82017682  1
  Al  Al13  1  0.89297883  0.55711976  0.64343119  1
  Al  Al14  1  0.44690378  0.42532345  0.31639869  1
  Al  Al15  1  0.57004232  0.52674044  0.06669147  1
  Al  Al16  1  0.09639033  0.43343937  0.89517953  1
  Al  Al17  1  0.21784779  0.55068494  0.57020673  1
  Al  Al18  1  0.78532715  0.42345972  0.38438284  1
  Al  Al19  1  0.88003485  0.53926210  0.14520088  1
  Al  Al20  1  0.44855947  0.42166201  0.81670034  1
  Al  Al21  1  0.55153537  0.53385465  0.57586674  1
  Al  Al22  1  0.11277779  0.75591547  0.30829920  1
  Al  Al23  1  0.22681538  0.88239935  0.13431296  1
  Al  Al24  1  0.43525687  0.76598238  0.39663130  1
  Al  Al25  1  0.09122914  0.76291210  0.83113185  1
  Al  Al26  1  0.21791867  0.87681192  0.65293442  1
  Al  Al27  1  0.78441242  0.76551121  0.38683545  1
  Al  Al28  1  0.87944503  0.87407842  0.11777522  1
  Al  Al29  1  0.45250033  0.76784856  0.88611568  1
  Al  Al30  1  0.55629045  0.87771019  0.58897545  1
  B  B31  1  0.77123506  0.08149128  0.81112336  1
  B  B32  1  0.88703796  0.20951849  0.10093694  1
  B  B33  1  0.76860480  0.77827407  0.85225958  1
  B  B34  1  0.88546965  0.87036293  0.61786196  1
  B  B35  1  0.56248654  0.86697840  0.10144742  1
  N  N36  1  0.21841197  0.20577748  0.32153924  1
  N  N37  1  0.08107981  0.10857607  0.07790097  1
  N  N38  1  0.87588409  0.18384270  0.81916338  1
  N  N39  1  0.77942926  0.05998798  0.64280292  1
  N  N40  1  0.55626633  0.20381482  0.37948387  1
  N  N41  1  0.46598539  0.06313930  0.12190419  1
  N  N42  1  0.20836752  0.20996721  0.83454997  1
  N  N43  1  0.12236159  0.08706890  0.58327271  1
  N  N44  1  0.88540786  0.19910630  0.40308112  1
  N  N45  1  0.79338327  0.11442422  0.12560391  1
  N  N46  1  0.58065892  0.19131899  0.87201530  1
  N  N47  1  0.44087560  0.10164366  0.63257019  1
  N  N48  1  0.22567403  0.54575144  0.38312136  1
  N  N49  1  0.10398467  0.43038059  0.08030843  1
  N  N50  1  0.87605702  0.57644350  0.82997032  1
  N  N51  1  0.77720459  0.43481617  0.62115266  1
  N  N52  1  0.55648118  0.53233448  0.38581730  1
  N  N53  1  0.44952666  0.42073952  0.12952761  1
  N  N54  1  0.22644154  0.53759478  0.87855559  1
  N  N55  1  0.10762237  0.42577054  0.57720013  1
  N  N56  1  0.89060238  0.53908212  0.33290925  1
  N  N57  1  0.79805317  0.39393144  0.10332014  1
  N  N58  1  0.55583140  0.53396465  0.88111201  1
  N  N59  1  0.44241909  0.42336121  0.63298675  1
  N  N60  1  0.22653978  0.87723400  0.32080197  1
  N  N61  1  0.11774844  0.75675474  0.11879123  1
  N  N62  1  0.85633118  0.88303295  0.86490322  1
  N  N63  1  0.79972902  0.77522431  0.57770418  1
  N  N64  1  0.55310047  0.87774459  0.39372866  1
  N  N65  1  0.45843873  0.77932758  0.07845123  1
  N  N66  1  0.22404789  0.87076966  0.83731469  1
  N  N67  1  0.07639052  0.77556064  0.63608356  1
  N  N68  1  0.88396158  0.87484436  0.31664879  1
  N  N69  1  0.74452182  0.77052552  0.10539200  1
  N  N70  1  0.58647849  0.85478719  0.82841236  1
  N  N71  1  0.43247375  0.76270208  0.58690623  1
