# generated using pymatgen
data_Al31B5N36
_symmetry_space_group_name_H-M   'P 1'
_cell_length_a   9.16628833
_cell_length_b   9.15018423
_cell_length_c   10.27486380
_cell_angle_alpha   90.10542637
_cell_angle_beta   89.56605673
_cell_angle_gamma   60.16504235
_symmetry_Int_Tables_number   1
_chemical_formula_structural   Al31B5N36
_chemical_formula_sum   'Al31 B5 N36'
_cell_volume   747.52959440
_cell_formula_units_Z   1
loop_
 _symmetry_equiv_pos_site_id
 _symmetry_equiv_pos_as_xyz
  1  'x, y, z'
loop_
 _atom_site_type_symbol
 _atom_site_label
 _atom_site_symmetry_multiplicity
 _atom_site_fract_x
 _atom_site_fract_y
 _atom_site_fract_z
 _atom_site_occupancy
  Al  Al0  1  0.11554825  0.09138943  0.39855765  1
  Al  Al1  1  0.21218507  0.20842966  0.13655032  1
  Al  Al2  1  0.88760322  0.19710580  0.61528033  1
  Al  Al3  1  0.45675223  0.08187366  0.31694722  1
  Al  Al4  1  0.57207298  0.19374809  0.05808243  1
  Al  Al5  1  0.09688357  0.09312663  0.88626831  1
  Al  Al6  1  0.21295517  0.21309115  0.64618076  1
  Al  Al7  1  0.78072732  0.10484685  0.31582882  1
  Al  Al8  1  0.46046053  0.08441609  0.81438382  1
  Al  Al9  1  0.55981482  0.19861308  0.56602615  1
  Al  Al10  1  0.11006711  0.42237996  0.39177895  1
  Al  Al11  1  0.22872785  0.53885534  0.06279012  1
  Al  Al12  1  0.78005213  0.41904416  0.88204391  1
  Al  Al13  1  0.88953553  0.55405467  0.64549909  1
  Al  Al14  1  0.44394717  0.42373287  0.31462756  1
  Al  Al15  1  0.56378997  0.53690844  0.12084649  1
  Al  Al16  1  0.09829839  0.43178991  0.89297811  1
  Al  Al17  1  0.21985464  0.55032968  0.57069316  1
  Al  Al18  1  0.77547108  0.43099666  0.40018946  1
  Al  Al19  1  0.88101715  0.53868290  0.14492683  1
  Al  Al20  1  0.44662679  0.41697141  0.81952571  1
  Al  Al21  1  0.55579578  0.54398231  0.64218818  1
  Al  Al22  1  0.11163518  0.75681314  0.30909362  1
  Al  Al23  1  0.22411677  0.88411523  0.13535173  1
  Al  Al24  1  0.44005755  0.75673315  0.39124452  1
  Al  Al25  1  0.09139648  0.76312788  0.83016147  1
  Al  Al26  1  0.21743453  0.87707256  0.64927271  1
  Al  Al27  1  0.78555525  0.76273267  0.38497465  1
  Al  Al28  1  0.87930139  0.87369158  0.11502833  1
  Al  Al29  1  0.45323241  0.76504616  0.88907553  1
  Al  Al30  1  0.55659148  0.87721669  0.58380252  1
  B  B31  1  0.77176503  0.08094645  0.81015935  1
  B  B32  1  0.88818874  0.20596713  0.09420216  1
  B  B33  1  0.76840130  0.77619289  0.85475616  1
  B  B34  1  0.88587364  0.86999392  0.61749101  1
  B  B35  1  0.56168752  0.86767621  0.10135768  1
  N  N36  1  0.21999922  0.20586146  0.32213580  1
  N  N37  1  0.08017233  0.10965660  0.07685898  1
  N  N38  1  0.87612668  0.18838364  0.82064490  1
  N  N39  1  0.78115134  0.06056483  0.64496607  1
  N  N40  1  0.55745125  0.20393116  0.37927468  1
  N  N41  1  0.46612044  0.06223735  0.12155018  1
  N  N42  1  0.21269197  0.20773400  0.83471300  1
  N  N43  1  0.12035228  0.08967684  0.58378569  1
  N  N44  1  0.88522233  0.20143210  0.39625528  1
  N  N45  1  0.79297348  0.11614766  0.12269314  1
  N  N46  1  0.58250771  0.18858191  0.87160169  1
  N  N47  1  0.44266871  0.10035927  0.63074586  1
  N  N48  1  0.22577960  0.54566649  0.38339866  1
  N  N49  1  0.10265673  0.42975336  0.07915916  1
  N  N50  1  0.87488511  0.57211612  0.83355693  1
  N  N51  1  0.77608033  0.44054296  0.59042802  1
  N  N52  1  0.56256504  0.53950588  0.32279639  1
  N  N53  1  0.44514612  0.41589191  0.12489606  1
  N  N54  1  0.22509704  0.53792016  0.87723151  1
  N  N55  1  0.10697394  0.42751638  0.57977404  1
  N  N56  1  0.89051757  0.53598594  0.33056498  1
  N  N57  1  0.79638575  0.39658514  0.07421791  1
  N  N58  1  0.55453089  0.53867305  0.84936143  1
  N  N59  1  0.44341396  0.42289175  0.63257902  1
  N  N60  1  0.22546073  0.87814146  0.32179239  1
  N  N61  1  0.11749616  0.75680322  0.11784634  1
  N  N62  1  0.85740752  0.88132857  0.86749207  1
  N  N63  1  0.80029006  0.77455995  0.57822805  1
  N  N64  1  0.55407300  0.87528070  0.39215814  1
  N  N65  1  0.45611558  0.77981479  0.07853820  1
  N  N66  1  0.22569892  0.86943287  0.83555369  1
  N  N67  1  0.07630166  0.77620452  0.63504300  1
  N  N68  1  0.88289939  0.87497830  0.31462308  1
  N  N69  1  0.74322153  0.76974832  0.10430345  1
  N  N70  1  0.58707554  0.85305562  0.83034762  1
  N  N71  1  0.43315252  0.75782911  0.58065590  1
