# generated using pymatgen
data_Al31B5N36
_symmetry_space_group_name_H-M   'P 1'
_cell_length_a   9.11752706
_cell_length_b   9.15900393
_cell_length_c   10.40514368
_cell_angle_alpha   90.86864923
_cell_angle_beta   90.08610381
_cell_angle_gamma   60.01002403
_symmetry_Int_Tables_number   1
_chemical_formula_structural   Al31B5N36
_chemical_formula_sum   'Al31 B5 N36'
_cell_volume   752.46669007
_cell_formula_units_Z   1
loop_
 _symmetry_equiv_pos_site_id
 _symmetry_equiv_pos_as_xyz
  1  'x, y, z'
loop_
 _atom_site_type_symbol
 _atom_site_label
 _atom_site_symmetry_multiplicity
 _atom_site_fract_x
 _atom_site_fract_y
 _atom_site_fract_z
 _atom_site_occupancy
  Al  Al0  1  0.11830880  0.08982599  0.39574715  1
  Al  Al1  1  0.21079373  0.20927201  0.13678998  1
  Al  Al2  1  0.88534371  0.19668587  0.58639879  1
  Al  Al3  1  0.45605250  0.08279957  0.31569204  1
  Al  Al4  1  0.57001944  0.19714974  0.06024617  1
  Al  Al5  1  0.09374713  0.09406386  0.89124093  1
  Al  Al6  1  0.20981502  0.21222566  0.64746962  1
  Al  Al7  1  0.78134946  0.09692822  0.31781777  1
  Al  Al8  1  0.46160053  0.08417187  0.81518536  1
  Al  Al9  1  0.55714410  0.19742820  0.56675139  1
  Al  Al10  1  0.10839009  0.42327132  0.39288426  1
  Al  Al11  1  0.23043353  0.53976572  0.06327443  1
  Al  Al12  1  0.77247514  0.42300049  0.81580634  1
  Al  Al13  1  0.89035300  0.55496511  0.64419772  1
  Al  Al14  1  0.44326507  0.42528330  0.31721733  1
  Al  Al15  1  0.57036737  0.52710730  0.07154756  1
  Al  Al16  1  0.09941575  0.43032441  0.89328241  1
  Al  Al17  1  0.21808504  0.55104093  0.56947744  1
  Al  Al18  1  0.78054569  0.41860728  0.32603201  1
  Al  Al19  1  0.88551916  0.54868030  0.14645245  1
  Al  Al20  1  0.45060922  0.42307392  0.81587108  1
  Al  Al21  1  0.56017492  0.52867052  0.56656347  1
  Al  Al22  1  0.10686438  0.75812130  0.30935232  1
  Al  Al23  1  0.22510941  0.88165150  0.13662376  1
  Al  Al24  1  0.43506087  0.76485902  0.39403773  1
  Al  Al25  1  0.09488955  0.75877706  0.82681247  1
  Al  Al26  1  0.21796320  0.87636524  0.65140024  1
  Al  Al27  1  0.78547931  0.76573433  0.39212522  1
  Al  Al28  1  0.88053927  0.87677659  0.07046565  1
  Al  Al29  1  0.45408547  0.76599333  0.89023843  1
  Al  Al30  1  0.55345663  0.87803369  0.58425096  1
  B  B31  1  0.76927402  0.09955629  0.81192116  1
  B  B32  1  0.88821794  0.20470122  0.10525640  1
  B  B33  1  0.77137583  0.76865647  0.85633822  1
  B  B34  1  0.88459869  0.87236787  0.61371133  1
  B  B35  1  0.56187979  0.87003877  0.10298576  1
  N  N36  1  0.21683611  0.20761988  0.32040665  1
  N  N37  1  0.08036257  0.10869620  0.07941099  1
  N  N38  1  0.87140123  0.18730716  0.83950071  1
  N  N39  1  0.78283189  0.06458230  0.64612951  1
  N  N40  1  0.55519703  0.20460938  0.38061409  1
  N  N41  1  0.46401284  0.06585728  0.12201410  1
  N  N42  1  0.21015742  0.20644078  0.83393314  1
  N  N43  1  0.12078764  0.08621223  0.57954847  1
  N  N44  1  0.88200858  0.20806016  0.39568019  1
  N  N45  1  0.79420193  0.10961488  0.12634582  1
  N  N46  1  0.58079343  0.19278670  0.87214224  1
  N  N47  1  0.44195523  0.10013738  0.63410121  1
  N  N48  1  0.22386641  0.54619858  0.38402959  1
  N  N49  1  0.10456253  0.42917725  0.07683535  1
  N  N50  1  0.87685583  0.57165554  0.83209213  1
  N  N51  1  0.77630852  0.42995831  0.63293368  1
  N  N52  1  0.55847528  0.53141184  0.37968266  1
  N  N53  1  0.44824885  0.42168835  0.13099675  1
  N  N54  1  0.22908144  0.53571890  0.87884881  1
  N  N55  1  0.10713301  0.42535189  0.57811176  1
  N  N56  1  0.88993429  0.54369814  0.33048123  1
  N  N57  1  0.79582563  0.39383221  0.13380991  1
  N  N58  1  0.55984779  0.53125477  0.88917888  1
  N  N59  1  0.44465366  0.42537008  0.63208826  1
  N  N60  1  0.22606974  0.87701067  0.31881834  1
  N  N61  1  0.11079035  0.75843666  0.12088180  1
  N  N62  1  0.86444431  0.87158763  0.87994018  1
  N  N63  1  0.79521772  0.77528410  0.58466589  1
  N  N64  1  0.55188042  0.87877559  0.39300610  1
  N  N65  1  0.45884076  0.77980127  0.08190016  1
  N  N66  1  0.22612991  0.86922031  0.83610205  1
  N  N67  1  0.07542464  0.77462650  0.63872998  1
  N  N68  1  0.89043842  0.87950253  0.35548540  1
  N  N69  1  0.74546486  0.77660177  0.10724354  1
  N  N70  1  0.58833504  0.85268616  0.83573655  1
  N  N71  1  0.43313829  0.75974996  0.58291244  1
