# generated using pymatgen
data_Al31B5N36
_symmetry_space_group_name_H-M   'P 1'
_cell_length_a   9.18853031
_cell_length_b   9.24826958
_cell_length_c   10.15218776
_cell_angle_alpha   90.17438625
_cell_angle_beta   89.60377501
_cell_angle_gamma   59.79236851
_symmetry_Int_Tables_number   1
_chemical_formula_structural   Al31B5N36
_chemical_formula_sum   'Al31 B5 N36'
_cell_volume   745.52394453
_cell_formula_units_Z   1
loop_
 _symmetry_equiv_pos_site_id
 _symmetry_equiv_pos_as_xyz
  1  'x, y, z'
loop_
 _atom_site_type_symbol
 _atom_site_label
 _atom_site_symmetry_multiplicity
 _atom_site_fract_x
 _atom_site_fract_y
 _atom_site_fract_z
 _atom_site_occupancy
  Al  Al0  1  0.11876078  0.09210709  0.39776073  1
  Al  Al1  1  0.21920397  0.20196541  0.12584511  1
  Al  Al2  1  0.88650855  0.20161130  0.59305812  1
  Al  Al3  1  0.45615164  0.08485241  0.31133236  1
  Al  Al4  1  0.57518509  0.19829000  0.06033321  1
  Al  Al5  1  0.08948377  0.10158525  0.89039509  1
  Al  Al6  1  0.22124869  0.20106303  0.65069381  1
  Al  Al7  1  0.78256458  0.09555443  0.32040976  1
  Al  Al8  1  0.46884423  0.08005755  0.82855851  1
  Al  Al9  1  0.55753291  0.19698865  0.57079460  1
  Al  Al10  1  0.10811141  0.43353922  0.31781977  1
  Al  Al11  1  0.22766580  0.53459666  0.06463191  1
  Al  Al12  1  0.76854860  0.43860421  0.81344554  1
  Al  Al13  1  0.88843887  0.55043028  0.56875131  1
  Al  Al14  1  0.44382754  0.42322458  0.32075673  1
  Al  Al15  1  0.56310483  0.52945909  0.07481795  1
  Al  Al16  1  0.10062436  0.44040835  0.82525328  1
  Al  Al17  1  0.21115638  0.54838120  0.57339187  1
  Al  Al18  1  0.78439169  0.41740619  0.32662172  1
  Al  Al19  1  0.88242776  0.53721768  0.07297924  1
  Al  Al20  1  0.44835533  0.42751463  0.81497084  1
  Al  Al21  1  0.55441906  0.53996788  0.56782201  1
  Al  Al22  1  0.10804169  0.75713926  0.31269552  1
  Al  Al23  1  0.21930382  0.88353858  0.13296063  1
  Al  Al24  1  0.44345697  0.76265429  0.35085924  1
  Al  Al25  1  0.09190039  0.76122452  0.83791542  1
  Al  Al26  1  0.21879837  0.87488473  0.65271427  1
  Al  Al27  1  0.77051491  0.76092412  0.31853278  1
  Al  Al28  1  0.88548141  0.87082013  0.09230933  1
  Al  Al29  1  0.44478456  0.76553753  0.88389792  1
  Al  Al30  1  0.56178287  0.87309604  0.57348417  1
  B  B31  1  0.75681342  0.13515520  0.79919137  1
  B  B32  1  0.88734077  0.20636731  0.10688047  1
  B  B33  1  0.78006487  0.75845007  0.88193324  1
  B  B34  1  0.88132880  0.86900860  0.62828442  1
  B  B35  1  0.56548708  0.86704219  0.06979995  1
  N  N36  1  0.22178086  0.20083189  0.32036205  1
  N  N37  1  0.07690836  0.11299359  0.08052519  1
  N  N38  1  0.86795402  0.20258866  0.83204738  1
  N  N39  1  0.78251804  0.06999411  0.65127779  1
  N  N40  1  0.55667240  0.20153637  0.38194990  1
  N  N41  1  0.46949747  0.06663785  0.11457402  1
  N  N42  1  0.21918302  0.20286366  0.84715067  1
  N  N43  1  0.12175597  0.08838826  0.58468542  1
  N  N44  1  0.88232514  0.20490680  0.39696600  1
  N  N45  1  0.79589390  0.11246703  0.12640666  1
  N  N46  1  0.58566880  0.19730588  0.86920332  1
  N  N47  1  0.45249097  0.08883551  0.64115546  1
  N  N48  1  0.21999207  0.54141046  0.38469279  1
  N  N49  1  0.10606271  0.43681332  0.12588105  1
  N  N50  1  0.87000781  0.56124367  0.88340501  1
  N  N51  1  0.77567603  0.43746058  0.62797286  1
  N  N52  1  0.55605834  0.53493980  0.37552669  1
  N  N53  1  0.44812922  0.41892786  0.13133458  1
  N  N54  1  0.22880680  0.53223921  0.87949050  1
  N  N55  1  0.10666280  0.43288107  0.63550244  1
  N  N56  1  0.88716368  0.53794925  0.37921009  1
  N  N57  1  0.79502207  0.39622463  0.13143843  1
  N  N58  1  0.55502042  0.53477173  0.88737692  1
  N  N59  1  0.44388167  0.42712388  0.62803436  1
  N  N60  1  0.21817236  0.87979786  0.32377791  1
  N  N61  1  0.12066613  0.75288861  0.12044705  1
  N  N62  1  0.87699719  0.84146616  0.90374652  1
  N  N63  1  0.79187175  0.77921285  0.61139362  1
  N  N64  1  0.55257215  0.87598624  0.38541398  1
  N  N65  1  0.45515473  0.77554009  0.09435175  1
  N  N66  1  0.21496768  0.87602225  0.84437314  1
  N  N67  1  0.07489365  0.77708367  0.64142583  1
  N  N68  1  0.88374872  0.87226148  0.33017699  1
  N  N69  1  0.74643910  0.76374670  0.12995701  1
  N  N70  1  0.58663623  0.85938841  0.90093732  1
  N  N71  1  0.44518170  0.76109284  0.61366391  1
