# generated using pymatgen
data_Al31B5N36
_symmetry_space_group_name_H-M   'P 1'
_cell_length_a   9.13518323
_cell_length_b   9.10990099
_cell_length_c   10.28204834
_cell_angle_alpha   90.12603475
_cell_angle_beta   89.49957290
_cell_angle_gamma   60.17447722
_symmetry_Int_Tables_number   1
_chemical_formula_structural   Al31B5N36
_chemical_formula_sum   'Al31 B5 N36'
_cell_volume   742.28920514
_cell_formula_units_Z   1
loop_
 _symmetry_equiv_pos_site_id
 _symmetry_equiv_pos_as_xyz
  1  'x, y, z'
loop_
 _atom_site_type_symbol
 _atom_site_label
 _atom_site_symmetry_multiplicity
 _atom_site_fract_x
 _atom_site_fract_y
 _atom_site_fract_z
 _atom_site_occupancy
  Al  Al0  1  0.11254034  0.09609490  0.40284624  1
  Al  Al1  1  0.20887645  0.20621593  0.14678800  1
  Al  Al2  1  0.88650915  0.19307965  0.64416420  1
  Al  Al3  1  0.45398131  0.08369961  0.32343443  1
  Al  Al4  1  0.57006642  0.18833130  0.07724720  1
  Al  Al5  1  0.09870653  0.09206037  0.90076566  1
  Al  Al6  1  0.21230419  0.21166338  0.65400145  1
  Al  Al7  1  0.78062720  0.10321041  0.32802610  1
  Al  Al8  1  0.46023578  0.08700849  0.82472311  1
  Al  Al9  1  0.56571592  0.19003217  0.56772366  1
  Al  Al10  1  0.11161709  0.42603374  0.40051723  1
  Al  Al11  1  0.22091023  0.53834897  0.15224616  1
  Al  Al12  1  0.77710391  0.42230463  0.89805409  1
  Al  Al13  1  0.88767956  0.55141580  0.65235138  1
  Al  Al14  1  0.44096295  0.43540043  0.39786725  1
  Al  Al15  1  0.56130665  0.53371640  0.14950013  1
  Al  Al16  1  0.10297622  0.43768819  0.90322268  1
  Al  Al17  1  0.21814063  0.54166108  0.64837825  1
  Al  Al18  1  0.77885714  0.42875609  0.40620557  1
  Al  Al19  1  0.87951779  0.53801736  0.15439827  1
  Al  Al20  1  0.44442823  0.42952096  0.89902962  1
  Al  Al21  1  0.55446647  0.53784312  0.65521033  1
  Al  Al22  1  0.10538430  0.76714860  0.39736061  1
  Al  Al23  1  0.21765866  0.87713944  0.14991627  1
  Al  Al24  1  0.44032043  0.75913105  0.40354976  1
  Al  Al25  1  0.09974087  0.76528486  0.90026660  1
  Al  Al26  1  0.21533368  0.87338852  0.65403377  1
  Al  Al27  1  0.78334335  0.76299539  0.39169194  1
  Al  Al28  1  0.88367491  0.86936276  0.14009681  1
  Al  Al29  1  0.45432769  0.76345095  0.89769493  1
  Al  Al30  1  0.55799050  0.87668805  0.59368964  1
  B  B31  1  0.77447190  0.07839644  0.86044757  1
  B  B32  1  0.88669751  0.20574247  0.12551686  1
  B  B33  1  0.76909365  0.77816234  0.86097153  1
  B  B34  1  0.88868272  0.87397651  0.60068031  1
  B  B35  1  0.55951243  0.86541387  0.11145826  1
  N  N36  1  0.22032825  0.20733059  0.33200382  1
  N  N37  1  0.07937091  0.10647331  0.08936820  1
  N  N38  1  0.87229137  0.18090012  0.83756962  1
  N  N39  1  0.79493161  0.05812180  0.60088966  1
  N  N40  1  0.55635401  0.20217544  0.38017328  1
  N  N41  1  0.46066052  0.06074387  0.13056868  1
  N  N42  1  0.20974702  0.21006585  0.84425480  1
  N  N43  1  0.11300353  0.09291135  0.59004572  1
  N  N44  1  0.89558059  0.21255301  0.34979801  1
  N  N45  1  0.78918404  0.11091715  0.13411819  1
  N  N46  1  0.58566831  0.18539482  0.88770785  1
  N  N47  1  0.44419167  0.10157864  0.64229369  1
  N  N48  1  0.22088069  0.54131679  0.33805250  1
  N  N49  1  0.10531335  0.43127953  0.08821244  1
  N  N50  1  0.87494219  0.57262827  0.84317835  1
  N  N51  1  0.77888698  0.42930379  0.59672574  1
  N  N52  1  0.55849059  0.53955092  0.33437248  1
  N  N53  1  0.44168350  0.42788890  0.08637335  1
  N  N54  1  0.22230242  0.53884675  0.83484785  1
  N  N55  1  0.10926317  0.42857181  0.58722911  1
  N  N56  1  0.88981970  0.53793678  0.33983481  1
  N  N57  1  0.79143397  0.39819057  0.08727118  1
  N  N58  1  0.55668673  0.53805132  0.84056898  1
  N  N59  1  0.44359400  0.43050161  0.58653223  1
  N  N60  1  0.22319554  0.87305195  0.33557663  1
  N  N61  1  0.11229046  0.75857671  0.08522507  1
  N  N62  1  0.85894749  0.88517477  0.86948934  1
  N  N63  1  0.80037959  0.77150555  0.58475267  1
  N  N64  1  0.55225937  0.87832687  0.40079647  1
  N  N65  1  0.45549984  0.77398752  0.08945021  1
  N  N66  1  0.22426493  0.86931622  0.84096686  1
  N  N67  1  0.08556087  0.77432629  0.58923475  1
  N  N68  1  0.89354952  0.86884850  0.32647535  1
  N  N69  1  0.74225055  0.77177906  0.11788918  1
  N  N70  1  0.58698926  0.85500758  0.84296972  1
  N  N71  1  0.43741890  0.75641554  0.59190562  1
