# generated using pymatgen
data_Al31B5N36
_symmetry_space_group_name_H-M   'P 1'
_cell_length_a   9.15875578
_cell_length_b   9.13323875
_cell_length_c   10.15880512
_cell_angle_alpha   90.19093666
_cell_angle_beta   89.71728800
_cell_angle_gamma   60.09502658
_symmetry_Int_Tables_number   1
_chemical_formula_structural   Al31B5N36
_chemical_formula_sum   'Al31 B5 N36'
_cell_volume   736.60494474
_cell_formula_units_Z   1
loop_
 _symmetry_equiv_pos_site_id
 _symmetry_equiv_pos_as_xyz
  1  'x, y, z'
loop_
 _atom_site_type_symbol
 _atom_site_label
 _atom_site_symmetry_multiplicity
 _atom_site_fract_x
 _atom_site_fract_y
 _atom_site_fract_z
 _atom_site_occupancy
  Al  Al0  1  0.11125971  0.09719853  0.39975029  1
  Al  Al1  1  0.21158737  0.20601216  0.14828186  1
  Al  Al2  1  0.88496044  0.19233498  0.65111853  1
  Al  Al3  1  0.45480234  0.08200445  0.32812181  1
  Al  Al4  1  0.57156969  0.19076539  0.08267230  1
  Al  Al5  1  0.09622016  0.09236491  0.90843296  1
  Al  Al6  1  0.21047948  0.21103923  0.65499322  1
  Al  Al7  1  0.77949473  0.09826954  0.33221168  1
  Al  Al8  1  0.45787374  0.08732483  0.82962482  1
  Al  Al9  1  0.56422785  0.18983015  0.57110256  1
  Al  Al10  1  0.11053534  0.42759556  0.40201043  1
  Al  Al11  1  0.22194548  0.53930886  0.15418162  1
  Al  Al12  1  0.77720465  0.41876208  0.90700819  1
  Al  Al13  1  0.88662072  0.55044082  0.65927663  1
  Al  Al14  1  0.44051746  0.43553605  0.40029317  1
  Al  Al15  1  0.56199596  0.53523096  0.15209214  1
  Al  Al16  1  0.10295950  0.43562381  0.90519697  1
  Al  Al17  1  0.21718222  0.54129026  0.65055867  1
  Al  Al18  1  0.77949805  0.42869284  0.40214006  1
  Al  Al19  1  0.88007342  0.54167017  0.15113280  1
  Al  Al20  1  0.44406946  0.42879764  0.90085844  1
  Al  Al21  1  0.55581064  0.53542225  0.65679689  1
  Al  Al22  1  0.10488487  0.76638830  0.39787944  1
  Al  Al23  1  0.22027187  0.87763920  0.15201584  1
  Al  Al24  1  0.44107226  0.76000858  0.40836659  1
  Al  Al25  1  0.09970848  0.76541874  0.90199573  1
  Al  Al26  1  0.21370692  0.87485174  0.65497884  1
  Al  Al27  1  0.78437016  0.76230792  0.40040103  1
  Al  Al28  1  0.88463054  0.87381182  0.13404124  1
  Al  Al29  1  0.45268525  0.76289480  0.89699002  1
  Al  Al30  1  0.56098826  0.87356845  0.60902526  1
  B  B31  1  0.77412442  0.07716902  0.86989588  1
  B  B32  1  0.88945109  0.20930949  0.15815169  1
  B  B33  1  0.76372612  0.77648509  0.89164985  1
  B  B34  1  0.89005943  0.87343580  0.60344434  1
  B  B35  1  0.55839966  0.86831941  0.10612733  1
  N  N36  1  0.22155439  0.20774984  0.33577355  1
  N  N37  1  0.08281639  0.10630909  0.09702839  1
  N  N38  1  0.87069674  0.18010222  0.84281135  1
  N  N39  1  0.79691810  0.05842894  0.59427165  1
  N  N40  1  0.55528159  0.20312525  0.38199685  1
  N  N41  1  0.46376266  0.05936853  0.13208056  1
  N  N42  1  0.20843435  0.20811000  0.84747073  1
  N  N43  1  0.10769979  0.09512462  0.58837411  1
  N  N44  1  0.89708440  0.21492774  0.32373446  1
  N  N45  1  0.78803477  0.11159423  0.13952141  1
  N  N46  1  0.58409863  0.18534674  0.89091982  1
  N  N47  1  0.44203430  0.10243611  0.64437759  1
  N  N48  1  0.22084506  0.54114771  0.34135694  1
  N  N49  1  0.10778298  0.43132925  0.09122777  1
  N  N50  1  0.87346430  0.56749879  0.85108661  1
  N  N51  1  0.78024787  0.42529692  0.59452068  1
  N  N52  1  0.55679405  0.54057741  0.33850534  1
  N  N53  1  0.44237553  0.42932363  0.09005389  1
  N  N54  1  0.22092374  0.53860853  0.83785596  1
  N  N55  1  0.10676314  0.42932575  0.59046196  1
  N  N56  1  0.88806855  0.54139749  0.33912110  1
  N  N57  1  0.79120402  0.40157045  0.09616189  1
  N  N58  1  0.55781309  0.53595406  0.84385342  1
  N  N59  1  0.44287893  0.42967031  0.59039298  1
  N  N60  1  0.22327495  0.87245615  0.33946147  1
  N  N61  1  0.11582979  0.75874716  0.08816266  1
  N  N62  1  0.85824009  0.88749170  0.88022402  1
  N  N63  1  0.80203110  0.77103323  0.59167971  1
  N  N64  1  0.55480665  0.87596447  0.40370345  1
  N  N65  1  0.45781357  0.77525815  0.09162671  1
  N  N66  1  0.22189909  0.87092158  0.84333918  1
  N  N67  1  0.08537771  0.77423010  0.59172386  1
  N  N68  1  0.89256885  0.86448229  0.32548950  1
  N  N69  1  0.74654078  0.77282985  0.08866774  1
  N  N70  1  0.58503424  0.85439265  0.84216316  1
  N  N71  1  0.43759320  0.75636002  0.59749059  1
