# generated using pymatgen
data_Al31B5N36
_symmetry_space_group_name_H-M   'P 1'
_cell_length_a   9.13739679
_cell_length_b   9.11417302
_cell_length_c   10.28821235
_cell_angle_alpha   90.21141654
_cell_angle_beta   89.53753103
_cell_angle_gamma   60.16302118
_symmetry_Int_Tables_number   1
_chemical_formula_structural   Al31B5N36
_chemical_formula_sum   'Al31 B5 N36'
_cell_volume   743.17329967
_cell_formula_units_Z   1
loop_
 _symmetry_equiv_pos_site_id
 _symmetry_equiv_pos_as_xyz
  1  'x, y, z'
loop_
 _atom_site_type_symbol
 _atom_site_label
 _atom_site_symmetry_multiplicity
 _atom_site_fract_x
 _atom_site_fract_y
 _atom_site_fract_z
 _atom_site_occupancy
  Al  Al0  1  0.11587725  0.09388230  0.40613595  1
  Al  Al1  1  0.20883658  0.20654511  0.14505001  1
  Al  Al2  1  0.88693077  0.19437593  0.62255874  1
  Al  Al3  1  0.45305795  0.08341566  0.32308551  1
  Al  Al4  1  0.57034978  0.18868873  0.07693502  1
  Al  Al5  1  0.09840043  0.09250270  0.89610118  1
  Al  Al6  1  0.21345614  0.21214985  0.65561283  1
  Al  Al7  1  0.78102012  0.10407386  0.32984452  1
  Al  Al8  1  0.46187941  0.08667652  0.82494747  1
  Al  Al9  1  0.56548870  0.18940325  0.56832821  1
  Al  Al10  1  0.11112050  0.42562104  0.40033950  1
  Al  Al11  1  0.22093122  0.53852968  0.15255284  1
  Al  Al12  1  0.77799498  0.42123569  0.89267225  1
  Al  Al13  1  0.88806697  0.55289404  0.65349199  1
  Al  Al14  1  0.44109051  0.43465817  0.39787844  1
  Al  Al15  1  0.56130350  0.53348968  0.14859896  1
  Al  Al16  1  0.10346695  0.43811552  0.90322383  1
  Al  Al17  1  0.21839898  0.54175322  0.64800257  1
  Al  Al18  1  0.77642868  0.43218437  0.40978358  1
  Al  Al19  1  0.87972398  0.53786947  0.15307367  1
  Al  Al20  1  0.44463740  0.42936043  0.89884828  1
  Al  Al21  1  0.55350656  0.53900202  0.65613142  1
  Al  Al22  1  0.10439160  0.76761410  0.39755973  1
  Al  Al23  1  0.21729337  0.87726808  0.14921597  1
  Al  Al24  1  0.43972415  0.75862130  0.40324118  1
  Al  Al25  1  0.09982703  0.76532834  0.90025563  1
  Al  Al26  1  0.21570251  0.87257293  0.65522910  1
  Al  Al27  1  0.78293141  0.76257914  0.39117510  1
  Al  Al28  1  0.88400477  0.86928065  0.13992925  1
  Al  Al29  1  0.45486150  0.76367492  0.89807875  1
  Al  Al30  1  0.55759922  0.87622455  0.59341307  1
  B  B31  1  0.77606650  0.07979824  0.85623814  1
  B  B32  1  0.88571106  0.20506096  0.10837207  1
  B  B33  1  0.76991339  0.77869001  0.86136591  1
  B  B34  1  0.88747678  0.87360684  0.60213832  1
  B  B35  1  0.55957592  0.86549418  0.11139455  1
  N  N36  1  0.21827083  0.20704040  0.33036950  1
  N  N37  1  0.07808888  0.10728394  0.08737109  1
  N  N38  1  0.87268741  0.18122428  0.83597655  1
  N  N39  1  0.79224361  0.05623786  0.60710728  1
  N  N40  1  0.55571963  0.20132351  0.37999644  1
  N  N41  1  0.46091449  0.06093562  0.13023694  1
  N  N42  1  0.21119576  0.21039568  0.84526958  1
  N  N43  1  0.11980791  0.08993200  0.59262050  1
  N  N44  1  0.88977055  0.20691791  0.38884535  1
  N  N45  1  0.79097604  0.11363926  0.13577777  1
  N  N46  1  0.58683300  0.18552936  0.88805131  1
  N  N47  1  0.44474245  0.10098094  0.64277377  1
  N  N48  1  0.22043345  0.54120540  0.33828666  1
  N  N49  1  0.10542713  0.43166200  0.08806137  1
  N  N50  1  0.87581832  0.57308955  0.84373242  1
  N  N51  1  0.77644141  0.43649692  0.59962751  1
  N  N52  1  0.55880159  0.53859881  0.33349534  1
  N  N53  1  0.44152194  0.42787489  0.08639735  1
  N  N54  1  0.22263468  0.53892375  0.83456672  1
  N  N55  1  0.10955256  0.42830414  0.58708156  1
  N  N56  1  0.88938747  0.53638919  0.33853438  1
  N  N57  1  0.79182490  0.39740809  0.08443841  1
  N  N58  1  0.55566192  0.53889089  0.84104553  1
  N  N59  1  0.44425650  0.43014855  0.58633810  1
  N  N60  1  0.22236718  0.87326223  0.33472662  1
  N  N61  1  0.11235448  0.75851197  0.08532545  1
  N  N62  1  0.85963049  0.88525799  0.87022337  1
  N  N63  1  0.80017108  0.77076174  0.58393346  1
  N  N64  1  0.55152545  0.87796717  0.40028680  1
  N  N65  1  0.45547913  0.77425111  0.08974964  1
  N  N66  1  0.22524331  0.86830015  0.84165529  1
  N  N67  1  0.08499234  0.77468180  0.58923329  1
  N  N68  1  0.89253000  0.86933384  0.32588150  1
  N  N69  1  0.74221200  0.77185811  0.11810132  1
  N  N70  1  0.58769104  0.85489078  0.84355471  1
  N  N71  1  0.43672278  0.75618259  0.59131381  1
