# generated using pymatgen
data_Al31B5N36
_symmetry_space_group_name_H-M   'P 1'
_cell_length_a   9.17685283
_cell_length_b   9.17709620
_cell_length_c   9.79397855
_cell_angle_alpha   90.07294444
_cell_angle_beta   90.06279905
_cell_angle_gamma   60.03989190
_symmetry_Int_Tables_number   1
_chemical_formula_structural   Al31B5N36
_chemical_formula_sum   'Al31 B5 N36'
_cell_volume   714.59974017
_cell_formula_units_Z   1
loop_
 _symmetry_equiv_pos_site_id
 _symmetry_equiv_pos_as_xyz
  1  'x, y, z'
loop_
 _atom_site_type_symbol
 _atom_site_label
 _atom_site_symmetry_multiplicity
 _atom_site_fract_x
 _atom_site_fract_y
 _atom_site_fract_z
 _atom_site_occupancy
  Al  Al0  1  0.10542136  0.09532249  0.40706346  1
  Al  Al1  1  0.21903953  0.20191101  0.16283633  1
  Al  Al2  1  0.88667691  0.19535406  0.66594709  1
  Al  Al3  1  0.44657815  0.09023603  0.40697944  1
  Al  Al4  1  0.56326403  0.19952292  0.15836856  1
  Al  Al5  1  0.10102723  0.09400739  0.91794161  1
  Al  Al6  1  0.22142694  0.20335666  0.66376538  1
  Al  Al7  1  0.78087128  0.08800257  0.40885435  1
  Al  Al8  1  0.45689188  0.08344770  0.91862176  1
  Al  Al9  1  0.56522813  0.19461153  0.66842708  1
  Al  Al10  1  0.10793105  0.42789029  0.41390401  1
  Al  Al11  1  0.22002903  0.54100870  0.16499112  1
  Al  Al12  1  0.77765643  0.42198670  0.91667509  1
  Al  Al13  1  0.88544007  0.54870891  0.66826668  1
  Al  Al14  1  0.44492433  0.42516320  0.41431699  1
  Al  Al15  1  0.56039204  0.53594860  0.16398057  1
  Al  Al16  1  0.10626854  0.43322615  0.91461683  1
  Al  Al17  1  0.21684313  0.54143896  0.66355346  1
  Al  Al18  1  0.77988118  0.42285992  0.40762528  1
  Al  Al19  1  0.88235755  0.54112199  0.15705895  1
  Al  Al20  1  0.44763172  0.42445123  0.91414284  1
  Al  Al21  1  0.55672482  0.53848185  0.66377946  1
  Al  Al22  1  0.10176652  0.76492524  0.41727419  1
  Al  Al23  1  0.21772758  0.87558049  0.16304988  1
  Al  Al24  1  0.44634539  0.76205365  0.40646533  1
  Al  Al25  1  0.09993595  0.76582893  0.90556813  1
  Al  Al26  1  0.21809115  0.87368820  0.66309883  1
  Al  Al27  1  0.77775782  0.76481385  0.40848974  1
  Al  Al28  1  0.88215924  0.87769814  0.14815767  1
  Al  Al29  1  0.45123001  0.76232551  0.91790562  1
  Al  Al30  1  0.56507710  0.87040830  0.66601440  1
  B  B31  1  0.77558681  0.09838772  0.91693033  1
  B  B32  1  0.88787626  0.20456206  0.15949108  1
  B  B33  1  0.76312114  0.77057871  0.91740389  1
  B  B34  1  0.88016093  0.87603944  0.66660094  1
  B  B35  1  0.55385662  0.87271954  0.16105920  1
  N  N36  1  0.22106085  0.20477295  0.35451869  1
  N  N37  1  0.08377335  0.10649091  0.11118699  1
  N  N38  1  0.87459701  0.19095020  0.85731350  1
  N  N39  1  0.79025503  0.06631462  0.60534620  1
  N  N40  1  0.55778243  0.20334148  0.35165930  1
  N  N41  1  0.45479489  0.06890694  0.11164499  1
  N  N42  1  0.22250050  0.20259058  0.85923349  1
  N  N43  1  0.10643533  0.09561132  0.60133245  1
  N  N44  1  0.88519829  0.20241152  0.33024425  1
  N  N45  1  0.78782821  0.10475146  0.08685925  1
  N  N46  1  0.58015990  0.19196139  0.86535244  1
  N  N47  1  0.44565422  0.09164924  0.60361963  1
  N  N48  1  0.22007161  0.54067807  0.35899171  1
  N  N49  1  0.11049652  0.42739855  0.10576861  1
  N  N50  1  0.87295541  0.56482714  0.86489527  1
  N  N51  1  0.78161421  0.42295742  0.60459729  1
  N  N52  1  0.55537518  0.53723033  0.35504996  1
  N  N53  1  0.44329061  0.42740126  0.10587985  1
  N  N54  1  0.22340517  0.53720432  0.85400347  1
  N  N55  1  0.10757968  0.42730505  0.60707358  1
  N  N56  1  0.88573339  0.54122239  0.35117163  1
  N  N57  1  0.79025743  0.40097585  0.10969178  1
  N  N58  1  0.55573105  0.53986522  0.85722328  1
  N  N59  1  0.44619545  0.42314450  0.60820909  1
  N  N60  1  0.22020629  0.86973456  0.35583210  1
  N  N61  1  0.10986129  0.76079914  0.09841861  1
  N  N62  1  0.86518990  0.88398923  0.85131042  1
  N  N63  1  0.78975154  0.77498046  0.60536122  1
  N  N64  1  0.55913259  0.86976858  0.33042883  1
  N  N65  1  0.45542092  0.77329310  0.11222971  1
  N  N66  1  0.22520800  0.87185915  0.85648858  1
  N  N67  1  0.08242695  0.77504223  0.61565007  1
  N  N68  1  0.88760918  0.87150947  0.34041145  1
  N  N69  1  0.75269579  0.77362588  0.08789312  1
  N  N70  1  0.57961580  0.85913499  0.85752849  1
  N  N71  1  0.44681617  0.76272913  0.60206200  1
