# generated using pymatgen
data_Al31B5N36
_symmetry_space_group_name_H-M   'P 1'
_cell_length_a   9.18915547
_cell_length_b   9.18943570
_cell_length_c   9.82590347
_cell_angle_alpha   89.71014389
_cell_angle_beta   89.43560396
_cell_angle_gamma   59.99017224
_symmetry_Int_Tables_number   1
_chemical_formula_structural   Al31B5N36
_chemical_formula_sum   'Al31 B5 N36'
_cell_volume   718.46145629
_cell_formula_units_Z   1
loop_
 _symmetry_equiv_pos_site_id
 _symmetry_equiv_pos_as_xyz
  1  'x, y, z'
loop_
 _atom_site_type_symbol
 _atom_site_label
 _atom_site_symmetry_multiplicity
 _atom_site_fract_x
 _atom_site_fract_y
 _atom_site_fract_z
 _atom_site_occupancy
  Al  Al0  1  0.10530627  0.09688934  0.33852297  1
  Al  Al1  1  0.21828818  0.20294067  0.06248227  1
  Al  Al2  1  0.88470418  0.19922918  0.59236640  1
  Al  Al3  1  0.44916931  0.08787872  0.30521141  1
  Al  Al4  1  0.57105075  0.20009841  0.05506274  1
  Al  Al5  1  0.10404596  0.09179853  0.81195131  1
  Al  Al6  1  0.22617241  0.20557794  0.56430589  1
  Al  Al7  1  0.78146415  0.09222350  0.32385419  1
  Al  Al8  1  0.45440875  0.08723781  0.81939336  1
  Al  Al9  1  0.55976650  0.19692075  0.56490961  1
  Al  Al10  1  0.10982423  0.42948519  0.31130796  1
  Al  Al11  1  0.22140973  0.54046058  0.06021189  1
  Al  Al12  1  0.77611393  0.42583751  0.81093738  1
  Al  Al13  1  0.88710077  0.54867126  0.56801026  1
  Al  Al14  1  0.44454754  0.42586555  0.31147634  1
  Al  Al15  1  0.56270034  0.53456159  0.06387721  1
  Al  Al16  1  0.10667739  0.43300895  0.81228853  1
  Al  Al17  1  0.21750198  0.54278876  0.56266555  1
  Al  Al18  1  0.78185388  0.42289734  0.31913171  1
  Al  Al19  1  0.88318796  0.54447008  0.05837670  1
  Al  Al20  1  0.45193763  0.42254724  0.81034350  1
  Al  Al21  1  0.55568746  0.54123302  0.55923464  1
  Al  Al22  1  0.10391313  0.76335395  0.31945287  1
  Al  Al23  1  0.21690757  0.87793322  0.06421133  1
  Al  Al24  1  0.44773291  0.76514054  0.30641555  1
  Al  Al25  1  0.09728212  0.76734716  0.80916173  1
  Al  Al26  1  0.22116842  0.86800750  0.56522998  1
  Al  Al27  1  0.77322435  0.76673679  0.31479926  1
  Al  Al28  1  0.88082283  0.88231230  0.05519485  1
  Al  Al29  1  0.45133268  0.75976236  0.82085381  1
  Al  Al30  1  0.56016076  0.87222065  0.57009998  1
  B  B31  1  0.77598768  0.08416204  0.79812954  1
  B  B32  1  0.89254453  0.20317888  0.10487050  1
  B  B33  1  0.77621035  0.77347543  0.81214763  1
  B  B34  1  0.88254121  0.87305510  0.57351657  1
  B  B35  1  0.56583556  0.86946683  0.05487934  1
  N  N36  1  0.22589162  0.20561095  0.36828267  1
  N  N37  1  0.08145649  0.10896900  0.11818131  1
  N  N38  1  0.87155549  0.18745926  0.82473866  1
  N  N39  1  0.78378061  0.06241750  0.63050898  1
  N  N40  1  0.55509466  0.20250084  0.37043238  1
  N  N41  1  0.46054040  0.06973656  0.10724460  1
  N  N42  1  0.21854821  0.20517982  0.87115199  1
  N  N43  1  0.11758984  0.09063633  0.61516000  1
  N  N44  1  0.88261853  0.20690145  0.39054324  1
  N  N45  1  0.79547423  0.10728447  0.12515428  1
  N  N46  1  0.58266249  0.19088235  0.86115141  1
  N  N47  1  0.44409267  0.09318768  0.62814346  1
  N  N48  1  0.22180343  0.53883345  0.37097602  1
  N  N49  1  0.10845097  0.42937010  0.11895853  1
  N  N50  1  0.87583813  0.56589778  0.86517662  1
  N  N51  1  0.77475061  0.43583927  0.61969218  1
  N  N52  1  0.55436056  0.54133665  0.36474947  1
  N  N53  1  0.44533677  0.42440216  0.11861365  1
  N  N54  1  0.22355030  0.53993050  0.86827173  1
  N  N55  1  0.11057527  0.42813334  0.62143058  1
  N  N56  1  0.88676765  0.54318987  0.37198380  1
  N  N57  1  0.79555866  0.39776087  0.11866503  1
  N  N58  1  0.55722255  0.53638905  0.87508683  1
  N  N59  1  0.44585311  0.42661773  0.61797017  1
  N  N60  1  0.22502413  0.86769432  0.37011286  1
  N  N61  1  0.10331584  0.76390996  0.12385576  1
  N  N62  1  0.86411041  0.88332550  0.86253601  1
  N  N63  1  0.78585181  0.77416348  0.64004261  1
  N  N64  1  0.55466073  0.87264479  0.37885988  1
  N  N65  1  0.45856657  0.77451909  0.11044234  1
  N  N66  1  0.22059669  0.86944285  0.87239327  1
  N  N67  1  0.08396131  0.77346007  0.61633998  1
  N  N68  1  0.88348291  0.87208553  0.39836280  1
  N  N69  1  0.75431717  0.77710008  0.11879357  1
  N  N70  1  0.58152765  0.85980845  0.88270714  1
  N  N71  1  0.44491279  0.76038350  0.62726748  1
