# generated using pymatgen
data_Al31B5N36
_symmetry_space_group_name_H-M   'P 1'
_cell_length_a   9.18687640
_cell_length_b   9.17333911
_cell_length_c   10.06357698
_cell_angle_alpha   89.81620798
_cell_angle_beta   89.45028656
_cell_angle_gamma   59.85727630
_symmetry_Int_Tables_number   1
_chemical_formula_structural   Al31B5N36
_chemical_formula_sum   'Al31 B5 N36'
_cell_volume   733.38359975
_cell_formula_units_Z   1
loop_
 _symmetry_equiv_pos_site_id
 _symmetry_equiv_pos_as_xyz
  1  'x, y, z'
loop_
 _atom_site_type_symbol
 _atom_site_label
 _atom_site_symmetry_multiplicity
 _atom_site_fract_x
 _atom_site_fract_y
 _atom_site_fract_z
 _atom_site_occupancy
  Al  Al0  1  0.11171354  0.08609052  0.38725971  1
  Al  Al1  1  0.22400439  0.20533328  0.06091457  1
  Al  Al2  1  0.88533172  0.19818723  0.59237063  1
  Al  Al3  1  0.44880380  0.08922271  0.30546569  1
  Al  Al4  1  0.57010939  0.20119079  0.05343921  1
  Al  Al5  1  0.08966979  0.09611819  0.87712800  1
  Al  Al6  1  0.22919383  0.20750338  0.56269340  1
  Al  Al7  1  0.78126388  0.09481700  0.31429393  1
  Al  Al8  1  0.45549524  0.08647906  0.81587534  1
  Al  Al9  1  0.56088488  0.19658856  0.56189079  1
  Al  Al10  1  0.11075589  0.42874854  0.31092981  1
  Al  Al11  1  0.22573569  0.53533299  0.05668405  1
  Al  Al12  1  0.77451271  0.42922568  0.80662523  1
  Al  Al13  1  0.88832704  0.54874368  0.56177567  1
  Al  Al14  1  0.44434940  0.42714236  0.31169828  1
  Al  Al15  1  0.56284905  0.53434494  0.06156202  1
  Al  Al16  1  0.10698431  0.43050887  0.80901623  1
  Al  Al17  1  0.21364909  0.54811767  0.56130597  1
  Al  Al18  1  0.78295420  0.42065655  0.31785472  1
  Al  Al19  1  0.88483676  0.54063942  0.06156111  1
  Al  Al20  1  0.45144841  0.42319495  0.80685061  1
  Al  Al21  1  0.55521052  0.54305748  0.55751361  1
  Al  Al22  1  0.10429481  0.76060868  0.30495974  1
  Al  Al23  1  0.21784257  0.88333634  0.11738438  1
  Al  Al24  1  0.45353785  0.76301368  0.30438639  1
  Al  Al25  1  0.09358386  0.75997471  0.82416414  1
  Al  Al26  1  0.21599099  0.87616488  0.64205923  1
  Al  Al27  1  0.77330833  0.76540693  0.30968631  1
  Al  Al28  1  0.88054588  0.88025112  0.06598945  1
  Al  Al29  1  0.45776360  0.75719473  0.82348051  1
  Al  Al30  1  0.56256778  0.87253043  0.56561746  1
  B  B31  1  0.76855811  0.09573628  0.80149326  1
  B  B32  1  0.88724887  0.20768233  0.09821764  1
  B  B33  1  0.77370993  0.76976415  0.84503256  1
  B  B34  1  0.88135378  0.86857991  0.61316125  1
  B  B35  1  0.56574671  0.86603026  0.05917039  1
  N  N36  1  0.22681566  0.20669695  0.36818129  1
  N  N37  1  0.07507381  0.11365123  0.07307801  1
  N  N38  1  0.87028975  0.19058666  0.82100058  1
  N  N39  1  0.78269697  0.06212722  0.63896406  1
  N  N40  1  0.55563599  0.20356750  0.37138873  1
  N  N41  1  0.46180344  0.06959049  0.10958694  1
  N  N42  1  0.22172836  0.20463721  0.87103632  1
  N  N43  1  0.11857783  0.08707836  0.57794623  1
  N  N44  1  0.87883789  0.20742460  0.38798253  1
  N  N45  1  0.79330402  0.11281554  0.11846522  1
  N  N46  1  0.58139574  0.19269849  0.86192000  1
  N  N47  1  0.44557503  0.09315568  0.62851010  1
  N  N48  1  0.22089697  0.54215883  0.37264412  1
  N  N49  1  0.11036601  0.42870861  0.12129506  1
  N  N50  1  0.87502906  0.56649884  0.87014383  1
  N  N51  1  0.77574810  0.43625061  0.61994675  1
  N  N52  1  0.55428061  0.54222811  0.36694835  1
  N  N53  1  0.44661839  0.42452041  0.12084166  1
  N  N54  1  0.22697539  0.53151176  0.86934224  1
  N  N55  1  0.11020471  0.42886857  0.62206316  1
  N  N56  1  0.88723527  0.54094357  0.37026798  1
  N  N57  1  0.79435408  0.39931844  0.11991431  1
  N  N58  1  0.55788656  0.53438040  0.87599266  1
  N  N59  1  0.44478674  0.42861600  0.61811191  1
  N  N60  1  0.22133350  0.87718091  0.31057219  1
  N  N61  1  0.10917632  0.75769489  0.10859600  1
  N  N62  1  0.86178090  0.87613072  0.87390717  1
  N  N63  1  0.78861043  0.77421248  0.62513808  1
  N  N64  1  0.55427133  0.87330966  0.37789048  1
  N  N65  1  0.46443582  0.77189201  0.10748708  1
  N  N66  1  0.21989026  0.86997095  0.83709571  1
  N  N67  1  0.07599919  0.77469686  0.62852263  1
  N  N68  1  0.88555307  0.87325330  0.35103582  1
  N  N69  1  0.75187141  0.77190476  0.11740515  1
  N  N70  1  0.58200148  0.85998155  0.88787071  1
  N  N71  1  0.45209466  0.75930721  0.63017107  1
