# generated using pymatgen
data_Al31B5N36
_symmetry_space_group_name_H-M   'P 1'
_cell_length_a   9.17001823
_cell_length_b   9.15556132
_cell_length_c   10.27510970
_cell_angle_alpha   90.10546500
_cell_angle_beta   89.56089628
_cell_angle_gamma   60.17345363
_symmetry_Int_Tables_number   1
_chemical_formula_structural   Al31B5N36
_chemical_formula_sum   'Al31 B5 N36'
_cell_volume   748.35338079
_cell_formula_units_Z   1
loop_
 _symmetry_equiv_pos_site_id
 _symmetry_equiv_pos_as_xyz
  1  'x, y, z'
loop_
 _atom_site_type_symbol
 _atom_site_label
 _atom_site_symmetry_multiplicity
 _atom_site_fract_x
 _atom_site_fract_y
 _atom_site_fract_z
 _atom_site_occupancy
  Al  Al0  1  0.11572756  0.09121514  0.39860516  1
  Al  Al1  1  0.21209489  0.20843805  0.13658113  1
  Al  Al2  1  0.88819426  0.19622404  0.61566119  1
  Al  Al3  1  0.45670851  0.08226789  0.31692370  1
  Al  Al4  1  0.57209269  0.19351596  0.05829872  1
  Al  Al5  1  0.09689162  0.09307195  0.88663334  1
  Al  Al6  1  0.21286367  0.21310676  0.64628808  1
  Al  Al7  1  0.78058758  0.10497403  0.31582852  1
  Al  Al8  1  0.46041063  0.08483865  0.81452413  1
  Al  Al9  1  0.56014718  0.19785106  0.56570628  1
  Al  Al10  1  0.11031239  0.42233206  0.39153516  1
  Al  Al11  1  0.22848195  0.53867501  0.06304825  1
  Al  Al12  1  0.78174034  0.41832582  0.88096866  1
  Al  Al13  1  0.88972898  0.55435964  0.64590239  1
  Al  Al14  1  0.44506241  0.42470837  0.31464396  1
  Al  Al15  1  0.56158378  0.53545640  0.10020463  1
  Al  Al16  1  0.09856827  0.43170427  0.89311968  1
  Al  Al17  1  0.21875044  0.55072295  0.57052384  1
  Al  Al18  1  0.77733268  0.42979957  0.39956910  1
  Al  Al19  1  0.88023715  0.53869119  0.14515117  1
  Al  Al20  1  0.44789902  0.41839295  0.82011209  1
  Al  Al21  1  0.55448454  0.54193873  0.62431882  1
  Al  Al22  1  0.11174669  0.75660221  0.30915437  1
  Al  Al23  1  0.22426822  0.88408010  0.13564559  1
  Al  Al24  1  0.43957283  0.75820828  0.39067744  1
  Al  Al25  1  0.09143471  0.76290572  0.83047412  1
  Al  Al26  1  0.21670891  0.87763963  0.64978248  1
  Al  Al27  1  0.78545122  0.76279994  0.38481436  1
  Al  Al28  1  0.87933064  0.87366027  0.11525918  1
  Al  Al29  1  0.45256321  0.76660390  0.88856073  1
  Al  Al30  1  0.55681832  0.87781791  0.58417870  1
  B  B31  1  0.77154098  0.08093248  0.81027073  1
  B  B32  1  0.88860458  0.20582212  0.09462511  1
  B  B33  1  0.76835387  0.77637516  0.85490736  1
  B  B34  1  0.88584101  0.86994999  0.61758342  1
  B  B35  1  0.56151176  0.86795035  0.10176931  1
  N  N36  1  0.21994507  0.20578761  0.32220131  1
  N  N37  1  0.08054664  0.10920789  0.07691813  1
  N  N38  1  0.87631258  0.18814520  0.82035043  1
  N  N39  1  0.78107974  0.06047595  0.64494515  1
  N  N40  1  0.55732770  0.20397103  0.37933179  1
  N  N41  1  0.46622545  0.06260685  0.12165601  1
  N  N42  1  0.21255818  0.20769655  0.83475686  1
  N  N43  1  0.12044129  0.08970059  0.58389561  1
  N  N44  1  0.88577649  0.20070643  0.39655224  1
  N  N45  1  0.79306526  0.11603652  0.12270502  1
  N  N46  1  0.58248131  0.18880599  0.87143584  1
  N  N47  1  0.44248405  0.10084855  0.63092607  1
  N  N48  1  0.22563022  0.54549441  0.38345015  1
  N  N49  1  0.10248501  0.42981469  0.07926352  1
  N  N50  1  0.87492290  0.57217612  0.83357735  1
  N  N51  1  0.77798426  0.43913664  0.59204410  1
  N  N52  1  0.56140450  0.53836699  0.33459800  1
  N  N53  1  0.44503393  0.41590179  0.12568366  1
  N  N54  1  0.22534558  0.53766677  0.87705586  1
  N  N55  1  0.10690081  0.42743537  0.57988004  1
  N  N56  1  0.89076248  0.53607815  0.33069019  1
  N  N57  1  0.79835501  0.39528977  0.07495970  1
  N  N58  1  0.55322294  0.53708905  0.86766520  1
  N  N59  1  0.44325750  0.42307072  0.63337382  1
  N  N60  1  0.22507944  0.87833762  0.32187876  1
  N  N61  1  0.11762891  0.75671137  0.11779325  1
  N  N62  1  0.85736456  0.88135007  0.86731914  1
  N  N63  1  0.80033713  0.77449454  0.57832616  1
  N  N64  1  0.55405111  0.87593684  0.39244641  1
  N  N65  1  0.45540712  0.78171794  0.07913854  1
  N  N66  1  0.22541052  0.86952626  0.83556977  1
  N  N67  1  0.07625344  0.77624087  0.63516234  1
  N  N68  1  0.88296023  0.87498356  0.31466702  1
  N  N69  1  0.74318661  0.76987254  0.10420367  1
  N  N70  1  0.58716829  0.85316407  0.82988773  1
  N  N71  1  0.43204267  0.76068392  0.58177639  1
