# generated using pymatgen
data_Al31B5N36
_symmetry_space_group_name_H-M   'P 1'
_cell_length_a   9.18801007
_cell_length_b   9.23972355
_cell_length_c   10.13359159
_cell_angle_alpha   90.12634259
_cell_angle_beta   89.52987481
_cell_angle_gamma   59.78171173
_symmetry_Int_Tables_number   1
_chemical_formula_structural   Al31B5N36
_chemical_formula_sum   'Al31 B5 N36'
_cell_volume   743.34202719
_cell_formula_units_Z   1
loop_
 _symmetry_equiv_pos_site_id
 _symmetry_equiv_pos_as_xyz
  1  'x, y, z'
loop_
 _atom_site_type_symbol
 _atom_site_label
 _atom_site_symmetry_multiplicity
 _atom_site_fract_x
 _atom_site_fract_y
 _atom_site_fract_z
 _atom_site_occupancy
  Al  Al0  1  0.12004012  0.08998965  0.39680372  1
  Al  Al1  1  0.21971866  0.20145402  0.12648355  1
  Al  Al2  1  0.88626172  0.20210932  0.59238802  1
  Al  Al3  1  0.45625149  0.08452229  0.31291176  1
  Al  Al4  1  0.57500026  0.19870259  0.06122153  1
  Al  Al5  1  0.08982247  0.10133287  0.89091581  1
  Al  Al6  1  0.22172935  0.20097528  0.65072042  1
  Al  Al7  1  0.78272208  0.09575093  0.32062798  1
  Al  Al8  1  0.46846839  0.07975636  0.83050955  1
  Al  Al9  1  0.55758932  0.19772335  0.57112222  1
  Al  Al10  1  0.10829108  0.43332781  0.31797083  1
  Al  Al11  1  0.22793870  0.53413424  0.06497405  1
  Al  Al12  1  0.76971290  0.43683080  0.81411023  1
  Al  Al13  1  0.88876041  0.55020434  0.56882971  1
  Al  Al14  1  0.44399010  0.42488855  0.32165824  1
  Al  Al15  1  0.56121201  0.53320061  0.07298862  1
  Al  Al16  1  0.10053093  0.44026484  0.82559798  1
  Al  Al17  1  0.21112708  0.54806806  0.57325359  1
  Al  Al18  1  0.78312107  0.41837886  0.32748024  1
  Al  Al19  1  0.88255049  0.53688702  0.07389193  1
  Al  Al20  1  0.44837844  0.42742630  0.81544659  1
  Al  Al21  1  0.55279197  0.54466821  0.56775294  1
  Al  Al22  1  0.10832612  0.75769207  0.31313031  1
  Al  Al23  1  0.21691159  0.88377120  0.12954995  1
  Al  Al24  1  0.45060098  0.76185464  0.31667975  1
  Al  Al25  1  0.09105198  0.76124530  0.83953356  1
  Al  Al26  1  0.21422135  0.87699030  0.65329334  1
  Al  Al27  1  0.77058690  0.76130731  0.32047408  1
  Al  Al28  1  0.88443647  0.87097446  0.09266060  1
  Al  Al29  1  0.45207915  0.76062875  0.84163042  1
  Al  Al30  1  0.56129098  0.87287240  0.57392465  1
  B  B31  1  0.75697756  0.13453851  0.79935603  1
  B  B32  1  0.88664646  0.20714508  0.10719476  1
  B  B33  1  0.77863550  0.75791625  0.88342770  1
  B  B34  1  0.88078414  0.86928923  0.62805013  1
  B  B35  1  0.56488638  0.86430505  0.07155864  1
  N  N36  1  0.22205653  0.20066212  0.32102831  1
  N  N37  1  0.07630234  0.11399011  0.08066352  1
  N  N38  1  0.86826492  0.20185198  0.83214250  1
  N  N39  1  0.78266305  0.06998385  0.65117998  1
  N  N40  1  0.55668357  0.20207674  0.38224983  1
  N  N41  1  0.46961872  0.06623348  0.11511924  1
  N  N42  1  0.21906003  0.20271804  0.84716581  1
  N  N43  1  0.12247448  0.08796983  0.58431160  1
  N  N44  1  0.88250775  0.20509481  0.39705786  1
  N  N45  1  0.79585751  0.11246746  0.12654837  1
  N  N46  1  0.58560444  0.19720655  0.86950555  1
  N  N47  1  0.45297096  0.08884673  0.64175132  1
  N  N48  1  0.21974339  0.54128843  0.38472788  1
  N  N49  1  0.10634858  0.43623579  0.12584354  1
  N  N50  1  0.86987785  0.56081619  0.88373841  1
  N  N51  1  0.77508059  0.43804440  0.62796376  1
  N  N52  1  0.55345644  0.54063684  0.37718032  1
  N  N53  1  0.44838923  0.41996799  0.13151442  1
  N  N54  1  0.22870593  0.53190717  0.87954177  1
  N  N55  1  0.10668684  0.43274066  0.63562742  1
  N  N56  1  0.88745831  0.53771471  0.37944725  1
  N  N57  1  0.79387555  0.39688739  0.13156939  1
  N  N58  1  0.55445987  0.53658843  0.88732612  1
  N  N59  1  0.44381545  0.42895917  0.62789877  1
  N  N60  1  0.21884941  0.87847789  0.32380912  1
  N  N61  1  0.11916822  0.75274031  0.11975412  1
  N  N62  1  0.87476212  0.84212269  0.90343087  1
  N  N63  1  0.79154037  0.77926697  0.61134934  1
  N  N64  1  0.55035143  0.87379092  0.38736701  1
  N  N65  1  0.46008269  0.77251938  0.11696230  1
  N  N66  1  0.21375431  0.87569324  0.84696494  1
  N  N67  1  0.07465563  0.77686025  0.64142887  1
  N  N68  1  0.88371517  0.87252859  0.33128580  1
  N  N69  1  0.74751090  0.76368022  0.13077027  1
  N  N70  1  0.58321788  0.85670847  0.90370057  1
  N  N71  1  0.45107467  0.76008522  0.64168716  1
