# generated using pymatgen
data_Al31B5N36
_symmetry_space_group_name_H-M   'P 1'
_cell_length_a   9.16627046
_cell_length_b   9.14694364
_cell_length_c   10.18757195
_cell_angle_alpha   90.10874504
_cell_angle_beta   89.47300495
_cell_angle_gamma   60.01803392
_symmetry_Int_Tables_number   1
_chemical_formula_structural   Al31B5N36
_chemical_formula_sum   'Al31 B5 N36'
_cell_volume   739.80677553
_cell_formula_units_Z   1
loop_
 _symmetry_equiv_pos_site_id
 _symmetry_equiv_pos_as_xyz
  1  'x, y, z'
loop_
 _atom_site_type_symbol
 _atom_site_label
 _atom_site_symmetry_multiplicity
 _atom_site_fract_x
 _atom_site_fract_y
 _atom_site_fract_z
 _atom_site_occupancy
  Al  Al0  1  0.11536789  0.09326699  0.39701777  1
  Al  Al1  1  0.21178336  0.20604428  0.13224803  1
  Al  Al2  1  0.88760722  0.19991492  0.61448468  1
  Al  Al3  1  0.45473181  0.08228518  0.31395205  1
  Al  Al4  1  0.57441243  0.18929202  0.05667879  1
  Al  Al5  1  0.09741426  0.09519840  0.88364524  1
  Al  Al6  1  0.21348516  0.21320274  0.64515419  1
  Al  Al7  1  0.78055297  0.10526061  0.31485339  1
  Al  Al8  1  0.46136270  0.08472880  0.81420121  1
  Al  Al9  1  0.56372988  0.19310320  0.56612713  1
  Al  Al10  1  0.11156690  0.42456180  0.38911688  1
  Al  Al11  1  0.22175579  0.53830486  0.13927792  1
  Al  Al12  1  0.77987100  0.42098208  0.88018738  1
  Al  Al13  1  0.88826331  0.55414357  0.64261903  1
  Al  Al14  1  0.44365731  0.43031669  0.37929465  1
  Al  Al15  1  0.56164945  0.53322134  0.13415196  1
  Al  Al16  1  0.10355138  0.43801983  0.89224767  1
  Al  Al17  1  0.21648426  0.54388516  0.63723649  1
  Al  Al18  1  0.77629099  0.43124614  0.40015028  1
  Al  Al19  1  0.88000743  0.53780115  0.14143515  1
  Al  Al20  1  0.44703343  0.42407227  0.87152205  1
  Al  Al21  1  0.55428189  0.54279689  0.64586403  1
  Al  Al22  1  0.10226216  0.76882082  0.38798117  1
  Al  Al23  1  0.21681661  0.87793800  0.13781073  1
  Al  Al24  1  0.43940527  0.75787169  0.39163356  1
  Al  Al25  1  0.09859088  0.76593206  0.88876061  1
  Al  Al26  1  0.21509822  0.87466585  0.64610003  1
  Al  Al27  1  0.78301225  0.76198556  0.37972294  1
  Al  Al28  1  0.88360127  0.86957463  0.12779573  1
  Al  Al29  1  0.45463112  0.76453123  0.88801588  1
  Al  Al30  1  0.55637466  0.87571640  0.58438070  1
  B  B31  1  0.77537957  0.07664005  0.80275586  1
  B  B32  1  0.88703758  0.20538424  0.09362198  1
  B  B33  1  0.77263152  0.77515702  0.84673208  1
  B  B34  1  0.88763145  0.86970079  0.60891837  1
  B  B35  1  0.56061203  0.86673109  0.10098755  1
  N  N36  1  0.21883516  0.20541078  0.32002981  1
  N  N37  1  0.07879497  0.10817068  0.07724134  1
  N  N38  1  0.87702933  0.18982315  0.81827891  1
  N  N39  1  0.78475954  0.06058054  0.63975955  1
  N  N40  1  0.56020780  0.19662411  0.37624278  1
  N  N41  1  0.46413196  0.06210766  0.11802353  1
  N  N42  1  0.21390191  0.20996023  0.83627536  1
  N  N43  1  0.12076596  0.09086294  0.58343446  1
  N  N44  1  0.88510627  0.20189595  0.39382543  1
  N  N45  1  0.79284717  0.11406199  0.12296066  1
  N  N46  1  0.58778042  0.18438810  0.86715150  1
  N  N47  1  0.44292546  0.10026661  0.62975673  1
  N  N48  1  0.21949607  0.54170562  0.32864342  1
  N  N49  1  0.10537258  0.43210972  0.07798557  1
  N  N50  1  0.87622772  0.57083538  0.83297148  1
  N  N51  1  0.77528241  0.44253717  0.58836008  1
  N  N52  1  0.56013148  0.53728809  0.32188281  1
  N  N53  1  0.44365133  0.42479788  0.07754900  1
  N  N54  1  0.21956146  0.54085260  0.82379193  1
  N  N55  1  0.10931732  0.42972289  0.57658202  1
  N  N56  1  0.88975901  0.53448960  0.32847282  1
  N  N57  1  0.79324966  0.39730318  0.07385809  1
  N  N58  1  0.55636917  0.54078919  0.83189712  1
  N  N59  1  0.44561237  0.42950713  0.58580245  1
  N  N60  1  0.22070783  0.87331980  0.32502344  1
  N  N61  1  0.11165207  0.75961010  0.07502979  1
  N  N62  1  0.86393476  0.87604733  0.84836742  1
  N  N63  1  0.79935137  0.77473376  0.57464054  1
  N  N64  1  0.55248616  0.87506875  0.38876588  1
  N  N65  1  0.45571209  0.77638322  0.08031602  1
  N  N66  1  0.22450937  0.86940190  0.83285048  1
  N  N67  1  0.08014022  0.78007052  0.58186516  1
  N  N68  1  0.89059223  0.87131450  0.31659605  1
  N  N69  1  0.74297634  0.77189134  0.10780433  1
  N  N70  1  0.58884410  0.85245064  0.82923925  1
  N  N71  1  0.43411093  0.75780160  0.58036930  1
