# generated using pymatgen
data_Al31B5N36
_symmetry_space_group_name_H-M   'P 1'
_cell_length_a   9.20169863
_cell_length_b   9.24199882
_cell_length_c   10.08311399
_cell_angle_alpha   90.09112776
_cell_angle_beta   89.49844415
_cell_angle_gamma   59.75304832
_symmetry_Int_Tables_number   1
_chemical_formula_structural   Al31B5N36
_chemical_formula_sum   'Al31 B5 N36'
_cell_volume   740.70623271
_cell_formula_units_Z   1
loop_
 _symmetry_equiv_pos_site_id
 _symmetry_equiv_pos_as_xyz
  1  'x, y, z'
loop_
 _atom_site_type_symbol
 _atom_site_label
 _atom_site_symmetry_multiplicity
 _atom_site_fract_x
 _atom_site_fract_y
 _atom_site_fract_z
 _atom_site_occupancy
  Al  Al0  1  0.11852445  0.09007074  0.39586985  1
  Al  Al1  1  0.22356789  0.20329011  0.09539968  1
  Al  Al2  1  0.88449909  0.20262875  0.59358039  1
  Al  Al3  1  0.45169229  0.08701190  0.31167626  1
  Al  Al4  1  0.57571049  0.19992984  0.06222655  1
  Al  Al5  1  0.08926146  0.09807045  0.89003683  1
  Al  Al6  1  0.22352250  0.20235526  0.63463300  1
  Al  Al7  1  0.78174486  0.09606081  0.32168012  1
  Al  Al8  1  0.46786938  0.07980044  0.83342260  1
  Al  Al9  1  0.55726313  0.19819640  0.57109686  1
  Al  Al10  1  0.11023279  0.42903981  0.31684604  1
  Al  Al11  1  0.22806920  0.53555839  0.06594776  1
  Al  Al12  1  0.77068396  0.43572864  0.81527277  1
  Al  Al13  1  0.88848910  0.54990576  0.56919181  1
  Al  Al14  1  0.44371514  0.42583485  0.32233716  1
  Al  Al15  1  0.56080252  0.53524352  0.07270383  1
  Al  Al16  1  0.10271935  0.43714768  0.82822526  1
  Al  Al17  1  0.21093002  0.54790725  0.57318567  1
  Al  Al18  1  0.78307139  0.41888045  0.32796323  1
  Al  Al19  1  0.88288543  0.53707092  0.07539308  1
  Al  Al20  1  0.44869567  0.42748040  0.81605530  1
  Al  Al21  1  0.55273852  0.54516803  0.56723571  1
  Al  Al22  1  0.10796946  0.75769874  0.31425324  1
  Al  Al23  1  0.21662320  0.88479685  0.13079877  1
  Al  Al24  1  0.45143520  0.76290588  0.31557005  1
  Al  Al25  1  0.09104339  0.76036752  0.84026761  1
  Al  Al26  1  0.21271361  0.87614071  0.65237941  1
  Al  Al27  1  0.77084758  0.76213011  0.32194504  1
  Al  Al28  1  0.88364671  0.87184236  0.09254850  1
  Al  Al29  1  0.45420650  0.75928516  0.83470239  1
  Al  Al30  1  0.56140473  0.87344763  0.57357124  1
  B  B31  1  0.75685282  0.13279959  0.79971124  1
  B  B32  1  0.88670934  0.20730758  0.10804626  1
  B  B33  1  0.77878847  0.75698578  0.88277775  1
  B  B34  1  0.88005060  0.86893863  0.62767845  1
  B  B35  1  0.56554850  0.86305427  0.07158009  1
  N  N36  1  0.22287388  0.20160836  0.33321979  1
  N  N37  1  0.07511950  0.11363306  0.08128456  1
  N  N38  1  0.86838098  0.20061220  0.83126140  1
  N  N39  1  0.78171503  0.06914655  0.65084304  1
  N  N40  1  0.55589549  0.20240574  0.38184428  1
  N  N41  1  0.47007690  0.06670590  0.11383374  1
  N  N42  1  0.22260795  0.20273561  0.86796453  1
  N  N43  1  0.11992852  0.08802798  0.58686790  1
  N  N44  1  0.88134194  0.20553701  0.39783809  1
  N  N45  1  0.79564303  0.11279729  0.12716839  1
  N  N46  1  0.58571374  0.19716206  0.86990021  1
  N  N47  1  0.45189101  0.08955088  0.64413535  1
  N  N48  1  0.21919516  0.54082711  0.38438764  1
  N  N49  1  0.10782221  0.43522102  0.12516604  1
  N  N50  1  0.87111454  0.55963353  0.88425412  1
  N  N51  1  0.77441480  0.43870633  0.62838141  1
  N  N52  1  0.55334483  0.54177408  0.37701657  1
  N  N53  1  0.44851608  0.42158419  0.13134602  1
  N  N54  1  0.22913363  0.53152100  0.87969792  1
  N  N55  1  0.10681122  0.43187960  0.63808135  1
  N  N56  1  0.88824177  0.53764027  0.37919567  1
  N  N57  1  0.79350758  0.39739707  0.13136190  1
  N  N58  1  0.55463679  0.53732969  0.88629954  1
  N  N59  1  0.44344328  0.42965627  0.62774702  1
  N  N60  1  0.21953672  0.87714155  0.32540299  1
  N  N61  1  0.11803572  0.75433191  0.11954237  1
  N  N62  1  0.87375961  0.84264816  0.90261730  1
  N  N63  1  0.79086475  0.77866722  0.61250145  1
  N  N64  1  0.55034239  0.87497640  0.38723301  1
  N  N65  1  0.46077615  0.77310957  0.11935553  1
  N  N66  1  0.21533768  0.87339164  0.84619784  1
  N  N67  1  0.07369537  0.77621968  0.64099032  1
  N  N68  1  0.88394830  0.87297787  0.33402334  1
  N  N69  1  0.74793014  0.76409674  0.13130077  1
  N  N70  1  0.58352956  0.85463825  0.90295913  1
  N  N71  1  0.45043478  0.76111689  0.64070512  1
