# generated using pymatgen
data_Al31B5N36
_symmetry_space_group_name_H-M   'P 1'
_cell_length_a   9.17685304
_cell_length_b   9.17709513
_cell_length_c   9.79397688
_cell_angle_alpha   90.07297215
_cell_angle_beta   90.06282033
_cell_angle_gamma   60.03988956
_symmetry_Int_Tables_number   1
_chemical_formula_structural   Al31B5N36
_chemical_formula_sum   'Al31 B5 N36'
_cell_volume   714.59953554
_cell_formula_units_Z   1
loop_
 _symmetry_equiv_pos_site_id
 _symmetry_equiv_pos_as_xyz
  1  'x, y, z'
loop_
 _atom_site_type_symbol
 _atom_site_label
 _atom_site_symmetry_multiplicity
 _atom_site_fract_x
 _atom_site_fract_y
 _atom_site_fract_z
 _atom_site_occupancy
  Al  Al0  1  0.10544370  0.09533717  0.40574468  1
  Al  Al1  1  0.21906199  0.20192506  0.16151388  1
  Al  Al2  1  0.88669873  0.19536871  0.66462859  1
  Al  Al3  1  0.44659962  0.09025030  0.40566092  1
  Al  Al4  1  0.56328589  0.19953724  0.15705006  1
  Al  Al5  1  0.10104911  0.09402174  0.91662076  1
  Al  Al6  1  0.22144875  0.20337160  0.66244682  1
  Al  Al7  1  0.78089388  0.08801697  0.40753394  1
  Al  Al8  1  0.45691461  0.08346246  0.91730056  1
  Al  Al9  1  0.56525042  0.19462614  0.66710504  1
  Al  Al10  1  0.10795366  0.42790373  0.41258365  1
  Al  Al11  1  0.22005131  0.54102306  0.16367241  1
  Al  Al12  1  0.77767850  0.42200177  0.91535638  1
  Al  Al13  1  0.88546209  0.54872350  0.66694500  1
  Al  Al14  1  0.44494672  0.42517789  0.41299765  1
  Al  Al15  1  0.56041367  0.53596325  0.16265988  1
  Al  Al16  1  0.10628979  0.43324201  0.91329708  1
  Al  Al17  1  0.21686471  0.54145389  0.66223122  1
  Al  Al18  1  0.77990283  0.42287408  0.40630661  1
  Al  Al19  1  0.88237953  0.54113636  0.15574179  1
  Al  Al20  1  0.44765340  0.42446536  0.91282202  1
  Al  Al21  1  0.55674696  0.53849626  0.66246016  1
  Al  Al22  1  0.10178862  0.76494016  0.41595252  1
  Al  Al23  1  0.21774983  0.87559520  0.16172829  1
  Al  Al24  1  0.44636754  0.76206815  0.40514641  1
  Al  Al25  1  0.09995801  0.76584327  0.90424741  1
  Al  Al26  1  0.21811295  0.87370252  0.66177730  1
  Al  Al27  1  0.77777927  0.76482899  0.40717005  1
  Al  Al28  1  0.88218126  0.87771250  0.14683777  1
  Al  Al29  1  0.45125159  0.76234009  0.91658479  1
  Al  Al30  1  0.56509941  0.87042268  0.66469596  1
  B  B31  1  0.77560860  0.09840202  0.91560964  1
  B  B32  1  0.88789841  0.20457643  0.15817083  1
  B  B33  1  0.76314356  0.77059189  0.91608383  1
  B  B34  1  0.88018296  0.87605430  0.66528005  1
  B  B35  1  0.55387870  0.87273398  0.15973850  1
  N  N36  1  0.22108317  0.20478692  0.35319714  1
  N  N37  1  0.08379524  0.10650532  0.10986570  1
  N  N38  1  0.87461861  0.19096526  0.85599417  1
  N  N39  1  0.79027755  0.06632924  0.60402546  1
  N  N40  1  0.55780426  0.20335576  0.35034058  1
  N  N41  1  0.45481760  0.06892131  0.11032378  1
  N  N42  1  0.22252225  0.20260570  0.85791445  1
  N  N43  1  0.10645717  0.09562642  0.60001340  1
  N  N44  1  0.88522078  0.20242589  0.32892432  1
  N  N45  1  0.78784972  0.10476598  0.08553921  1
  N  N46  1  0.58018218  0.19197588  0.86403045  1
  N  N47  1  0.44567583  0.09166351  0.60230053  1
  N  N48  1  0.22009392  0.54069228  0.35767255  1
  N  N49  1  0.11051787  0.42741387  0.10444900  1
  N  N50  1  0.87297714  0.56484205  0.86357393  1
  N  N51  1  0.78163602  0.42297166  0.60327782  1
  N  N52  1  0.55539713  0.53724498  0.35372969  1
  N  N53  1  0.44331248  0.42741521  0.10455947  1
  N  N54  1  0.22342690  0.53721897  0.85268164  1
  N  N55  1  0.10760188  0.42731900  0.60575286  1
  N  N56  1  0.88575516  0.54123686  0.34985370  1
  N  N57  1  0.79027958  0.40099057  0.10837257  1
  N  N58  1  0.55575319  0.53987946  0.85590362  1
  N  N59  1  0.44621759  0.42315937  0.60688901  1
  N  N60  1  0.22022865  0.86974938  0.35451122  1
  N  N61  1  0.10988355  0.76081321  0.09709815  1
  N  N62  1  0.86521214  0.88400434  0.84998976  1
  N  N63  1  0.78977313  0.77499563  0.60404099  1
  N  N64  1  0.55915436  0.86978319  0.32910872  1
  N  N65  1  0.45544284  0.77330759  0.11090866  1
  N  N66  1  0.22522982  0.87187364  0.85516709  1
  N  N67  1  0.08244872  0.77505703  0.61432806  1
  N  N68  1  0.88763104  0.87152383  0.33909113  1
  N  N69  1  0.75271823  0.77363948  0.08657333  1
  N  N70  1  0.57963813  0.85914907  0.85620903  1
  N  N71  1  0.44683858  0.76274353  0.60074261  1
