# generated using pymatgen
data_Al31B5N36
_symmetry_space_group_name_H-M   'P 1'
_cell_length_a   9.19490701
_cell_length_b   9.23899516
_cell_length_c   10.10738515
_cell_angle_alpha   90.06993386
_cell_angle_beta   89.47081007
_cell_angle_gamma   59.77506031
_symmetry_Int_Tables_number   1
_chemical_formula_structural   Al31B5N36
_chemical_formula_sum   'Al31 B5 N36'
_cell_volume   741.86370073
_cell_formula_units_Z   1
loop_
 _symmetry_equiv_pos_site_id
 _symmetry_equiv_pos_as_xyz
  1  'x, y, z'
loop_
 _atom_site_type_symbol
 _atom_site_label
 _atom_site_symmetry_multiplicity
 _atom_site_fract_x
 _atom_site_fract_y
 _atom_site_fract_z
 _atom_site_occupancy
  Al  Al0  1  0.11974242  0.09012908  0.39605551  1
  Al  Al1  1  0.22076976  0.20155502  0.12078142  1
  Al  Al2  1  0.88576005  0.20235877  0.59283805  1
  Al  Al3  1  0.45519229  0.08537187  0.31214274  1
  Al  Al4  1  0.57524178  0.19982014  0.06180552  1
  Al  Al5  1  0.09030121  0.09920307  0.89073959  1
  Al  Al6  1  0.22215508  0.20067293  0.65098960  1
  Al  Al7  1  0.78225063  0.09603537  0.32148626  1
  Al  Al8  1  0.46874285  0.07927458  0.83295472  1
  Al  Al9  1  0.55696515  0.19826252  0.57151771  1
  Al  Al10  1  0.10891296  0.43199121  0.31712323  1
  Al  Al11  1  0.22806119  0.53506108  0.06541800  1
  Al  Al12  1  0.77075867  0.43541159  0.81490388  1
  Al  Al13  1  0.88906159  0.54961955  0.56940881  1
  Al  Al14  1  0.44389051  0.42596698  0.32202245  1
  Al  Al15  1  0.56076264  0.53510905  0.07227130  1
  Al  Al16  1  0.10114485  0.43947151  0.82749195  1
  Al  Al17  1  0.21087905  0.54749693  0.57340995  1
  Al  Al18  1  0.78284373  0.41890198  0.32771241  1
  Al  Al19  1  0.88264452  0.53713850  0.07470060  1
  Al  Al20  1  0.44861591  0.42750787  0.81572045  1
  Al  Al21  1  0.55281542  0.54513568  0.56730566  1
  Al  Al22  1  0.10792102  0.75794907  0.31405417  1
  Al  Al23  1  0.21678430  0.88384472  0.12987946  1
  Al  Al24  1  0.45135607  0.76261810  0.31518680  1
  Al  Al25  1  0.09100214  0.76089441  0.83971312  1
  Al  Al26  1  0.21246443  0.87714027  0.65198451  1
  Al  Al27  1  0.77091419  0.76183405  0.32177552  1
  Al  Al28  1  0.88362794  0.87162995  0.09208351  1
  Al  Al29  1  0.45404537  0.75933371  0.83431636  1
  Al  Al30  1  0.56124841  0.87385937  0.57373052  1
  B  B31  1  0.75718676  0.13317012  0.79949576  1
  B  B32  1  0.88650847  0.20732802  0.10753299  1
  B  B33  1  0.77841680  0.75715609  0.88293594  1
  B  B34  1  0.88017617  0.86904937  0.62756861  1
  B  B35  1  0.56529837  0.86329164  0.07159486  1
  N  N36  1  0.22199354  0.20007477  0.31981026  1
  N  N37  1  0.07582902  0.11370126  0.08068800  1
  N  N38  1  0.86892867  0.20034908  0.83167390  1
  N  N39  1  0.78223158  0.06953354  0.65082616  1
  N  N40  1  0.55585901  0.20273213  0.38216149  1
  N  N41  1  0.47030402  0.06635014  0.11376386  1
  N  N42  1  0.21987984  0.20217524  0.85151518  1
  N  N43  1  0.12194362  0.08870227  0.58465404  1
  N  N44  1  0.88215694  0.20548133  0.39726007  1
  N  N45  1  0.79567464  0.11265036  0.12704645  1
  N  N46  1  0.58582003  0.19727505  0.86990443  1
  N  N47  1  0.45286722  0.08907667  0.64338164  1
  N  N48  1  0.21948916  0.54073669  0.38452001  1
  N  N49  1  0.10680633  0.43631048  0.12481327  1
  N  N50  1  0.87027242  0.56013391  0.88420507  1
  N  N51  1  0.77459333  0.43836814  0.62831432  1
  N  N52  1  0.55333391  0.54178306  0.37714763  1
  N  N53  1  0.44846520  0.42143059  0.13140619  1
  N  N54  1  0.22904241  0.53182401  0.87972031  1
  N  N55  1  0.10677986  0.43211526  0.63701135  1
  N  N56  1  0.88810430  0.53741870  0.37946262  1
  N  N57  1  0.79355119  0.39726875  0.13135077  1
  N  N58  1  0.55458301  0.53733306  0.88625141  1
  N  N59  1  0.44349109  0.42975795  0.62777791  1
  N  N60  1  0.21939168  0.87759756  0.32467172  1
  N  N61  1  0.11794097  0.75383020  0.11976559  1
  N  N62  1  0.87388667  0.84238197  0.90269614  1
  N  N63  1  0.79105408  0.77871036  0.61202552  1
  N  N64  1  0.55012398  0.87469933  0.38739733  1
  N  N65  1  0.46085264  0.77278957  0.11943702  1
  N  N66  1  0.21506257  0.87403482  0.84602764  1
  N  N67  1  0.07390162  0.77652192  0.64086740  1
  N  N68  1  0.88377383  0.87300028  0.33413323  1
  N  N69  1  0.74786333  0.76402160  0.13138496  1
  N  N70  1  0.58323033  0.85473656  0.90326385  1
  N  N71  1  0.45054498  0.76098909  0.64074677  1
