# generated using pymatgen
data_Al31B5N36
_symmetry_space_group_name_H-M   'P 1'
_cell_length_a   9.14627754
_cell_length_b   9.16536928
_cell_length_c   10.35872458
_cell_angle_alpha   90.34807044
_cell_angle_beta   89.65991103
_cell_angle_gamma   60.00833990
_symmetry_Int_Tables_number   1
_chemical_formula_structural   Al31B5N36
_chemical_formula_sum   'Al31 B5 N36'
_cell_volume   752.03219283
_cell_formula_units_Z   1
loop_
 _symmetry_equiv_pos_site_id
 _symmetry_equiv_pos_as_xyz
  1  'x, y, z'
loop_
 _atom_site_type_symbol
 _atom_site_label
 _atom_site_symmetry_multiplicity
 _atom_site_fract_x
 _atom_site_fract_y
 _atom_site_fract_z
 _atom_site_occupancy
  Al  Al0  1  0.11698105  0.09060140  0.39941702  1
  Al  Al1  1  0.21106817  0.20897308  0.13651124  1
  Al  Al2  1  0.88801873  0.19320747  0.60664733  1
  Al  Al3  1  0.45552709  0.08250401  0.31606429  1
  Al  Al4  1  0.57205643  0.19465012  0.05933553  1
  Al  Al5  1  0.09187130  0.09523702  0.88989117  1
  Al  Al6  1  0.21030849  0.21300666  0.64738897  1
  Al  Al7  1  0.77916795  0.10266156  0.31917047  1
  Al  Al8  1  0.45794705  0.08729743  0.81528814  1
  Al  Al9  1  0.55781508  0.19704364  0.56649374  1
  Al  Al10  1  0.11026080  0.42260904  0.39244378  1
  Al  Al11  1  0.23147666  0.53871333  0.06286722  1
  Al  Al12  1  0.77255241  0.42482312  0.81530089  1
  Al  Al13  1  0.89208563  0.55633422  0.64307764  1
  Al  Al14  1  0.44485735  0.42528096  0.31673286  1
  Al  Al15  1  0.57020883  0.52669622  0.07014227  1
  Al  Al16  1  0.09692349  0.43368211  0.89350370  1
  Al  Al17  1  0.21915463  0.55041994  0.57070410  1
  Al  Al18  1  0.78233455  0.41806271  0.33986091  1
  Al  Al19  1  0.88355358  0.54408051  0.14525111  1
  Al  Al20  1  0.45048664  0.42176368  0.81656130  1
  Al  Al21  1  0.55922008  0.52957703  0.57039344  1
  Al  Al22  1  0.11292287  0.75557091  0.30859085  1
  Al  Al23  1  0.22654458  0.88263703  0.13509874  1
  Al  Al24  1  0.43511545  0.76586042  0.39641834  1
  Al  Al25  1  0.09141044  0.76299186  0.83025449  1
  Al  Al26  1  0.21912479  0.87594833  0.65269092  1
  Al  Al27  1  0.78443981  0.76513269  0.38832528  1
  Al  Al28  1  0.87959805  0.87453999  0.11774164  1
  Al  Al29  1  0.45397925  0.76634495  0.88746559  1
  Al  Al30  1  0.55593877  0.87732728  0.58871427  1
  B  B31  1  0.77203980  0.08207360  0.81339359  1
  B  B32  1  0.88771433  0.20718643  0.10657554  1
  B  B33  1  0.76914465  0.77790430  0.85216982  1
  B  B34  1  0.88574449  0.87099114  0.61787964  1
  B  B35  1  0.56187088  0.86790272  0.10160150  1
  N  N36  1  0.21706979  0.20689717  0.32124970  1
  N  N37  1  0.07934859  0.11023675  0.07893742  1
  N  N38  1  0.87462153  0.18302727  0.82415749  1
  N  N39  1  0.78059646  0.06086282  0.64169484  1
  N  N40  1  0.55508909  0.20395533  0.38018985  1
  N  N41  1  0.46527329  0.06374170  0.12230074  1
  N  N42  1  0.20770302  0.20955370  0.83445619  1
  N  N43  1  0.12192967  0.08665036  0.58261012  1
  N  N44  1  0.88268735  0.20352146  0.40168464  1
  N  N45  1  0.79287249  0.11431232  0.12676638  1
  N  N46  1  0.58001624  0.19125035  0.87249568  1
  N  N47  1  0.44078612  0.10141663  0.63298653  1
  N  N48  1  0.22477414  0.54607383  0.38400861  1
  N  N49  1  0.10422371  0.43000582  0.07816140  1
  N  N50  1  0.87640499  0.57730358  0.83071323  1
  N  N51  1  0.77694469  0.43365272  0.63101156  1
  N  N52  1  0.55735562  0.53191659  0.38234705  1
  N  N53  1  0.44903152  0.42023126  0.13010304  1
  N  N54  1  0.22757389  0.53760297  0.87809936  1
  N  N55  1  0.10811331  0.42576852  0.57783726  1
  N  N56  1  0.89123128  0.54145550  0.33142330  1
  N  N57  1  0.79525829  0.39465523  0.12984921  1
  N  N58  1  0.55932730  0.53129092  0.88664822  1
  N  N59  1  0.44495519  0.42401076  0.63257707  1
  N  N60  1  0.22565942  0.87809717  0.32071803  1
  N  N61  1  0.11797709  0.75644110  0.11923307  1
  N  N62  1  0.85641878  0.88345648  0.86510374  1
  N  N63  1  0.79972789  0.77542861  0.57813940  1
  N  N64  1  0.55257600  0.87818297  0.39369054  1
  N  N65  1  0.45839943  0.77960420  0.07966086  1
  N  N66  1  0.22538888  0.87002291  0.83732186  1
  N  N67  1  0.07696482  0.77536594  0.63640673  1
  N  N68  1  0.88371958  0.87424285  0.31666837  1
  N  N69  1  0.74420847  0.77203798  0.10420552  1
  N  N70  1  0.58635056  0.85444576  0.82896419  1
  N  N71  1  0.43404382  0.76013135  0.58554759  1
