# generated using pymatgen
data_Al31B5N36
_symmetry_space_group_name_H-M   'P 1'
_cell_length_a   9.16711798
_cell_length_b   9.19873056
_cell_length_c   9.92952094
_cell_angle_alpha   89.45131680
_cell_angle_beta   89.94277846
_cell_angle_gamma   60.21557977
_symmetry_Int_Tables_number   1
_chemical_formula_structural   Al31B5N36
_chemical_formula_sum   'Al31 B5 N36'
_cell_volume   726.66626011
_cell_formula_units_Z   1
loop_
 _symmetry_equiv_pos_site_id
 _symmetry_equiv_pos_as_xyz
  1  'x, y, z'
loop_
 _atom_site_type_symbol
 _atom_site_label
 _atom_site_symmetry_multiplicity
 _atom_site_fract_x
 _atom_site_fract_y
 _atom_site_fract_z
 _atom_site_occupancy
  Al  Al0  1  0.11015615  0.09614627  0.39757541  1
  Al  Al1  1  0.21731848  0.20380158  0.14940293  1
  Al  Al2  1  0.88834739  0.19152105  0.64587594  1
  Al  Al3  1  0.44617757  0.09035479  0.39418447  1
  Al  Al4  1  0.55902713  0.20599492  0.15118643  1
  Al  Al5  1  0.09870703  0.09094917  0.90449351  1
  Al  Al6  1  0.22411903  0.20122762  0.65092520  1
  Al  Al7  1  0.78291191  0.09261423  0.36575420  1
  Al  Al8  1  0.45078214  0.08951569  0.90584177  1
  Al  Al9  1  0.56579208  0.19335430  0.64188540  1
  Al  Al10  1  0.10932541  0.42745037  0.39691904  1
  Al  Al11  1  0.22095111  0.54003771  0.14988194  1
  Al  Al12  1  0.77944373  0.40975829  0.90297274  1
  Al  Al13  1  0.89203886  0.53632353  0.65463745  1
  Al  Al14  1  0.44413914  0.42821751  0.40181545  1
  Al  Al15  1  0.55985665  0.53688691  0.14952058  1
  Al  Al16  1  0.10710253  0.42444126  0.89898671  1
  Al  Al17  1  0.21468585  0.54069394  0.64861264  1
  Al  Al18  1  0.77989566  0.42658879  0.39466920  1
  Al  Al19  1  0.88139580  0.54171679  0.13888656  1
  Al  Al20  1  0.44544188  0.42558137  0.89748626  1
  Al  Al21  1  0.55912646  0.53691690  0.65173589  1
  Al  Al22  1  0.10813293  0.76195518  0.39349250  1
  Al  Al23  1  0.21936234  0.87890985  0.15099413  1
  Al  Al24  1  0.44842420  0.76190152  0.39500087  1
  Al  Al25  1  0.09694304  0.76561931  0.90057744  1
  Al  Al26  1  0.22024852  0.87201801  0.65012893  1
  Al  Al27  1  0.77831085  0.76262219  0.38729761  1
  Al  Al28  1  0.88353917  0.88604747  0.13232584  1
  Al  Al29  1  0.45301874  0.76081564  0.90547284  1
  Al  Al30  1  0.57241984  0.86908528  0.65486938  1
  B  B31  1  0.76976561  0.08730788  0.87019961  1
  B  B32  1  0.88467198  0.20891992  0.15677328  1
  B  B33  1  0.73839329  0.82444057  0.92854857  1
  B  B34  1  0.88898209  0.87102430  0.59498901  1
  B  B35  1  0.55090844  0.87572071  0.14960324  1
  N  N36  1  0.22299488  0.20549418  0.33896931  1
  N  N37  1  0.08386710  0.10797109  0.09628344  1
  N  N38  1  0.87047489  0.17760235  0.83891805  1
  N  N39  1  0.79440448  0.06055912  0.57805011  1
  N  N40  1  0.55079229  0.20925889  0.34301810  1
  N  N41  1  0.45436860  0.07332958  0.09779830  1
  N  N42  1  0.22703731  0.19491214  0.84389884  1
  N  N43  1  0.11027205  0.09296990  0.58926556  1
  N  N44  1  0.89450875  0.21107979  0.32422666  1
  N  N45  1  0.78649269  0.11705783  0.12510717  1
  N  N46  1  0.57803772  0.19167507  0.84143615  1
  N  N47  1  0.44752581  0.08742399  0.58823738  1
  N  N48  1  0.22244666  0.53954873  0.34124760  1
  N  N49  1  0.11021677  0.42873148  0.08930768  1
  N  N50  1  0.89116423  0.51718228  0.83966713  1
  N  N51  1  0.78040850  0.42014088  0.58699328  1
  N  N52  1  0.55484539  0.53953016  0.33957525  1
  N  N53  1  0.44212252  0.42886993  0.08758569  1
  N  N54  1  0.21698007  0.54035332  0.83803356  1
  N  N55  1  0.11203812  0.42335564  0.58749352  1
  N  N56  1  0.88681599  0.54212980  0.33244195  1
  N  N57  1  0.78819732  0.40349109  0.09592252  1
  N  N58  1  0.55563202  0.53956435  0.84288192  1
  N  N59  1  0.44470869  0.42593315  0.59366824  1
  N  N60  1  0.22297322  0.87269084  0.34236575  1
  N  N61  1  0.11448981  0.76089408  0.08941479  1
  N  N62  1  0.84931869  0.89978068  0.88772607  1
  N  N63  1  0.79582849  0.77069709  0.58511392  1
  N  N64  1  0.55725056  0.87225286  0.31628535  1
  N  N65  1  0.45462745  0.77596809  0.09775069  1
  N  N66  1  0.22336833  0.86842361  0.84181895  1
  N  N67  1  0.08293944  0.77449968  0.59116409  1
  N  N68  1  0.89245114  0.86626722  0.32617775  1
  N  N69  1  0.74505056  0.78289215  0.08080001  1
  N  N70  1  0.58176765  0.86461409  0.84842709  1
  N  N71  1  0.45119220  0.76198596  0.59089340  1
