# generated using pymatgen
data_Al31B5N36
_symmetry_space_group_name_H-M   'P 1'
_cell_length_a   9.17406711
_cell_length_b   9.23871603
_cell_length_c   10.26009766
_cell_angle_alpha   90.51141690
_cell_angle_beta   89.78143816
_cell_angle_gamma   59.81968393
_symmetry_Int_Tables_number   1
_chemical_formula_structural   Al31B5N36
_chemical_formula_sum   'Al31 B5 N36'
_cell_volume   751.66849805
_cell_formula_units_Z   1
loop_
 _symmetry_equiv_pos_site_id
 _symmetry_equiv_pos_as_xyz
  1  'x, y, z'
loop_
 _atom_site_type_symbol
 _atom_site_label
 _atom_site_symmetry_multiplicity
 _atom_site_fract_x
 _atom_site_fract_y
 _atom_site_fract_z
 _atom_site_occupancy
  Al  Al0  1  0.11599909  0.09276554  0.39823042  1
  Al  Al1  1  0.21427867  0.20547216  0.13191955  1
  Al  Al2  1  0.88546563  0.20248842  0.59137702  1
  Al  Al3  1  0.45464881  0.08595484  0.31706803  1
  Al  Al4  1  0.57531484  0.19479734  0.05927169  1
  Al  Al5  1  0.09285011  0.09758096  0.89033275  1
  Al  Al6  1  0.21662210  0.20698717  0.64943442  1
  Al  Al7  1  0.78187523  0.09613303  0.31892504  1
  Al  Al8  1  0.47208424  0.07698491  0.81784252  1
  Al  Al9  1  0.55668487  0.19949003  0.56848641  1
  Al  Al10  1  0.11101419  0.43004479  0.35066347  1
  Al  Al11  1  0.22944270  0.53553720  0.06377357  1
  Al  Al12  1  0.76897306  0.43737279  0.81446263  1
  Al  Al13  1  0.88578812  0.55240439  0.57069822  1
  Al  Al14  1  0.44485297  0.42486617  0.31825580  1
  Al  Al15  1  0.56464563  0.52702597  0.07399434  1
  Al  Al16  1  0.10484138  0.43225102  0.85295221  1
  Al  Al17  1  0.21265140  0.55122862  0.57546198  1
  Al  Al18  1  0.78208492  0.41914114  0.32458065  1
  Al  Al19  1  0.87947833  0.53816695  0.07228960  1
  Al  Al20  1  0.44997268  0.42690256  0.81535517  1
  Al  Al21  1  0.55762656  0.53283673  0.56622826  1
  Al  Al22  1  0.10826407  0.75840138  0.31117760  1
  Al  Al23  1  0.22348453  0.88270048  0.13768421  1
  Al  Al24  1  0.43305838  0.76701589  0.39275356  1
  Al  Al25  1  0.09216591  0.76058378  0.83461543  1
  Al  Al26  1  0.21790458  0.87683191  0.65221914  1
  Al  Al27  1  0.77041463  0.76242476  0.32288539  1
  Al  Al28  1  0.88674854  0.86966118  0.08820454  1
  Al  Al29  1  0.44970342  0.76873423  0.89285448  1
  Al  Al30  1  0.56349895  0.87628529  0.57575159  1
  B  B31  1  0.75751856  0.13428075  0.79938544  1
  B  B32  1  0.88817939  0.20442167  0.10577332  1
  B  B33  1  0.77570715  0.75879025  0.87173183  1
  B  B34  1  0.88211126  0.87056006  0.62656972  1
  B  B35  1  0.55860963  0.86759006  0.10433410  1
  N  N36  1  0.21883785  0.20359530  0.32145833  1
  N  N37  1  0.07884014  0.11024630  0.08016244  1
  N  N38  1  0.86925615  0.20063038  0.83421542  1
  N  N39  1  0.78132363  0.07222147  0.65097780  1
  N  N40  1  0.55574512  0.20427369  0.38115646  1
  N  N41  1  0.46876025  0.06185487  0.12090644  1
  N  N42  1  0.22134670  0.19848973  0.84129063  1
  N  N43  1  0.12024298  0.08946287  0.58330260  1
  N  N44  1  0.88031692  0.20715243  0.39641320  1
  N  N45  1  0.79604630  0.11074560  0.12577562  1
  N  N46  1  0.58542815  0.19556063  0.86903253  1
  N  N47  1  0.44786391  0.09489209  0.63403813  1
  N  N48  1  0.22317438  0.54547456  0.38607382  1
  N  N49  1  0.10823808  0.43177755  0.10390304  1
  N  N50  1  0.86891690  0.55935825  0.88362008  1
  N  N51  1  0.77445961  0.43841661  0.63059440  1
  N  N52  1  0.55663736  0.53406306  0.37573022  1
  N  N53  1  0.44938335  0.41690179  0.13050886  1
  N  N54  1  0.23114284  0.53355081  0.87843105  1
  N  N55  1  0.10880067  0.43108595  0.61761300  1
  N  N56  1  0.88318999  0.53996914  0.38011207  1
  N  N57  1  0.79532424  0.39502039  0.13168267  1
  N  N58  1  0.55492286  0.53549268  0.88858353  1
  N  N59  1  0.44489802  0.42731995  0.63029588  1
  N  N60  1  0.22088540  0.88038317  0.32365398  1
  N  N61  1  0.12216019  0.75332851  0.12162484  1
  N  N62  1  0.87780779  0.83824564  0.90320132  1
  N  N63  1  0.79424123  0.78076053  0.60578498  1
  N  N64  1  0.55241283  0.87762540  0.38700075  1
  N  N65  1  0.45669186  0.77915555  0.08694838  1
  N  N66  1  0.22205116  0.87227939  0.84000760  1
  N  N67  1  0.07518776  0.77905335  0.64186811  1
  N  N68  1  0.88445422  0.87323690  0.33123283  1
  N  N69  1  0.74345511  0.76537681  0.13274980  1
  N  N70  1  0.59171421  0.85137781  0.85640804  1
  N  N71  1  0.43536700  0.76339631  0.58383691  1
