# generated using pymatgen
data_Al31B5N36
_symmetry_space_group_name_H-M   'P 1'
_cell_length_a   9.14376564
_cell_length_b   9.13518289
_cell_length_c   10.33306785
_cell_angle_alpha   90.16524107
_cell_angle_beta   89.44542302
_cell_angle_gamma   60.07589602
_symmetry_Int_Tables_number   1
_chemical_formula_structural   Al31B5N36
_chemical_formula_sum   'Al31 B5 N36'
_cell_volume   747.99093645
_cell_formula_units_Z   1
loop_
 _symmetry_equiv_pos_site_id
 _symmetry_equiv_pos_as_xyz
  1  'x, y, z'
loop_
 _atom_site_type_symbol
 _atom_site_label
 _atom_site_symmetry_multiplicity
 _atom_site_fract_x
 _atom_site_fract_y
 _atom_site_fract_z
 _atom_site_occupancy
  Al  Al0  1  0.11654557  0.09419479  0.39873179  1
  Al  Al1  1  0.21231582  0.20623226  0.13524445  1
  Al  Al2  1  0.88756216  0.20045814  0.61525822  1
  Al  Al3  1  0.45654031  0.08161120  0.31476077  1
  Al  Al4  1  0.57349034  0.19268376  0.05677769  1
  Al  Al5  1  0.09738078  0.09432079  0.88513666  1
  Al  Al6  1  0.21406522  0.21183458  0.64699133  1
  Al  Al7  1  0.77961694  0.10735706  0.31624072  1
  Al  Al8  1  0.46261372  0.08259860  0.81349563  1
  Al  Al9  1  0.56059303  0.19843707  0.56456499  1
  Al  Al10  1  0.10985507  0.42270414  0.39177783  1
  Al  Al11  1  0.23040365  0.53495627  0.06464841  1
  Al  Al12  1  0.77735579  0.42030814  0.88256548  1
  Al  Al13  1  0.88858589  0.55460144  0.64422520  1
  Al  Al14  1  0.44065635  0.42340550  0.31465380  1
  Al  Al15  1  0.56562134  0.53856369  0.13619683  1
  Al  Al16  1  0.09907061  0.43197230  0.89081722  1
  Al  Al17  1  0.22544319  0.54205061  0.57299705  1
  Al  Al18  1  0.77461180  0.43181316  0.40145494  1
  Al  Al19  1  0.88210120  0.53733403  0.14412999  1
  Al  Al20  1  0.44781661  0.41447557  0.81688927  1
  Al  Al21  1  0.55674314  0.54659259  0.64908848  1
  Al  Al22  1  0.09925985  0.77723636  0.38924188  1
  Al  Al23  1  0.21620026  0.87966040  0.13973319  1
  Al  Al24  1  0.43924430  0.75540448  0.39235072  1
  Al  Al25  1  0.09449608  0.77153814  0.88698433  1
  Al  Al26  1  0.21391401  0.87533194  0.64767408  1
  Al  Al27  1  0.78400035  0.76131318  0.38304575  1
  Al  Al28  1  0.88409499  0.86915739  0.13328810  1
  Al  Al29  1  0.45375227  0.76314527  0.88994396  1
  Al  Al30  1  0.55472482  0.87683696  0.58079995  1
  B  B31  1  0.77417040  0.07815862  0.80254414  1
  B  B32  1  0.88739478  0.20516380  0.09474900  1
  B  B33  1  0.77169056  0.77471797  0.84509427  1
  B  B34  1  0.88579362  0.87175476  0.61257095  1
  B  B35  1  0.56135518  0.86726784  0.10158430  1
  N  N36  1  0.21997038  0.20628267  0.32027825  1
  N  N37  1  0.07943343  0.10862655  0.07729061  1
  N  N38  1  0.87692533  0.18934878  0.81885264  1
  N  N39  1  0.78122384  0.06427802  0.64101112  1
  N  N40  1  0.55712507  0.20297740  0.37860839  1
  N  N41  1  0.46533468  0.06208251  0.12067261  1
  N  N42  1  0.21465155  0.20655691  0.83432773  1
  N  N43  1  0.12114253  0.09042813  0.58291188  1
  N  N44  1  0.88623602  0.20205437  0.39422202  1
  N  N45  1  0.79267306  0.11418642  0.12524749  1
  N  N46  1  0.58538795  0.18633123  0.87081544  1
  N  N47  1  0.44448897  0.09915557  0.63055302  1
  N  N48  1  0.22673729  0.54291200  0.38427800  1
  N  N49  1  0.10292746  0.42814537  0.07769224  1
  N  N50  1  0.87526303  0.57023816  0.83140712  1
  N  N51  1  0.77461524  0.44289652  0.58754058  1
  N  N52  1  0.56258300  0.53889427  0.32170569  1
  N  N53  1  0.44607134  0.41675758  0.12645164  1
  N  N54  1  0.22815592  0.53447424  0.87563591  1
  N  N55  1  0.10701734  0.42625876  0.58015419  1
  N  N56  1  0.89043634  0.53465989  0.32921690  1
  N  N57  1  0.79300141  0.39741912  0.07369671  1
  N  N58  1  0.55565922  0.54059669  0.83523887  1
  N  N59  1  0.44694988  0.42088006  0.63155109  1
  N  N60  1  0.22111436  0.87554782  0.32428296  1
  N  N61  1  0.10750339  0.76814458  0.07518344  1
  N  N62  1  0.86294122  0.87581642  0.84300422  1
  N  N63  1  0.79845346  0.77515970  0.57520396  1
  N  N64  1  0.55210272  0.87512105  0.38998813  1
  N  N65  1  0.45487103  0.77726066  0.08014369  1
  N  N66  1  0.22438668  0.86941693  0.83157202  1
  N  N67  1  0.07642818  0.78609585  0.58461124  1
  N  N68  1  0.88908779  0.87264686  0.31820768  1
  N  N69  1  0.74395480  0.77121213  0.10936180  1
  N  N70  1  0.58780395  0.85181669  0.83234734  1
  N  N71  1  0.43234156  0.75661032  0.57880710  1
