# generated using pymatgen
data_Al31B5N36
_symmetry_space_group_name_H-M   'P 1'
_cell_length_a   9.21633304
_cell_length_b   9.20767130
_cell_length_c   9.82367829
_cell_angle_alpha   89.73823483
_cell_angle_beta   89.38933221
_cell_angle_gamma   59.96931407
_symmetry_Int_Tables_number   1
_chemical_formula_structural   Al31B5N36
_chemical_formula_sum   'Al31 B5 N36'
_cell_volume   721.69470834
_cell_formula_units_Z   1
loop_
 _symmetry_equiv_pos_site_id
 _symmetry_equiv_pos_as_xyz
  1  'x, y, z'
loop_
 _atom_site_type_symbol
 _atom_site_label
 _atom_site_symmetry_multiplicity
 _atom_site_fract_x
 _atom_site_fract_y
 _atom_site_fract_z
 _atom_site_occupancy
  Al  Al0  1  0.11002605  0.09092668  0.38306509  1
  Al  Al1  1  0.22150736  0.20452766  0.06351761  1
  Al  Al2  1  0.88461419  0.19923428  0.59752147  1
  Al  Al3  1  0.44882979  0.08819479  0.30495575  1
  Al  Al4  1  0.57070450  0.20027151  0.05486816  1
  Al  Al5  1  0.09069570  0.09711996  0.86922621  1
  Al  Al6  1  0.22902814  0.20845724  0.56460051  1
  Al  Al7  1  0.78212914  0.09283630  0.32297030  1
  Al  Al8  1  0.45427577  0.08721174  0.81854911  1
  Al  Al9  1  0.56009875  0.19747903  0.56338476  1
  Al  Al10  1  0.10987190  0.42951883  0.31121308  1
  Al  Al11  1  0.22130870  0.53853829  0.05922419  1
  Al  Al12  1  0.77562051  0.42790300  0.80840915  1
  Al  Al13  1  0.88730216  0.54891593  0.56689651  1
  Al  Al14  1  0.44441211  0.42676042  0.31151027  1
  Al  Al15  1  0.56418916  0.53279364  0.06316932  1
  Al  Al16  1  0.10710995  0.43114925  0.81128922  1
  Al  Al17  1  0.21768877  0.54410742  0.56185583  1
  Al  Al18  1  0.78273310  0.42216051  0.31872163  1
  Al  Al19  1  0.88332500  0.54425331  0.05821843  1
  Al  Al20  1  0.45227055  0.42192566  0.80955908  1
  Al  Al21  1  0.55581120  0.54171260  0.55798779  1
  Al  Al22  1  0.10293034  0.76363570  0.31672923  1
  Al  Al23  1  0.21836509  0.87494570  0.08775327  1
  Al  Al24  1  0.45045309  0.76487935  0.30349345  1
  Al  Al25  1  0.09512012  0.76355138  0.81424242  1
  Al  Al26  1  0.22052631  0.86955892  0.60886520  1
  Al  Al27  1  0.77367018  0.76700242  0.31466123  1
  Al  Al28  1  0.87842572  0.88265264  0.05432486  1
  Al  Al29  1  0.45435349  0.75844486  0.82620470  1
  Al  Al30  1  0.56063717  0.87269203  0.56948412  1
  B  B31  1  0.77455752  0.08303252  0.79564867  1
  B  B32  1  0.88966688  0.20501988  0.10188124  1
  B  B33  1  0.77531342  0.77466590  0.81084449  1
  B  B34  1  0.88139274  0.87382184  0.57271773  1
  B  B35  1  0.56801185  0.86748596  0.05369452  1
  N  N36  1  0.22682796  0.20712692  0.36547181  1
  N  N37  1  0.07450997  0.11278127  0.07822791  1
  N  N38  1  0.87153592  0.18810371  0.81545902  1
  N  N39  1  0.78293392  0.06176508  0.62950526  1
  N  N40  1  0.55533136  0.20269467  0.36937004  1
  N  N41  1  0.46143109  0.06911916  0.10685891  1
  N  N42  1  0.22101657  0.20505634  0.86986856  1
  N  N43  1  0.11751633  0.09116375  0.58413146  1
  N  N44  1  0.87994772  0.20848955  0.38741044  1
  N  N45  1  0.79484273  0.10764709  0.12380256  1
  N  N46  1  0.58307630  0.19050241  0.86036148  1
  N  N47  1  0.44515226  0.09341239  0.62753362  1
  N  N48  1  0.22141061  0.54012522  0.37058439  1
  N  N49  1  0.10791647  0.42906401  0.11899562  1
  N  N50  1  0.87647056  0.56506715  0.86462227  1
  N  N51  1  0.77464638  0.43698656  0.61807718  1
  N  N52  1  0.55441806  0.54232638  0.36410195  1
  N  N53  1  0.44484200  0.42493212  0.11815690  1
  N  N54  1  0.22462823  0.53641802  0.86771120  1
  N  N55  1  0.11042324  0.42959384  0.62067851  1
  N  N56  1  0.88678222  0.54364594  0.37115746  1
  N  N57  1  0.79515363  0.39790258  0.11806105  1
  N  N58  1  0.55864375  0.53400439  0.87454760  1
  N  N59  1  0.44591904  0.42731761  0.61712693  1
  N  N60  1  0.22273658  0.87283384  0.32925061  1
  N  N61  1  0.09851630  0.76052423  0.11903717  1
  N  N62  1  0.86213524  0.88451260  0.86175224  1
  N  N63  1  0.78596556  0.77435139  0.63934606  1
  N  N64  1  0.55509952  0.87278518  0.37858693  1
  N  N65  1  0.46526217  0.77132847  0.10596582  1
  N  N66  1  0.22161326  0.86563692  0.86445799  1
  N  N67  1  0.08332488  0.77300908  0.61882104  1
  N  N68  1  0.88402154  0.87225056  0.39854505  1
  N  N69  1  0.75450048  0.77696781  0.11834595  1
  N  N70  1  0.58326386  0.85999013  0.88172173  1
  N  N71  1  0.44949257  0.75895578  0.62995468  1
