# generated using pymatgen
data_Al31B5N36
_symmetry_space_group_name_H-M   'P 1'
_cell_length_a   9.18683077
_cell_length_b   9.21738756
_cell_length_c   10.12133353
_cell_angle_alpha   90.06187753
_cell_angle_beta   89.48023375
_cell_angle_gamma   59.73743496
_symmetry_Int_Tables_number   1
_chemical_formula_structural   Al31B5N36
_chemical_formula_sum   'Al31 B5 N36'
_cell_volume   740.21797286
_cell_formula_units_Z   1
loop_
 _symmetry_equiv_pos_site_id
 _symmetry_equiv_pos_as_xyz
  1  'x, y, z'
loop_
 _atom_site_type_symbol
 _atom_site_label
 _atom_site_symmetry_multiplicity
 _atom_site_fract_x
 _atom_site_fract_y
 _atom_site_fract_z
 _atom_site_occupancy
  Al  Al0  1  0.11363111  0.08598776  0.38893156  1
  Al  Al1  1  0.22637907  0.20381900  0.06152750  1
  Al  Al2  1  0.88472066  0.20308714  0.58638207  1
  Al  Al3  1  0.44927504  0.08929823  0.30655801  1
  Al  Al4  1  0.57374978  0.19940880  0.05361577  1
  Al  Al5  1  0.08916799  0.09772684  0.87908346  1
  Al  Al6  1  0.22899632  0.20849098  0.56526295  1
  Al  Al7  1  0.78091874  0.09632438  0.31225164  1
  Al  Al8  1  0.46173245  0.08257182  0.81713347  1
  Al  Al9  1  0.55880215  0.19900166  0.56224255  1
  Al  Al10  1  0.11172421  0.42800574  0.31257508  1
  Al  Al11  1  0.22769517  0.53269775  0.05780245  1
  Al  Al12  1  0.77130189  0.43551073  0.80672462  1
  Al  Al13  1  0.88812666  0.55102895  0.56058533  1
  Al  Al14  1  0.44413505  0.42710106  0.31311743  1
  Al  Al15  1  0.56182084  0.53409539  0.06287831  1
  Al  Al16  1  0.10763923  0.42835067  0.81160863  1
  Al  Al17  1  0.21087619  0.55064061  0.56399607  1
  Al  Al18  1  0.78211523  0.42048574  0.31876353  1
  Al  Al19  1  0.88604087  0.53492767  0.06714189  1
  Al  Al20  1  0.44841276  0.42691960  0.80731610  1
  Al  Al21  1  0.55274884  0.54631285  0.55886620  1
  Al  Al22  1  0.10763044  0.75857677  0.30394250  1
  Al  Al23  1  0.21731481  0.88386195  0.11894249  1
  Al  Al24  1  0.45239923  0.76306855  0.30522962  1
  Al  Al25  1  0.09213289  0.75757249  0.83058838  1
  Al  Al26  1  0.21291199  0.87846714  0.64611024  1
  Al  Al27  1  0.77164479  0.76324163  0.31273465  1
  Al  Al28  1  0.88373097  0.87257753  0.07950609  1
  Al  Al29  1  0.45530999  0.75909178  0.82618518  1
  Al  Al30  1  0.56135787  0.87432935  0.56467140  1
  B  B31  1  0.75635941  0.13116681  0.79212920  1
  B  B32  1  0.88723216  0.20688872  0.09925063  1
  B  B33  1  0.77922283  0.75730622  0.87312154  1
  B  B34  1  0.88009119  0.86976331  0.61942537  1
  B  B35  1  0.56497851  0.86288512  0.06366946  1
  N  N36  1  0.22733053  0.20739955  0.37122561  1
  N  N37  1  0.07558943  0.11387022  0.07334730  1
  N  N38  1  0.86739539  0.20027109  0.82394348  1
  N  N39  1  0.78135329  0.06973607  0.64285269  1
  N  N40  1  0.55603600  0.20388439  0.37303100  1
  N  N41  1  0.46391894  0.06866203  0.11125785  1
  N  N42  1  0.22548931  0.20193070  0.87236954  1
  N  N43  1  0.11831802  0.08792868  0.57932873  1
  N  N44  1  0.87913949  0.20722753  0.38859143  1
  N  N45  1  0.79507769  0.11210400  0.11808935  1
  N  N46  1  0.58387908  0.19568183  0.86093517  1
  N  N47  1  0.44655574  0.09383912  0.63048510  1
  N  N48  1  0.21999144  0.54289499  0.37558445  1
  N  N49  1  0.11258879  0.42647314  0.12356114  1
  N  N50  1  0.87459250  0.55768403  0.87565486  1
  N  N51  1  0.77444415  0.43932193  0.62035275  1
  N  N52  1  0.55298177  0.54315435  0.36888116  1
  N  N53  1  0.44865295  0.42170999  0.12256136  1
  N  N54  1  0.22823555  0.52811088  0.87138037  1
  N  N55  1  0.10896015  0.43001214  0.62493654  1
  N  N56  1  0.88781843  0.53860543  0.37059391  1
  N  N57  1  0.79353113  0.39748883  0.12286045  1
  N  N58  1  0.55491901  0.53670118  0.87746658  1
  N  N59  1  0.44349068  0.43086287  0.61944301  1
  N  N60  1  0.22007576  0.87872856  0.31207678  1
  N  N61  1  0.11706735  0.75293102  0.11044350  1
  N  N62  1  0.87356235  0.84426453  0.89196101  1
  N  N63  1  0.79027990  0.77942269  0.60563461  1
  N  N64  1  0.55093036  0.87472285  0.37831581  1
  N  N65  1  0.46243594  0.77134385  0.10993445  1
  N  N66  1  0.21621308  0.87173522  0.83924964  1
  N  N67  1  0.07407680  0.77696398  0.63349850  1
  N  N68  1  0.88482125  0.87364277  0.33077469  1
  N  N69  1  0.74939704  0.76485897  0.12214655  1
  N  N70  1  0.58289044  0.85676315  0.89437743  1
  N  N71  1  0.45080622  0.76205229  0.63305027  1
