# generated using pymatgen
data_Al31B5N36
_symmetry_space_group_name_H-M   'P 1'
_cell_length_a   9.17542210
_cell_length_b   9.23752902
_cell_length_c   10.27048687
_cell_angle_alpha   90.50296278
_cell_angle_beta   89.78444569
_cell_angle_gamma   59.81586698
_symmetry_Int_Tables_number   1
_chemical_formula_structural   Al31B5N36
_chemical_formula_sum   'Al31 B5 N36'
_cell_volume   752.41694364
_cell_formula_units_Z   1
loop_
 _symmetry_equiv_pos_site_id
 _symmetry_equiv_pos_as_xyz
  1  'x, y, z'
loop_
 _atom_site_type_symbol
 _atom_site_label
 _atom_site_symmetry_multiplicity
 _atom_site_fract_x
 _atom_site_fract_y
 _atom_site_fract_z
 _atom_site_occupancy
  Al  Al0  1  0.11604041  0.09267776  0.39805913  1
  Al  Al1  1  0.21313354  0.20700822  0.13311080  1
  Al  Al2  1  0.88568803  0.20232030  0.59122368  1
  Al  Al3  1  0.45444317  0.08622611  0.31679831  1
  Al  Al4  1  0.57534618  0.19461629  0.05916217  1
  Al  Al5  1  0.09274245  0.09736966  0.89005619  1
  Al  Al6  1  0.21559317  0.20897374  0.64959048  1
  Al  Al7  1  0.78178194  0.09627064  0.31895945  1
  Al  Al8  1  0.47212565  0.07701614  0.81734159  1
  Al  Al9  1  0.55661465  0.19947045  0.56838465  1
  Al  Al10  1  0.11365355  0.42539625  0.37572323  1
  Al  Al11  1  0.23080849  0.53644502  0.06373761  1
  Al  Al12  1  0.76910585  0.43748460  0.81436435  1
  Al  Al13  1  0.88330982  0.55373549  0.57056687  1
  Al  Al14  1  0.44464647  0.42515386  0.31812522  1
  Al  Al15  1  0.56469190  0.52695623  0.07381052  1
  Al  Al16  1  0.10688816  0.42825619  0.87610210  1
  Al  Al17  1  0.21399352  0.55258401  0.57525644  1
  Al  Al18  1  0.78223491  0.41934354  0.32441404  1
  Al  Al19  1  0.87728779  0.53923049  0.07284644  1
  Al  Al20  1  0.45012005  0.42689160  0.81510235  1
  Al  Al21  1  0.55777576  0.53274050  0.56595736  1
  Al  Al22  1  0.10814921  0.75819551  0.31099188  1
  Al  Al23  1  0.22349398  0.88285413  0.13771867  1
  Al  Al24  1  0.43307491  0.76694768  0.39266002  1
  Al  Al25  1  0.09196936  0.76014729  0.83421685  1
  Al  Al26  1  0.21796793  0.87710474  0.65230505  1
  Al  Al27  1  0.77054948  0.76238699  0.32268172  1
  Al  Al28  1  0.88662022  0.86985097  0.08795331  1
  Al  Al29  1  0.44972213  0.76870498  0.89282188  1
  Al  Al30  1  0.56303295  0.87675942  0.57559255  1
  B  B31  1  0.75748545  0.13427832  0.79940551  1
  B  B32  1  0.88828281  0.20431315  0.10567166  1
  B  B33  1  0.77566403  0.75855967  0.87147699  1
  B  B34  1  0.88195717  0.87073711  0.62664807  1
  B  B35  1  0.55833968  0.86785995  0.10426270  1
  N  N36  1  0.21772626  0.20565345  0.32043219  1
  N  N37  1  0.07897236  0.11027133  0.08001411  1
  N  N38  1  0.86918261  0.20062237  0.83417172  1
  N  N39  1  0.78133614  0.07224439  0.65097300  1
  N  N40  1  0.55555116  0.20442823  0.38115221  1
  N  N41  1  0.46839472  0.06208224  0.12100422  1
  N  N42  1  0.22031811  0.19932564  0.83916121  1
  N  N43  1  0.12044511  0.08952074  0.58320182  1
  N  N44  1  0.88034025  0.20724851  0.39639401  1
  N  N45  1  0.79602673  0.11080879  0.12574260  1
  N  N46  1  0.58537595  0.19554472  0.86901577  1
  N  N47  1  0.44758718  0.09519637  0.63405195  1
  N  N48  1  0.22423450  0.54665148  0.38519416  1
  N  N49  1  0.10955159  0.42822750  0.08686566  1
  N  N50  1  0.86792320  0.56010790  0.88267752  1
  N  N51  1  0.77450813  0.43830310  0.63073488  1
  N  N52  1  0.55684456  0.53395160  0.37570043  1
  N  N53  1  0.44958154  0.41673696  0.13049852  1
  N  N54  1  0.23160251  0.53385491  0.87703213  1
  N  N55  1  0.11162992  0.42674631  0.59682322  1
  N  N56  1  0.88208468  0.54080603  0.37871163  1
  N  N57  1  0.79529693  0.39495420  0.13169247  1
  N  N58  1  0.55502873  0.53538450  0.88861424  1
  N  N59  1  0.44526381  0.42722151  0.63036407  1
  N  N60  1  0.22089587  0.88058347  0.32339119  1
  N  N61  1  0.12190587  0.75342785  0.12169005  1
  N  N62  1  0.87777754  0.83818357  0.90326730  1
  N  N63  1  0.79397885  0.78097353  0.60616143  1
  N  N64  1  0.55220129  0.87794466  0.38696796  1
  N  N65  1  0.45673400  0.77905493  0.08687716  1
  N  N66  1  0.22202953  0.87222521  0.83991510  1
  N  N67  1  0.07504577  0.77900992  0.64200611  1
  N  N68  1  0.88433970  0.87347240  0.33124022  1
  N  N69  1  0.74327124  0.76582813  0.13270381  1
  N  N70  1  0.59141181  0.85169995  0.85648462  1
  N  N71  1  0.43535678  0.76332652  0.58371133  1
