# generated using pymatgen
data_Al31B5N36
_symmetry_space_group_name_H-M   'P 1'
_cell_length_a   9.18596654
_cell_length_b   9.24830781
_cell_length_c   10.16427505
_cell_angle_alpha   90.18985322
_cell_angle_beta   89.61656527
_cell_angle_gamma   59.79663148
_symmetry_Int_Tables_number   1
_chemical_formula_structural   Al31B5N36
_chemical_formula_sum   'Al31 B5 N36'
_cell_volume   746.23881386
_cell_formula_units_Z   1
loop_
 _symmetry_equiv_pos_site_id
 _symmetry_equiv_pos_as_xyz
  1  'x, y, z'
loop_
 _atom_site_type_symbol
 _atom_site_label
 _atom_site_symmetry_multiplicity
 _atom_site_fract_x
 _atom_site_fract_y
 _atom_site_fract_z
 _atom_site_occupancy
  Al  Al0  1  0.11816052  0.09278364  0.39755547  1
  Al  Al1  1  0.21908583  0.20202820  0.12580030  1
  Al  Al2  1  0.88652283  0.20153918  0.59308689  1
  Al  Al3  1  0.45615293  0.08456115  0.31088249  1
  Al  Al4  1  0.57524351  0.19822437  0.06021576  1
  Al  Al5  1  0.09001973  0.10104729  0.89030942  1
  Al  Al6  1  0.22102244  0.20120215  0.65083968  1
  Al  Al7  1  0.78245404  0.09546339  0.32037492  1
  Al  Al8  1  0.46890537  0.08012829  0.82848298  1
  Al  Al9  1  0.55743773  0.19681824  0.57058083  1
  Al  Al10  1  0.10802686  0.43367833  0.31769718  1
  Al  Al11  1  0.22759478  0.53482034  0.06461187  1
  Al  Al12  1  0.76863532  0.43863871  0.81378713  1
  Al  Al13  1  0.88855752  0.55035317  0.56853450  1
  Al  Al14  1  0.44393122  0.42313759  0.32039645  1
  Al  Al15  1  0.56309270  0.52953773  0.07533721  1
  Al  Al16  1  0.10062268  0.44048406  0.82524242  1
  Al  Al17  1  0.21106655  0.54832532  0.57323475  1
  Al  Al18  1  0.78409072  0.41762517  0.32625924  1
  Al  Al19  1  0.88242754  0.53727897  0.07274730  1
  Al  Al20  1  0.44838476  0.42749647  0.81520692  1
  Al  Al21  1  0.55588898  0.53656172  0.56742798  1
  Al  Al22  1  0.10806001  0.75718678  0.31259581  1
  Al  Al23  1  0.22131537  0.88281771  0.13502305  1
  Al  Al24  1  0.43933878  0.76402408  0.37068297  1
  Al  Al25  1  0.09241913  0.76116257  0.83758170  1
  Al  Al26  1  0.21865034  0.87487819  0.65186062  1
  Al  Al27  1  0.76995536  0.76087639  0.31779264  1
  Al  Al28  1  0.88581709  0.87079001  0.09222157  1
  Al  Al29  1  0.44375225  0.76656295  0.89144611  1
  Al  Al30  1  0.56293906  0.87413425  0.57271415  1
  B  B31  1  0.75689964  0.13506095  0.79926717  1
  B  B32  1  0.88761176  0.20606539  0.10678672  1
  B  B33  1  0.78026082  0.75866395  0.88156868  1
  B  B34  1  0.88145152  0.86895443  0.62840559  1
  B  B35  1  0.56527210  0.86732082  0.06969357  1
  N  N36  1  0.22162046  0.20097967  0.32010483  1
  N  N37  1  0.07738476  0.11228964  0.08040520  1
  N  N38  1  0.86824941  0.20237144  0.83200106  1
  N  N39  1  0.78244787  0.06997324  0.65129402  1
  N  N40  1  0.55645987  0.20151707  0.38190380  1
  N  N41  1  0.46944628  0.06664651  0.11425525  1
  N  N42  1  0.21918102  0.20294215  0.84700829  1
  N  N43  1  0.12157928  0.08870336  0.58450104  1
  N  N44  1  0.88201567  0.20511572  0.39703335  1
  N  N45  1  0.79592178  0.11243150  0.12642606  1
  N  N46  1  0.58575907  0.19734242  0.86920381  1
  N  N47  1  0.45234897  0.08872857  0.64134023  1
  N  N48  1  0.22005120  0.54146130  0.38473560  1
  N  N49  1  0.10602170  0.43697218  0.12590590  1
  N  N50  1  0.87018838  0.56126064  0.88341620  1
  N  N51  1  0.77566698  0.43766153  0.62845527  1
  N  N52  1  0.55667643  0.53346742  0.37534912  1
  N  N53  1  0.44813718  0.41879429  0.13112556  1
  N  N54  1  0.22880097  0.53233324  0.87956110  1
  N  N55  1  0.10664003  0.43292584  0.63555461  1
  N  N56  1  0.88706042  0.53799783  0.37922027  1
  N  N57  1  0.79527434  0.39606263  0.13124059  1
  N  N58  1  0.55478720  0.53525634  0.88678047  1
  N  N59  1  0.44371004  0.42671068  0.62845394  1
  N  N60  1  0.21871548  0.87972651  0.32432307  1
  N  N61  1  0.12118834  0.75313825  0.12057704  1
  N  N62  1  0.87758551  0.84144663  0.90371606  1
  N  N63  1  0.79212415  0.77892448  0.61176814  1
  N  N64  1  0.55322007  0.87672226  0.38509844  1
  N  N65  1  0.45407391  0.77649370  0.08925990  1
  N  N66  1  0.21686662  0.87542895  0.84220394  1
  N  N67  1  0.07490999  0.77703248  0.64128704  1
  N  N68  1  0.88368627  0.87205535  0.32990771  1
  N  N69  1  0.74618158  0.76379421  0.12952419  1
  N  N70  1  0.58731904  0.85956656  0.89933971  1
  N  N71  1  0.44172166  0.76198335  0.59920394  1
