# generated using pymatgen
data_Al31B5N36
_symmetry_space_group_name_H-M   'P 1'
_cell_length_a   9.17681593
_cell_length_b   9.17704869
_cell_length_c   9.79404433
_cell_angle_alpha   90.07264283
_cell_angle_beta   90.06286501
_cell_angle_gamma   60.04027366
_symmetry_Int_Tables_number   1
_chemical_formula_structural   Al31B5N36
_chemical_formula_sum   'Al31 B5 N36'
_cell_volume   714.60071593
_cell_formula_units_Z   1
loop_
 _symmetry_equiv_pos_site_id
 _symmetry_equiv_pos_as_xyz
  1  'x, y, z'
loop_
 _atom_site_type_symbol
 _atom_site_label
 _atom_site_symmetry_multiplicity
 _atom_site_fract_x
 _atom_site_fract_y
 _atom_site_fract_z
 _atom_site_occupancy
  Al  Al0  1  0.10557659  0.09542442  0.39777475  1
  Al  Al1  1  0.21919308  0.20201398  0.15354481  1
  Al  Al2  1  0.88683274  0.19545281  0.65665900  1
  Al  Al3  1  0.44673203  0.09033770  0.39769060  1
  Al  Al4  1  0.56341695  0.19962595  0.14908057  1
  Al  Al5  1  0.10118136  0.09410721  0.90865107  1
  Al  Al6  1  0.22158172  0.20345819  0.65447639  1
  Al  Al7  1  0.78102642  0.08810526  0.39956033  1
  Al  Al8  1  0.45704295  0.08355256  0.90933115  1
  Al  Al9  1  0.56538436  0.19471122  0.65913669  1
  Al  Al10  1  0.10808645  0.42799102  0.40461339  1
  Al  Al11  1  0.22018609  0.54110894  0.15570290  1
  Al  Al12  1  0.77781327  0.42208813  0.90738490  1
  Al  Al13  1  0.88559660  0.54880898  0.65897607  1
  Al  Al14  1  0.44508055  0.42526453  0.40502906  1
  Al  Al15  1  0.56054748  0.53605108  0.15468994  1
  Al  Al16  1  0.10642177  0.43332927  0.90532648  1
  Al  Al17  1  0.21699758  0.54154039  0.65426240  1
  Al  Al18  1  0.78003680  0.42296101  0.39833609  1
  Al  Al19  1  0.88251149  0.54122611  0.14776816  1
  Al  Al20  1  0.44778657  0.42455325  0.90485249  1
  Al  Al21  1  0.55688141  0.53858213  0.65449125  1
  Al  Al22  1  0.10192359  0.76502610  0.40797781  1
  Al  Al23  1  0.21788568  0.87568309  0.15375979  1
  Al  Al24  1  0.44650170  0.76215474  0.39717763  1
  Al  Al25  1  0.10008905  0.76592946  0.89628385  1
  Al  Al26  1  0.21824557  0.87378878  0.65380845  1
  Al  Al27  1  0.77791192  0.76491494  0.39919452  1
  Al  Al28  1  0.88231508  0.87780151  0.13886819  1
  Al  Al29  1  0.45138677  0.76242744  0.90861408  1
  Al  Al30  1  0.56523304  0.87051060  0.65672571  1
  B  B31  1  0.77573931  0.09848512  0.90764428  1
  B  B32  1  0.88802958  0.20466479  0.15019965  1
  B  B33  1  0.76327948  0.77069870  0.90811194  1
  B  B34  1  0.88031992  0.87613547  0.65728658  1
  B  B35  1  0.55401240  0.87282206  0.15176720  1
  N  N36  1  0.22121579  0.20487501  0.34522680  1
  N  N37  1  0.08392754  0.10659275  0.10189511  1
  N  N38  1  0.87475105  0.19104752  0.84802409  1
  N  N39  1  0.79041124  0.06641277  0.59605221  1
  N  N40  1  0.55793645  0.20344412  0.34236994  1
  N  N41  1  0.45494793  0.06901084  0.10235356  1
  N  N42  1  0.22265302  0.20269340  0.84994285  1
  N  N43  1  0.10659010  0.09571210  0.59204260  1
  N  N44  1  0.88535444  0.20251418  0.32095361  1
  N  N45  1  0.78798081  0.10485666  0.07757336  1
  N  N46  1  0.58031361  0.19206363  0.85606140  1
  N  N47  1  0.44580827  0.09175084  0.59432905  1
  N  N48  1  0.22022880  0.54077831  0.34970181  1
  N  N49  1  0.11065047  0.42750209  0.09647748  1
  N  N50  1  0.87311226  0.56492919  0.85560222  1
  N  N51  1  0.78176971  0.42305678  0.59530721  1
  N  N52  1  0.55553094  0.53733238  0.34575926  1
  N  N53  1  0.44344551  0.42750327  0.09658860  1
  N  N54  1  0.22355947  0.53730783  0.84471160  1
  N  N55  1  0.10773495  0.42740574  0.59778133  1
  N  N56  1  0.88588927  0.54132351  0.34188015  1
  N  N57  1  0.79041216  0.40107856  0.10040058  1
  N  N58  1  0.55588750  0.53996685  0.84793285  1
  N  N59  1  0.44635066  0.42324562  0.59891968  1
  N  N60  1  0.22036360  0.86983729  0.34654145  1
  N  N61  1  0.11001891  0.76090028  0.08913270  1
  N  N62  1  0.86533692  0.88408693  0.84204043  1
  N  N63  1  0.78990672  0.77508127  0.59606569  1
  N  N64  1  0.55928622  0.86987166  0.32113819  1
  N  N65  1  0.45557653  0.77339534  0.10293739  1
  N  N66  1  0.22536162  0.87195894  0.84719709  1
  N  N67  1  0.08257812  0.77514445  0.60635412  1
  N  N68  1  0.88776485  0.87161183  0.33112042  1
  N  N69  1  0.75284849  0.77373233  0.07860600  1
  N  N70  1  0.57977017  0.85924150  0.84823783  1
  N  N71  1  0.44697150  0.76282983  0.59277320  1
