# generated using pymatgen
data_Al31B5N36
_symmetry_space_group_name_H-M   'P 1'
_cell_length_a   9.21018746
_cell_length_b   9.18961241
_cell_length_c   9.89329911
_cell_angle_alpha   89.77560249
_cell_angle_beta   89.35374348
_cell_angle_gamma   59.91943567
_symmetry_Int_Tables_number   1
_chemical_formula_structural   Al31B5N36
_chemical_formula_sum   'Al31 B5 N36'
_cell_volume   724.52903228
_cell_formula_units_Z   1
loop_
 _symmetry_equiv_pos_site_id
 _symmetry_equiv_pos_as_xyz
  1  'x, y, z'
loop_
 _atom_site_type_symbol
 _atom_site_label
 _atom_site_symmetry_multiplicity
 _atom_site_fract_x
 _atom_site_fract_y
 _atom_site_fract_z
 _atom_site_occupancy
  Al  Al0  1  0.11191423  0.08774853  0.38789400  1
  Al  Al1  1  0.22232125  0.20487486  0.06370739  1
  Al  Al2  1  0.88603337  0.19793406  0.59803245  1
  Al  Al3  1  0.44878216  0.08890376  0.30619182  1
  Al  Al4  1  0.57006480  0.20093025  0.05560018  1
  Al  Al5  1  0.09014845  0.09474045  0.87582151  1
  Al  Al6  1  0.22931503  0.20779715  0.56511362  1
  Al  Al7  1  0.78183393  0.09295531  0.32395932  1
  Al  Al8  1  0.45412124  0.08717184  0.81900161  1
  Al  Al9  1  0.56016979  0.19787015  0.56467501  1
  Al  Al10  1  0.11015896  0.42877392  0.31239023  1
  Al  Al11  1  0.22123979  0.53924585  0.06035547  1
  Al  Al12  1  0.77587483  0.42701667  0.80903850  1
  Al  Al13  1  0.88746661  0.54845890  0.56824489  1
  Al  Al14  1  0.44459563  0.42682430  0.31253447  1
  Al  Al15  1  0.56304749  0.53409846  0.06389407  1
  Al  Al16  1  0.10731675  0.42954234  0.81194270  1
  Al  Al17  1  0.21705849  0.54536630  0.56308544  1
  Al  Al18  1  0.78358466  0.42130529  0.31991414  1
  Al  Al19  1  0.88355751  0.54392573  0.05909824  1
  Al  Al20  1  0.45174268  0.42234052  0.81034765  1
  Al  Al21  1  0.55574941  0.54211868  0.55951191  1
  Al  Al22  1  0.10165421  0.76274265  0.31949106  1
  Al  Al23  1  0.21541227  0.88111997  0.11904058  1
  Al  Al24  1  0.45399529  0.76328313  0.30650741  1
  Al  Al25  1  0.09211585  0.76087543  0.81471500  1
  Al  Al26  1  0.21871992  0.87445434  0.63852801  1
  Al  Al27  1  0.77437731  0.76678977  0.31560161  1
  Al  Al28  1  0.87840455  0.88265955  0.05544227  1
  Al  Al29  1  0.45713717  0.75728302  0.82635358  1
  Al  Al30  1  0.56123944  0.87255581  0.57043697  1
  B  B31  1  0.77418953  0.08393072  0.79739945  1
  B  B32  1  0.88811859  0.20576282  0.10272976  1
  B  B33  1  0.77463434  0.77447942  0.81306998  1
  B  B34  1  0.88289859  0.87282710  0.57640214  1
  B  B35  1  0.56735059  0.86797540  0.05578756  1
  N  N36  1  0.22707381  0.20642094  0.36708151  1
  N  N37  1  0.07439338  0.11199983  0.07698625  1
  N  N38  1  0.87206580  0.18748771  0.81785072  1
  N  N39  1  0.78281544  0.06226185  0.63177808  1
  N  N40  1  0.55527690  0.20310859  0.37140923  1
  N  N41  1  0.46130603  0.06962807  0.10891221  1
  N  N42  1  0.22101118  0.20373414  0.87179005  1
  N  N43  1  0.11909435  0.08834728  0.58114863  1
  N  N44  1  0.88104776  0.20729405  0.38782721  1
  N  N45  1  0.79411105  0.10814011  0.12512806  1
  N  N46  1  0.58246028  0.19097003  0.86208798  1
  N  N47  1  0.44517866  0.09375797  0.62912025  1
  N  N48  1  0.22174884  0.53988504  0.37257171  1
  N  N49  1  0.10801412  0.42916234  0.12103344  1
  N  N50  1  0.87654447  0.56431535  0.86636295  1
  N  N51  1  0.77529569  0.43563333  0.61972594  1
  N  N52  1  0.55487646  0.54175204  0.36640070  1
  N  N53  1  0.44456919  0.42567152  0.12020890  1
  N  N54  1  0.22434689  0.53530393  0.87003930  1
  N  N55  1  0.11078118  0.42908951  0.62238324  1
  N  N56  1  0.88699562  0.54333592  0.37312372  1
  N  N57  1  0.79474686  0.39826882  0.11975598  1
  N  N58  1  0.55865218  0.53371635  0.87649776  1
  N  N59  1  0.44536875  0.42808228  0.61909737  1
  N  N60  1  0.22187089  0.87549149  0.31632368  1
  N  N61  1  0.09812488  0.76122663  0.11987654  1
  N  N62  1  0.86099640  0.88450960  0.86386664  1
  N  N63  1  0.78596253  0.77409925  0.64144085  1
  N  N64  1  0.55575092  0.87341250  0.38015870  1
  N  N65  1  0.46448713  0.77250027  0.10761187  1
  N  N66  1  0.21974385  0.86783402  0.83952036  1
  N  N67  1  0.08157677  0.77331519  0.61977493  1
  N  N68  1  0.88384593  0.87255291  0.39938456  1
  N  N69  1  0.75443713  0.77673524  0.11987580  1
  N  N70  1  0.58297524  0.86027454  0.88395958  1
  N  N71  1  0.45232501  0.75841714  0.63017122  1
