# generated using pymatgen
data_Al31B5N36
_symmetry_space_group_name_H-M   'P 1'
_cell_length_a   9.17656122
_cell_length_b   9.16941597
_cell_length_c   10.00754688
_cell_angle_alpha   89.96357871
_cell_angle_beta   89.78283148
_cell_angle_gamma   60.17099610
_symmetry_Int_Tables_number   1
_chemical_formula_structural   Al31B5N36
_chemical_formula_sum   'Al31 B5 N36'
_cell_volume   730.50312826
_cell_formula_units_Z   1
loop_
 _symmetry_equiv_pos_site_id
 _symmetry_equiv_pos_as_xyz
  1  'x, y, z'
loop_
 _atom_site_type_symbol
 _atom_site_label
 _atom_site_symmetry_multiplicity
 _atom_site_fract_x
 _atom_site_fract_y
 _atom_site_fract_z
 _atom_site_occupancy
  Al  Al0  1  0.11230638  0.09648953  0.40012493  1
  Al  Al1  1  0.20945036  0.20776975  0.14319018  1
  Al  Al2  1  0.88597064  0.19093790  0.65017069  1
  Al  Al3  1  0.45132987  0.09089748  0.31816784  1
  Al  Al4  1  0.57072307  0.19658647  0.08439166  1
  Al  Al5  1  0.09436259  0.09106124  0.90748321  1
  Al  Al6  1  0.21539774  0.20767304  0.65704155  1
  Al  Al7  1  0.78222597  0.09508493  0.33657478  1
  Al  Al8  1  0.44941225  0.09048406  0.85966694  1
  Al  Al9  1  0.56270553  0.18830671  0.57522036  1
  Al  Al10  1  0.11094402  0.42646762  0.40102907  1
  Al  Al11  1  0.22154108  0.54013056  0.15260134  1
  Al  Al12  1  0.77685327  0.41827228  0.90508090  1
  Al  Al13  1  0.88709700  0.54867938  0.65748601  1
  Al  Al14  1  0.44158205  0.43416322  0.40025863  1
  Al  Al15  1  0.56131026  0.53500631  0.15233245  1
  Al  Al16  1  0.09990974  0.43728345  0.90374361  1
  Al  Al17  1  0.21661624  0.54103930  0.64969976  1
  Al  Al18  1  0.78145181  0.42643921  0.40131507  1
  Al  Al19  1  0.88088336  0.54082692  0.14821577  1
  Al  Al20  1  0.44339862  0.43072474  0.89772425  1
  Al  Al21  1  0.55748461  0.53807655  0.65260410  1
  Al  Al22  1  0.10602968  0.76418358  0.39612829  1
  Al  Al23  1  0.22006689  0.87684536  0.15318370  1
  Al  Al24  1  0.44866398  0.76240139  0.39710676  1
  Al  Al25  1  0.09875117  0.76652873  0.90011323  1
  Al  Al26  1  0.21956940  0.87378452  0.65018302  1
  Al  Al27  1  0.77959932  0.76318740  0.39067407  1
  Al  Al28  1  0.88487680  0.87635399  0.12836943  1
  Al  Al29  1  0.45068803  0.76160121  0.90654726  1
  Al  Al30  1  0.57108016  0.86806895  0.65759612  1
  B  B31  1  0.77257632  0.07972289  0.87225100  1
  B  B32  1  0.88905256  0.20894030  0.15932454  1
  B  B33  1  0.75684221  0.78071059  0.91747480  1
  B  B34  1  0.88836786  0.87476386  0.59881486  1
  B  B35  1  0.55867556  0.86251714  0.14620153  1
  N  N36  1  0.22171059  0.20683412  0.33554434  1
  N  N37  1  0.08165989  0.10557691  0.09768267  1
  N  N38  1  0.86939660  0.18019549  0.84264650  1
  N  N39  1  0.79769574  0.05812995  0.58961455  1
  N  N40  1  0.55562679  0.20141371  0.38213320  1
  N  N41  1  0.45488181  0.07192216  0.11732459  1
  N  N42  1  0.20667009  0.20860882  0.85161223  1
  N  N43  1  0.10865343  0.09533423  0.59021380  1
  N  N44  1  0.89807754  0.21320833  0.32550758  1
  N  N45  1  0.78737734  0.11291088  0.14048501  1
  N  N46  1  0.58372845  0.18923153  0.88923325  1
  N  N47  1  0.44445700  0.09616244  0.64585743  1
  N  N48  1  0.22193615  0.53964499  0.34205527  1
  N  N49  1  0.10667393  0.43321268  0.09119932  1
  N  N50  1  0.87206904  0.56368712  0.85113826  1
  N  N51  1  0.78219846  0.42281303  0.59453226  1
  N  N52  1  0.55856309  0.53769153  0.34074331  1
  N  N53  1  0.44134915  0.43182459  0.08965745  1
  N  N54  1  0.21879732  0.54000643  0.83811331  1
  N  N55  1  0.10779916  0.42751184  0.59172878  1
  N  N56  1  0.88913455  0.53981330  0.33863387  1
  N  N57  1  0.79066297  0.40134592  0.09648583  1
  N  N58  1  0.55615078  0.53964273  0.84237965  1
  N  N59  1  0.44315833  0.43040064  0.59229594  1
  N  N60  1  0.22396153  0.87199515  0.34308788  1
  N  N61  1  0.11667928  0.75918196  0.08835584  1
  N  N62  1  0.85613284  0.89168518  0.88795667  1
  N  N63  1  0.79257084  0.77513223  0.58481961  1
  N  N64  1  0.56516240  0.85888366  0.31390617  1
  N  N65  1  0.45493176  0.77236530  0.09734938  1
  N  N66  1  0.22382344  0.86996874  0.84132494  1
  N  N67  1  0.08389509  0.77403033  0.59196484  1
  N  N68  1  0.89409657  0.86278423  0.32389062  1
  N  N69  1  0.74753078  0.77167440  0.08056412  1
  N  N70  1  0.58219771  0.85567242  0.84949973  1
  N  N71  1  0.45033519  0.76314938  0.58974760  1
