# generated using pymatgen
data_Al31B5N36
_symmetry_space_group_name_H-M   'P 1'
_cell_length_a   9.20845083
_cell_length_b   9.21111046
_cell_length_c   9.80166580
_cell_angle_alpha   89.44543573
_cell_angle_beta   89.28061965
_cell_angle_gamma   59.73941189
_symmetry_Int_Tables_number   1
_chemical_formula_structural   Al31B5N36
_chemical_formula_sum   'Al31 B5 N36'
_cell_volume   718.03429522
_cell_formula_units_Z   1
loop_
 _symmetry_equiv_pos_site_id
 _symmetry_equiv_pos_as_xyz
  1  'x, y, z'
loop_
 _atom_site_type_symbol
 _atom_site_label
 _atom_site_symmetry_multiplicity
 _atom_site_fract_x
 _atom_site_fract_y
 _atom_site_fract_z
 _atom_site_occupancy
  Al  Al0  1  0.10431045  0.09769244  0.29566195  1
  Al  Al1  1  0.22220740  0.20324996  0.04710383  1
  Al  Al2  1  0.88573353  0.19853848  0.55947149  1
  Al  Al3  1  0.44886606  0.08784131  0.29045434  1
  Al  Al4  1  0.57351814  0.19703048  0.04007393  1
  Al  Al5  1  0.10651875  0.09913664  0.80582997  1
  Al  Al6  1  0.22102551  0.20313808  0.54744781  1
  Al  Al7  1  0.78223967  0.09307069  0.29870597  1
  Al  Al8  1  0.45320641  0.08485692  0.80222489  1
  Al  Al9  1  0.55666158  0.19807593  0.54786654  1
  Al  Al10  1  0.10925638  0.42891785  0.29640382  1
  Al  Al11  1  0.22192194  0.54123865  0.04458546  1
  Al  Al12  1  0.78062871  0.43022843  0.80580894  1
  Al  Al13  1  0.88652556  0.54399385  0.55404723  1
  Al  Al14  1  0.44531737  0.42575819  0.29509012  1
  Al  Al15  1  0.56332857  0.53655007  0.04795626  1
  Al  Al16  1  0.10854675  0.43363817  0.79684861  1
  Al  Al17  1  0.21673874  0.54186341  0.54648409  1
  Al  Al18  1  0.78173279  0.42264675  0.29613106  1
  Al  Al19  1  0.88228742  0.54707001  0.04363102  1
  Al  Al20  1  0.45352869  0.42220368  0.79408762  1
  Al  Al21  1  0.55638652  0.53913490  0.54601694  1
  Al  Al22  1  0.10436942  0.76437095  0.30347809  1
  Al  Al23  1  0.21846054  0.87913538  0.04805743  1
  Al  Al24  1  0.44739705  0.76481661  0.29219607  1
  Al  Al25  1  0.09850229  0.76909399  0.79250172  1
  Al  Al26  1  0.21685739  0.87402591  0.54817489  1
  Al  Al27  1  0.77384239  0.76600337  0.30038563  1
  Al  Al28  1  0.87919501  0.88394178  0.03999106  1
  Al  Al29  1  0.44910289  0.76042475  0.80440316  1
  Al  Al30  1  0.55968992  0.87106322  0.55326920  1
  B  B31  1  0.75637540  0.05723457  0.77701483  1
  B  B32  1  0.89432152  0.21025633  0.04103533  1
  B  B33  1  0.77670910  0.76630404  0.79629317  1
  B  B34  1  0.88695319  0.86821639  0.55534768  1
  B  B35  1  0.56576140  0.86946623  0.04117709  1
  N  N36  1  0.22342024  0.20301810  0.35169130  1
  N  N37  1  0.08907451  0.10790304  0.10243253  1
  N  N38  1  0.89613189  0.21743459  0.88356605  1
  N  N39  1  0.78435818  0.06393305  0.62220087  1
  N  N40  1  0.55662870  0.20157295  0.35439461  1
  N  N41  1  0.46248781  0.06939936  0.09236313  1
  N  N42  1  0.22770167  0.20718354  0.85642287  1
  N  N43  1  0.10814859  0.09441415  0.61235409  1
  N  N44  1  0.88598336  0.20422260  0.36778224  1
  N  N45  1  0.79517554  0.10561399  0.10362250  1
  N  N46  1  0.58757937  0.18426181  0.84208649  1
  N  N47  1  0.44221885  0.09241053  0.61024804  1
  N  N48  1  0.22160466  0.53861596  0.35454624  1
  N  N49  1  0.10889431  0.43070386  0.10319835  1
  N  N50  1  0.87617848  0.57332747  0.84861349  1
  N  N51  1  0.77737173  0.42564382  0.61227608  1
  N  N52  1  0.55516112  0.53986496  0.35118959  1
  N  N53  1  0.44691787  0.42351805  0.10100888  1
  N  N54  1  0.22430530  0.54145132  0.85156660  1
  N  N55  1  0.11071902  0.42623269  0.60537671  1
  N  N56  1  0.88550891  0.54158282  0.35847591  1
  N  N57  1  0.79253777  0.40756379  0.10169571  1
  N  N58  1  0.55606168  0.53722550  0.85813958  1
  N  N59  1  0.44482520  0.42579350  0.60231515  1
  N  N60  1  0.22223061  0.87229878  0.35332881  1
  N  N61  1  0.10357413  0.76503601  0.10683809  1
  N  N62  1  0.86089065  0.88235067  0.84451658  1
  N  N63  1  0.78568771  0.77212475  0.62276249  1
  N  N64  1  0.55481350  0.87185727  0.36285962  1
  N  N65  1  0.45870954  0.77528126  0.09565462  1
  N  N66  1  0.21930134  0.87157348  0.85628411  1
  N  N67  1  0.08360783  0.77362006  0.59928167  1
  N  N68  1  0.88282408  0.87375828  0.38366139  1
  N  N69  1  0.75487356  0.77809792  0.10392501  1
  N  N70  1  0.58108063  0.85826557  0.86627409  1
  N  N71  1  0.44290935  0.76098946  0.61008624  1
