# generated using pymatgen
data_Al31B5N36
_symmetry_space_group_name_H-M   'P 1'
_cell_length_a   9.16877782
_cell_length_b   9.15339597
_cell_length_c   10.23740863
_cell_angle_alpha   90.11015350
_cell_angle_beta   89.46876860
_cell_angle_gamma   60.05305003
_symmetry_Int_Tables_number   1
_chemical_formula_structural   Al31B5N36
_chemical_formula_sum   'Al31 B5 N36'
_cell_volume   744.41514560
_cell_formula_units_Z   1
loop_
 _symmetry_equiv_pos_site_id
 _symmetry_equiv_pos_as_xyz
  1  'x, y, z'
loop_
 _atom_site_type_symbol
 _atom_site_label
 _atom_site_symmetry_multiplicity
 _atom_site_fract_x
 _atom_site_fract_y
 _atom_site_fract_z
 _atom_site_occupancy
  Al  Al0  1  0.11612764  0.09390032  0.39776380  1
  Al  Al1  1  0.21293421  0.20528797  0.13403503  1
  Al  Al2  1  0.88710133  0.20016247  0.61432605  1
  Al  Al3  1  0.45605679  0.08152376  0.31522948  1
  Al  Al4  1  0.57394696  0.19235555  0.05651916  1
  Al  Al5  1  0.09670660  0.09490420  0.88469956  1
  Al  Al6  1  0.21388495  0.21122297  0.64668806  1
  Al  Al7  1  0.78107897  0.10554967  0.31644236  1
  Al  Al8  1  0.46157738  0.08339238  0.81421829  1
  Al  Al9  1  0.56083681  0.19789185  0.56391866  1
  Al  Al10  1  0.11196337  0.42374495  0.39206405  1
  Al  Al11  1  0.22464638  0.53774027  0.08992918  1
  Al  Al12  1  0.77777561  0.42067437  0.88203167  1
  Al  Al13  1  0.88731923  0.55469632  0.64421340  1
  Al  Al14  1  0.44330041  0.42251976  0.31746493  1
  Al  Al15  1  0.56629757  0.53864048  0.13509123  1
  Al  Al16  1  0.10030295  0.43466353  0.88858882  1
  Al  Al17  1  0.21934431  0.54405911  0.60321141  1
  Al  Al18  1  0.77566752  0.43158443  0.40069909  1
  Al  Al19  1  0.88150360  0.53762889  0.14346980  1
  Al  Al20  1  0.44965404  0.41422903  0.81767268  1
  Al  Al21  1  0.55739369  0.54633748  0.64810967  1
  Al  Al22  1  0.10167826  0.77231009  0.39007003  1
  Al  Al23  1  0.21668198  0.87958282  0.13944381  1
  Al  Al24  1  0.43944633  0.75568880  0.39221947  1
  Al  Al25  1  0.09567878  0.76926510  0.88486697  1
  Al  Al26  1  0.21440546  0.87580593  0.64750692  1
  Al  Al27  1  0.78433894  0.76113691  0.38180673  1
  Al  Al28  1  0.88326496  0.87009863  0.13107164  1
  Al  Al29  1  0.45342712  0.76390994  0.88922974  1
  Al  Al30  1  0.55552570  0.87661554  0.58267397  1
  B  B31  1  0.77388629  0.07785591  0.80260379  1
  B  B32  1  0.88758789  0.20510777  0.09472550  1
  B  B33  1  0.77106931  0.77515390  0.84601259  1
  B  B34  1  0.88542050  0.87168170  0.61288046  1
  B  B35  1  0.56126322  0.86756081  0.10134560  1
  N  N36  1  0.21995479  0.20594969  0.32049277  1
  N  N37  1  0.07921258  0.10861446  0.07793134  1
  N  N38  1  0.87620928  0.18970507  0.81893783  1
  N  N39  1  0.78147515  0.06344781  0.64037891  1
  N  N40  1  0.55870178  0.20105724  0.37722481  1
  N  N41  1  0.46533790  0.06218562  0.11935784  1
  N  N42  1  0.21435022  0.20704007  0.83577714  1
  N  N43  1  0.12050235  0.09062944  0.58329347  1
  N  N44  1  0.88599545  0.20210090  0.39429464  1
  N  N45  1  0.79328685  0.11390648  0.12400574  1
  N  N46  1  0.58517027  0.18617808  0.87015819  1
  N  N47  1  0.44350237  0.10006468  0.62963130  1
  N  N48  1  0.22367057  0.54270732  0.36908382  1
  N  N49  1  0.10371475  0.42886639  0.07622787  1
  N  N50  1  0.87375539  0.57096509  0.83273978  1
  N  N51  1  0.77516113  0.44271086  0.58798539  1
  N  N52  1  0.56319846  0.53888282  0.32206692  1
  N  N53  1  0.44867921  0.41633413  0.12334974  1
  N  N54  1  0.22069949  0.53912054  0.84787550  1
  N  N55  1  0.10644017  0.42658094  0.58077265  1
  N  N56  1  0.89132155  0.53402051  0.32932063  1
  N  N57  1  0.79411264  0.39713130  0.07427265  1
  N  N58  1  0.55550805  0.54096065  0.83651318  1
  N  N59  1  0.45136469  0.41927420  0.62853752  1
  N  N60  1  0.22087497  0.87470874  0.32505468  1
  N  N61  1  0.10857173  0.76655081  0.07357077  1
  N  N62  1  0.86198277  0.87659908  0.84505664  1
  N  N63  1  0.79890127  0.77498529  0.57563000  1
  N  N64  1  0.55288931  0.87430745  0.38947612  1
  N  N65  1  0.45513062  0.77780472  0.08060224  1
  N  N66  1  0.22410021  0.87028747  0.83262499  1
  N  N67  1  0.07676946  0.78531906  0.58590075  1
  N  N68  1  0.89050329  0.87183716  0.31790515  1
  N  N69  1  0.74372732  0.77146427  0.10866282  1
  N  N70  1  0.58746781  0.85233558  0.83080500  1
  N  N71  1  0.43274067  0.75736556  0.57995820  1
