# generated using pymatgen
data_Al31B5N36
_symmetry_space_group_name_H-M   'P 1'
_cell_length_a   9.16893626
_cell_length_b   9.14970525
_cell_length_c   10.23032922
_cell_angle_alpha   90.10669465
_cell_angle_beta   89.46157646
_cell_angle_gamma   60.04825171
_symmetry_Int_Tables_number   1
_chemical_formula_structural   Al31B5N36
_chemical_formula_sum   'Al31 B5 N36'
_cell_volume   743.57649460
_cell_formula_units_Z   1
loop_
 _symmetry_equiv_pos_site_id
 _symmetry_equiv_pos_as_xyz
  1  'x, y, z'
loop_
 _atom_site_type_symbol
 _atom_site_label
 _atom_site_symmetry_multiplicity
 _atom_site_fract_x
 _atom_site_fract_y
 _atom_site_fract_z
 _atom_site_occupancy
  Al  Al0  1  0.11604888  0.09382997  0.39757160  1
  Al  Al1  1  0.21304049  0.20528527  0.13362357  1
  Al  Al2  1  0.88703245  0.20011894  0.61424392  1
  Al  Al3  1  0.45586474  0.08148776  0.31508435  1
  Al  Al4  1  0.57366574  0.19279151  0.05639129  1
  Al  Al5  1  0.09668708  0.09503156  0.88448508  1
  Al  Al6  1  0.21384667  0.21165516  0.64618998  1
  Al  Al7  1  0.78141604  0.10516853  0.31641583  1
  Al  Al8  1  0.46143795  0.08337430  0.81417512  1
  Al  Al9  1  0.56066214  0.19814054  0.56392276  1
  Al  Al10  1  0.11265047  0.42446935  0.39160776  1
  Al  Al11  1  0.21963779  0.54024279  0.11845273  1
  Al  Al12  1  0.77811696  0.42074729  0.88190397  1
  Al  Al13  1  0.88748693  0.55446970  0.64374876  1
  Al  Al14  1  0.44610742  0.42103419  0.31784034  1
  Al  Al15  1  0.56618410  0.53844917  0.13453349  1
  Al  Al16  1  0.10163325  0.43624581  0.88926738  1
  Al  Al17  1  0.21522372  0.54531315  0.62718084  1
  Al  Al18  1  0.77594735  0.43156412  0.40063342  1
  Al  Al19  1  0.88142817  0.53753799  0.14316019  1
  Al  Al20  1  0.45086030  0.41376347  0.81831906  1
  Al  Al21  1  0.55737880  0.54624393  0.64768156  1
  Al  Al22  1  0.10247627  0.77038489  0.39019051  1
  Al  Al23  1  0.21672960  0.87928068  0.13913426  1
  Al  Al24  1  0.43942358  0.75592099  0.39221048  1
  Al  Al25  1  0.09672091  0.76741803  0.88563526  1
  Al  Al26  1  0.21453196  0.87569082  0.64718110  1
  Al  Al27  1  0.78431844  0.76112008  0.38149127  1
  Al  Al28  1  0.88318128  0.87028957  0.13054705  1
  Al  Al29  1  0.45335408  0.76405641  0.88921392  1
  Al  Al30  1  0.55560732  0.87663766  0.58273599  1
  B  B31  1  0.77425431  0.07752556  0.80250746  1
  B  B32  1  0.88762115  0.20507288  0.09463753  1
  B  B33  1  0.77120818  0.77506669  0.84600313  1
  B  B34  1  0.88563575  0.87135451  0.61230113  1
  B  B35  1  0.56122923  0.86760153  0.10129932  1
  N  N36  1  0.21981409  0.20589117  0.32039174  1
  N  N37  1  0.07926605  0.10850581  0.07783968  1
  N  N38  1  0.87612682  0.18974096  0.81885945  1
  N  N39  1  0.78189404  0.06300432  0.64020487  1
  N  N40  1  0.55891568  0.20054927  0.37729925  1
  N  N41  1  0.46533287  0.06221282  0.11920796  1
  N  N42  1  0.21409071  0.20787421  0.83579938  1
  N  N43  1  0.12042592  0.09080924  0.58330897  1
  N  N44  1  0.88589628  0.20208675  0.39435010  1
  N  N45  1  0.79347959  0.11375055  0.12383629  1
  N  N46  1  0.58520286  0.18593026  0.86998446  1
  N  N47  1  0.44345014  0.10015364  0.62958959  1
  N  N48  1  0.21951570  0.54383880  0.34670500  1
  N  N49  1  0.10479553  0.42987821  0.07553199  1
  N  N50  1  0.87408828  0.57077621  0.83274533  1
  N  N51  1  0.77545877  0.44265015  0.58801671  1
  N  N52  1  0.56338584  0.53900283  0.32218965  1
  N  N53  1  0.44969831  0.41609851  0.12148264  1
  N  N54  1  0.21697480  0.54136412  0.83061426  1
  N  N55  1  0.10782539  0.42781841  0.57901621  1
  N  N56  1  0.89130951  0.53387486  0.32922235  1
  N  N57  1  0.79442626  0.39708576  0.07421273  1
  N  N58  1  0.55551315  0.54101273  0.83657463  1
  N  N59  1  0.45170149  0.41952320  0.62683652  1
  N  N60  1  0.22080344  0.87438228  0.32513199  1
  N  N61  1  0.10974951  0.76404770  0.07274217  1
  N  N62  1  0.86231961  0.87645819  0.84521770  1
  N  N63  1  0.79890086  0.77493980  0.57555407  1
  N  N64  1  0.55296046  0.87432166  0.38940870  1
  N  N65  1  0.45519151  0.77786091  0.08058210  1
  N  N66  1  0.22399201  0.87013325  0.83267977  1
  N  N67  1  0.07801516  0.78341202  0.58453459  1
  N  N68  1  0.89067509  0.87177101  0.31783395  1
  N  N69  1  0.74371363  0.77147305  0.10854675  1
  N  N70  1  0.58757706  0.85226864  0.83072566  1
  N  N71  1  0.43294363  0.75759700  0.58002199  1
