# generated using pymatgen
data_Al31B5N36
_symmetry_space_group_name_H-M   'P 1'
_cell_length_a   9.17155956
_cell_length_b   9.23299998
_cell_length_c   10.29082771
_cell_angle_alpha   90.49287984
_cell_angle_beta   89.78304662
_cell_angle_gamma   59.81659267
_symmetry_Int_Tables_number   1
_chemical_formula_structural   Al31B5N36
_chemical_formula_sum   'Al31 B5 N36'
_cell_volume   753.22749905
_cell_formula_units_Z   1
loop_
 _symmetry_equiv_pos_site_id
 _symmetry_equiv_pos_as_xyz
  1  'x, y, z'
loop_
 _atom_site_type_symbol
 _atom_site_label
 _atom_site_symmetry_multiplicity
 _atom_site_fract_x
 _atom_site_fract_y
 _atom_site_fract_z
 _atom_site_occupancy
  Al  Al0  1  0.11617325  0.09263773  0.39785585  1
  Al  Al1  1  0.21225805  0.20791576  0.13461681  1
  Al  Al2  1  0.88581933  0.20213313  0.59091871  1
  Al  Al3  1  0.45412233  0.08653596  0.31673777  1
  Al  Al4  1  0.57528152  0.19446146  0.05902260  1
  Al  Al5  1  0.09271031  0.09735306  0.88980641  1
  Al  Al6  1  0.21490163  0.21012561  0.64943583  1
  Al  Al7  1  0.78165490  0.09645442  0.31895830  1
  Al  Al8  1  0.47193837  0.07713734  0.81684422  1
  Al  Al9  1  0.55667461  0.19945456  0.56819775  1
  Al  Al10  1  0.11542006  0.42264064  0.38754028  1
  Al  Al11  1  0.23159754  0.53696232  0.06368611  1
  Al  Al12  1  0.76935444  0.43753587  0.81444117  1
  Al  Al13  1  0.88170989  0.55457138  0.56995940  1
  Al  Al14  1  0.44434442  0.42545164  0.31809860  1
  Al  Al15  1  0.56476954  0.52683397  0.07359776  1
  Al  Al16  1  0.10802422  0.42597329  0.88568555  1
  Al  Al17  1  0.21497272  0.55358180  0.57466504  1
  Al  Al18  1  0.78261152  0.41956311  0.32439116  1
  Al  Al19  1  0.87598328  0.53998533  0.07326604  1
  Al  Al20  1  0.45006153  0.42686948  0.81505046  1
  Al  Al21  1  0.55800735  0.53259955  0.56568045  1
  Al  Al22  1  0.10808927  0.75785443  0.31090637  1
  Al  Al23  1  0.22347767  0.88297329  0.13783518  1
  Al  Al24  1  0.43306014  0.76688038  0.39259125  1
  Al  Al25  1  0.09189789  0.75958381  0.83403877  1
  Al  Al26  1  0.21805199  0.87730293  0.65248171  1
  Al  Al27  1  0.77083707  0.76217155  0.32258697  1
  Al  Al28  1  0.88649399  0.87008971  0.08762891  1
  Al  Al29  1  0.44972087  0.76868486  0.89290548  1
  Al  Al30  1  0.56261563  0.87717174  0.57525723  1
  B  B31  1  0.75745755  0.13422260  0.79948703  1
  B  B32  1  0.88835383  0.20427609  0.10559484  1
  B  B33  1  0.77571265  0.75831859  0.87152211  1
  B  B34  1  0.88180073  0.87087794  0.62684592  1
  B  B35  1  0.55802334  0.86817350  0.10432640  1
  N  N36  1  0.21700308  0.20702307  0.32034440  1
  N  N37  1  0.07912021  0.11038377  0.07978833  1
  N  N38  1  0.86911957  0.20056044  0.83418805  1
  N  N39  1  0.78135274  0.07224776  0.65103384  1
  N  N40  1  0.55539168  0.20460010  0.38124681  1
  N  N41  1  0.46794925  0.06236608  0.12121477  1
  N  N42  1  0.21918212  0.20041951  0.83749721  1
  N  N43  1  0.12059807  0.08954768  0.58296033  1
  N  N44  1  0.88032701  0.20733886  0.39644720  1
  N  N45  1  0.79598482  0.11086245  0.12573041  1
  N  N46  1  0.58528065  0.19547057  0.86900437  1
  N  N47  1  0.44731316  0.09553813  0.63399216  1
  N  N48  1  0.22471288  0.54713762  0.38500731  1
  N  N49  1  0.11022123  0.42646229  0.08065780  1
  N  N50  1  0.86791884  0.56019853  0.88267090  1
  N  N51  1  0.77476675  0.43817505  0.63101438  1
  N  N52  1  0.55713407  0.53378913  0.37578514  1
  N  N53  1  0.44971905  0.41660745  0.13057285  1
  N  N54  1  0.23155887  0.53347562  0.87663280  1
  N  N55  1  0.11348206  0.42394604  0.58552587  1
  N  N56  1  0.88221641  0.54097169  0.37819299  1
  N  N57  1  0.79531654  0.39496117  0.13180921  1
  N  N58  1  0.55511005  0.53523425  0.88870146  1
  N  N59  1  0.44543698  0.42718262  0.63057302  1
  N  N60  1  0.22092274  0.88069024  0.32304894  1
  N  N61  1  0.12164531  0.75347772  0.12182538  1
  N  N62  1  0.87769584  0.83830156  0.90335002  1
  N  N63  1  0.79381818  0.78099041  0.60661474  1
  N  N64  1  0.55215023  0.87814700  0.38698573  1
  N  N65  1  0.45675543  0.77896295  0.08672792  1
  N  N66  1  0.22202054  0.87213759  0.83973960  1
  N  N67  1  0.07500334  0.77873549  0.64229837  1
  N  N68  1  0.88423533  0.87371793  0.33137634  1
  N  N69  1  0.74312344  0.76629915  0.13274843  1
  N  N70  1  0.59123050  0.85189117  0.85650453  1
  N  N71  1  0.43528931  0.76328002  0.58346380  1
