# generated using pymatgen
data_Al31B5N36
_symmetry_space_group_name_H-M   'P 1'
_cell_length_a   9.16675567
_cell_length_b   9.20508239
_cell_length_c   9.99197802
_cell_angle_alpha   89.48461807
_cell_angle_beta   89.74015697
_cell_angle_gamma   60.23515535
_symmetry_Int_Tables_number   1
_chemical_formula_structural   Al31B5N36
_chemical_formula_sum   'Al31 B5 N36'
_cell_volume   731.86687782
_cell_formula_units_Z   1
loop_
 _symmetry_equiv_pos_site_id
 _symmetry_equiv_pos_as_xyz
  1  'x, y, z'
loop_
 _atom_site_type_symbol
 _atom_site_label
 _atom_site_symmetry_multiplicity
 _atom_site_fract_x
 _atom_site_fract_y
 _atom_site_fract_z
 _atom_site_occupancy
  Al  Al0  1  0.10932880  0.09646205  0.40009796  1
  Al  Al1  1  0.21695361  0.20435741  0.15033532  1
  Al  Al2  1  0.88716899  0.18968849  0.65019789  1
  Al  Al3  1  0.44368157  0.08759849  0.38849059  1
  Al  Al4  1  0.56733700  0.20110457  0.09506271  1
  Al  Al5  1  0.09758614  0.09107007  0.90532442  1
  Al  Al6  1  0.22355738  0.20135543  0.65129120  1
  Al  Al7  1  0.78070642  0.09689616  0.33353644  1
  Al  Al8  1  0.44716727  0.08635676  0.90468793  1
  Al  Al9  1  0.56847010  0.19214232  0.57654639  1
  Al  Al10  1  0.10881274  0.42813442  0.39864858  1
  Al  Al11  1  0.22077583  0.54008005  0.15135923  1
  Al  Al12  1  0.77911438  0.41188741  0.90324905  1
  Al  Al13  1  0.89117619  0.53763974  0.65556216  1
  Al  Al14  1  0.44047921  0.43605639  0.39924056  1
  Al  Al15  1  0.56060546  0.53747916  0.15110897  1
  Al  Al16  1  0.10569141  0.42623761  0.89976890  1
  Al  Al17  1  0.21526521  0.54009691  0.64951736  1
  Al  Al18  1  0.78025410  0.42688752  0.39773813  1
  Al  Al19  1  0.88184076  0.54086261  0.14152411  1
  Al  Al20  1  0.44220814  0.43134048  0.89728607  1
  Al  Al21  1  0.55877286  0.53698349  0.65234029  1
  Al  Al22  1  0.10566730  0.76409063  0.39588160  1
  Al  Al23  1  0.21954326  0.87844367  0.15221477  1
  Al  Al24  1  0.44799518  0.76271416  0.39657441  1
  Al  Al25  1  0.09754640  0.76576741  0.90082713  1
  Al  Al26  1  0.22004467  0.87187749  0.65048014  1
  Al  Al27  1  0.77819561  0.76351268  0.38890112  1
  Al  Al28  1  0.88619591  0.87919945  0.13084731  1
  Al  Al29  1  0.45273454  0.76078202  0.90570943  1
  Al  Al30  1  0.57248868  0.87009131  0.65503849  1
  B  B31  1  0.76866886  0.08656665  0.87233767  1
  B  B32  1  0.88956635  0.21120859  0.15801002  1
  B  B33  1  0.74041131  0.81997045  0.92802925  1
  B  B34  1  0.88958850  0.87082392  0.59914567  1
  B  B35  1  0.55047490  0.87391749  0.14939233  1
  N  N36  1  0.22122677  0.20684483  0.33833699  1
  N  N37  1  0.08368992  0.10801999  0.09669556  1
  N  N38  1  0.86910084  0.17876875  0.84288264  1
  N  N39  1  0.79945471  0.05404706  0.59456282  1
  N  N40  1  0.55664766  0.20697777  0.37784022  1
  N  N41  1  0.45208951  0.07050106  0.09885789  1
  N  N42  1  0.22401198  0.19667830  0.84385055  1
  N  N43  1  0.10899304  0.09325034  0.59048635  1
  N  N44  1  0.89709253  0.21432674  0.32364064  1
  N  N45  1  0.78863738  0.11393357  0.13829973  1
  N  N46  1  0.57977956  0.19182229  0.88697021  1
  N  N47  1  0.44393305  0.08442437  0.58652658  1
  N  N48  1  0.22030003  0.54137502  0.34096613  1
  N  N49  1  0.11039185  0.42874894  0.08943051  1
  N  N50  1  0.88871360  0.52333174  0.84104549  1
  N  N51  1  0.78096129  0.41878804  0.58911769  1
  N  N52  1  0.55634302  0.54095076  0.33952936  1
  N  N53  1  0.44071374  0.43397621  0.08969091  1
  N  N54  1  0.21620056  0.54100332  0.83827511  1
  N  N55  1  0.11174434  0.42339797  0.58838460  1
  N  N56  1  0.88671974  0.54246308  0.33377599  1
  N  N57  1  0.78923835  0.40249376  0.09583172  1
  N  N58  1  0.55595242  0.54041740  0.84251290  1
  N  N59  1  0.44283159  0.42985407  0.59354768  1
  N  N60  1  0.22252167  0.87318739  0.34283268  1
  N  N61  1  0.11610717  0.75995262  0.08882871  1
  N  N62  1  0.85057782  0.89886734  0.89175272  1
  N  N63  1  0.79579055  0.76962928  0.58497324  1
  N  N64  1  0.55795444  0.87048311  0.31481929  1
  N  N65  1  0.45454224  0.77502336  0.09746736  1
  N  N66  1  0.22341042  0.86901011  0.84200788  1
  N  N67  1  0.08485238  0.77225942  0.59186108  1
  N  N68  1  0.89252758  0.86529683  0.32493438  1
  N  N69  1  0.74485809  0.78035179  0.08049483  1
  N  N70  1  0.58214606  0.86393337  0.84801966  1
  N  N71  1  0.45142840  0.76158967  0.59113471  1
