# generated using pymatgen
data_Al31B5N36
_symmetry_space_group_name_H-M   'P 1'
_cell_length_a   9.20422307
_cell_length_b   9.20418732
_cell_length_c   9.82675714
_cell_angle_alpha   89.72346612
_cell_angle_beta   89.38563382
_cell_angle_gamma   59.98557159
_symmetry_Int_Tables_number   1
_chemical_formula_structural   Al31B5N36
_chemical_formula_sum   'Al31 B5 N36'
_cell_volume   720.81734346
_cell_formula_units_Z   1
loop_
 _symmetry_equiv_pos_site_id
 _symmetry_equiv_pos_as_xyz
  1  'x, y, z'
loop_
 _atom_site_type_symbol
 _atom_site_label
 _atom_site_symmetry_multiplicity
 _atom_site_fract_x
 _atom_site_fract_y
 _atom_site_fract_z
 _atom_site_occupancy
  Al  Al0  1  0.10705167  0.09604693  0.38116769  1
  Al  Al1  1  0.22038226  0.20411080  0.06350817  1
  Al  Al2  1  0.88454989  0.19904662  0.59848334  1
  Al  Al3  1  0.44922999  0.08789050  0.30493076  1
  Al  Al4  1  0.57104186  0.20010687  0.05485697  1
  Al  Al5  1  0.09445630  0.09615980  0.85501010  1
  Al  Al6  1  0.22861949  0.20790776  0.56617366  1
  Al  Al7  1  0.78177360  0.09255717  0.32276009  1
  Al  Al8  1  0.45471747  0.08698781  0.81871745  1
  Al  Al9  1  0.56031812  0.19713640  0.56367688  1
  Al  Al10  1  0.10974855  0.42969167  0.31100695  1
  Al  Al11  1  0.22133104  0.53978734  0.05985552  1
  Al  Al12  1  0.77505170  0.42846815  0.80923696  1
  Al  Al13  1  0.88719710  0.54883084  0.56719552  1
  Al  Al14  1  0.44459396  0.42615960  0.31148239  1
  Al  Al15  1  0.56339375  0.53364006  0.06365558  1
  Al  Al16  1  0.10684213  0.43281552  0.81173736  1
  Al  Al17  1  0.21763081  0.54324592  0.56212171  1
  Al  Al18  1  0.78221064  0.42257766  0.31821067  1
  Al  Al19  1  0.88313571  0.54426299  0.05818082  1
  Al  Al20  1  0.45202242  0.42237486  0.80992328  1
  Al  Al21  1  0.55620647  0.54115908  0.55835135  1
  Al  Al22  1  0.10359958  0.76347877  0.31877729  1
  Al  Al23  1  0.21904664  0.87368078  0.06807757  1
  Al  Al24  1  0.44831235  0.76522267  0.30567375  1
  Al  Al25  1  0.09729204  0.76626692  0.80982820  1
  Al  Al26  1  0.22329787  0.86440685  0.57054483  1
  Al  Al27  1  0.77336831  0.76686884  0.31474226  1
  Al  Al28  1  0.87995938  0.88247966  0.05487462  1
  Al  Al29  1  0.45163487  0.75962419  0.82179257  1
  Al  Al30  1  0.56032492  0.87231003  0.56979810  1
  B  B31  1  0.77470294  0.08295048  0.79627661  1
  B  B32  1  0.89159620  0.20371014  0.10221311  1
  B  B33  1  0.77600128  0.77383244  0.81131942  1
  B  B34  1  0.88202908  0.87326802  0.57294499  1
  B  B35  1  0.56674726  0.86891789  0.05432149  1
  N  N36  1  0.22699883  0.20709595  0.36598266  1
  N  N37  1  0.07681953  0.11086608  0.08484383  1
  N  N38  1  0.87053189  0.18872913  0.81709480  1
  N  N39  1  0.78315540  0.06152339  0.62995133  1
  N  N40  1  0.55522160  0.20249545  0.36963857  1
  N  N41  1  0.46134505  0.06920085  0.10691527  1
  N  N42  1  0.22082441  0.20608909  0.87001513  1
  N  N43  1  0.11713611  0.09149855  0.59092707  1
  N  N44  1  0.87876950  0.20902688  0.38810085  1
  N  N45  1  0.79504861  0.10738997  0.12402072  1
  N  N46  1  0.58296693  0.19061090  0.86060185  1
  N  N47  1  0.44541618  0.09307463  0.62784374  1
  N  N48  1  0.22162889  0.53918279  0.37067294  1
  N  N49  1  0.10796120  0.42969693  0.11881745  1
  N  N50  1  0.87614703  0.56562088  0.86483603  1
  N  N51  1  0.77467153  0.43681555  0.61881528  1
  N  N52  1  0.55448525  0.54174244  0.36416219  1
  N  N53  1  0.44505958  0.42451800  0.11822373  1
  N  N54  1  0.22381627  0.53895476  0.86802565  1
  N  N55  1  0.11032008  0.42941001  0.62122302  1
  N  N56  1  0.88673009  0.54342452  0.37139657  1
  N  N57  1  0.79528609  0.39792347  0.11793713  1
  N  N58  1  0.55749914  0.53582694  0.87481683  1
  N  N59  1  0.44604137  0.42682593  0.61745370  1
  N  N60  1  0.22583223  0.86601890  0.36506938  1
  N  N61  1  0.10184494  0.76286412  0.12321812  1
  N  N62  1  0.86369470  0.88385489  0.86201226  1
  N  N63  1  0.78588647  0.77410226  0.63972752  1
  N  N64  1  0.55477486  0.87276699  0.37866778  1
  N  N65  1  0.46039934  0.77341482  0.10961020  1
  N  N66  1  0.22222749  0.86542070  0.87254416  1
  N  N67  1  0.08391322  0.77308208  0.61714087  1
  N  N68  1  0.88352994  0.87228549  0.39826668  1
  N  N69  1  0.75439661  0.77695442  0.11842549  1
  N  N70  1  0.58201941  0.85975029  0.88225540  1
  N  N71  1  0.44646722  0.75973915  0.62818379  1
