# generated using pymatgen
data_Al31B5N36
_symmetry_space_group_name_H-M   'P 1'
_cell_length_a   9.18914870
_cell_length_b   9.17270673
_cell_length_c   10.03867175
_cell_angle_alpha   89.79891083
_cell_angle_beta   89.43952558
_cell_angle_gamma   59.86060774
_symmetry_Int_Tables_number   1
_chemical_formula_structural   Al31B5N36
_chemical_formula_sum   'Al31 B5 N36'
_cell_volume   731.72281088
_cell_formula_units_Z   1
loop_
 _symmetry_equiv_pos_site_id
 _symmetry_equiv_pos_as_xyz
  1  'x, y, z'
loop_
 _atom_site_type_symbol
 _atom_site_label
 _atom_site_symmetry_multiplicity
 _atom_site_fract_x
 _atom_site_fract_y
 _atom_site_fract_z
 _atom_site_occupancy
  Al  Al0  1  0.11153348  0.08622139  0.38708057  1
  Al  Al1  1  0.22380655  0.20543762  0.06124031  1
  Al  Al2  1  0.88543159  0.19791866  0.59338519  1
  Al  Al3  1  0.44896859  0.08907388  0.30549246  1
  Al  Al4  1  0.56988976  0.20124352  0.05368830  1
  Al  Al5  1  0.08972112  0.09613037  0.87697429  1
  Al  Al6  1  0.22914028  0.20752278  0.56264488  1
  Al  Al7  1  0.78144711  0.09431932  0.31502651  1
  Al  Al8  1  0.45493794  0.08669434  0.81629429  1
  Al  Al9  1  0.56083789  0.19667584  0.56199746  1
  Al  Al10  1  0.11043566  0.42903864  0.31117821  1
  Al  Al11  1  0.22532084  0.53561547  0.05698706  1
  Al  Al12  1  0.77503196  0.42848963  0.80696543  1
  Al  Al13  1  0.88801871  0.54860728  0.56355606  1
  Al  Al14  1  0.44438711  0.42717696  0.31167554  1
  Al  Al15  1  0.56302757  0.53428755  0.06172810  1
  Al  Al16  1  0.10703807  0.43024570  0.80917757  1
  Al  Al17  1  0.21408961  0.54773545  0.56130117  1
  Al  Al18  1  0.78308941  0.42087193  0.31814282  1
  Al  Al19  1  0.88461129  0.54145442  0.05990054  1
  Al  Al20  1  0.45183970  0.42272620  0.80721562  1
  Al  Al21  1  0.55525295  0.54280881  0.55753457  1
  Al  Al22  1  0.10357647  0.76102178  0.30566815  1
  Al  Al23  1  0.21784920  0.88310314  0.11713762  1
  Al  Al24  1  0.45374081  0.76309937  0.30449446  1
  Al  Al25  1  0.09390009  0.76024988  0.82413171  1
  Al  Al26  1  0.21620327  0.87605386  0.64178524  1
  Al  Al27  1  0.77350613  0.76557481  0.30900611  1
  Al  Al28  1  0.87979432  0.88090173  0.06328385  1
  Al  Al29  1  0.45782586  0.75715292  0.82380062  1
  Al  Al30  1  0.56200878  0.87258872  0.56691267  1
  B  B31  1  0.77026668  0.09169630  0.80261229  1
  B  B32  1  0.88735828  0.20762525  0.09858478  1
  B  B33  1  0.77344665  0.77087767  0.83225084  1
  B  B34  1  0.88190949  0.86939671  0.61362943  1
  B  B35  1  0.56663851  0.86587451  0.05735303  1
  N  N36  1  0.22680249  0.20661051  0.36783844  1
  N  N37  1  0.07503096  0.11358941  0.07344524  1
  N  N38  1  0.87074291  0.18969211  0.82033683  1
  N  N39  1  0.78276371  0.06162315  0.63795930  1
  N  N40  1  0.55559986  0.20355721  0.37126633  1
  N  N41  1  0.46178652  0.06958811  0.10939301  1
  N  N42  1  0.22159933  0.20461521  0.87103953  1
  N  N43  1  0.11863177  0.08713511  0.57812853  1
  N  N44  1  0.87891655  0.20742990  0.38795708  1
  N  N45  1  0.79338701  0.11242046  0.11896290  1
  N  N46  1  0.58138060  0.19229408  0.86208368  1
  N  N47  1  0.44542205  0.09337663  0.62839715  1
  N  N48  1  0.22096225  0.54215931  0.37246576  1
  N  N49  1  0.10980354  0.42905264  0.12129270  1
  N  N50  1  0.87580210  0.56558995  0.86869828  1
  N  N51  1  0.77547676  0.43608763  0.61988389  1
  N  N52  1  0.55436802  0.54221969  0.36675509  1
  N  N53  1  0.44636837  0.42478704  0.12073090  1
  N  N54  1  0.22680738  0.53181432  0.86926711  1
  N  N55  1  0.11034691  0.42893815  0.62178976  1
  N  N56  1  0.88683771  0.54194916  0.37151630  1
  N  N57  1  0.79455207  0.39943866  0.11982477  1
  N  N58  1  0.55813379  0.53412162  0.87593173  1
  N  N59  1  0.44482699  0.42849067  0.61809073  1
  N  N60  1  0.22146887  0.87686924  0.31082975  1
  N  N61  1  0.10773863  0.75840958  0.10881675  1
  N  N62  1  0.86104001  0.88021085  0.87140256  1
  N  N63  1  0.78724795  0.77383572  0.63685363  1
  N  N64  1  0.55522751  0.87290304  0.37874023  1
  N  N65  1  0.46469654  0.77197217  0.10715036  1
  N  N66  1  0.22012332  0.86980653  0.83725259  1
  N  N67  1  0.07597571  0.77454476  0.62801415  1
  N  N68  1  0.88523615  0.87279194  0.35587316  1
  N  N69  1  0.75234182  0.77250370  0.11674305  1
  N  N70  1  0.58203147  0.86012189  0.88622054  1
  N  N71  1  0.45191197  0.75902506  0.62998693  1
