# generated using pymatgen
data_Al31B5N36
_symmetry_space_group_name_H-M   'P 1'
_cell_length_a   9.13534547
_cell_length_b   9.11109445
_cell_length_c   10.29143296
_cell_angle_alpha   90.15413480
_cell_angle_beta   89.49932586
_cell_angle_gamma   60.17178228
_symmetry_Int_Tables_number   1
_chemical_formula_structural   Al31B5N36
_chemical_formula_sum   'Al31 B5 N36'
_cell_volume   743.05386439
_cell_formula_units_Z   1
loop_
 _symmetry_equiv_pos_site_id
 _symmetry_equiv_pos_as_xyz
  1  'x, y, z'
loop_
 _atom_site_type_symbol
 _atom_site_label
 _atom_site_symmetry_multiplicity
 _atom_site_fract_x
 _atom_site_fract_y
 _atom_site_fract_z
 _atom_site_occupancy
  Al  Al0  1  0.11392319  0.09505334  0.40518520  1
  Al  Al1  1  0.20853498  0.20638479  0.14619912  1
  Al  Al2  1  0.88685191  0.19377889  0.63710595  1
  Al  Al3  1  0.45347916  0.08357928  0.32324516  1
  Al  Al4  1  0.56993238  0.18841726  0.07693072  1
  Al  Al5  1  0.09904758  0.09221824  0.89807831  1
  Al  Al6  1  0.21306896  0.21195292  0.65478881  1
  Al  Al7  1  0.78100364  0.10396000  0.32864669  1
  Al  Al8  1  0.46122073  0.08681696  0.82463173  1
  Al  Al9  1  0.56591434  0.18970217  0.56779540  1
  Al  Al10  1  0.11126362  0.42575251  0.40042460  1
  Al  Al11  1  0.22086266  0.53835169  0.15252045  1
  Al  Al12  1  0.77742710  0.42253319  0.89500698  1
  Al  Al13  1  0.88789286  0.55230256  0.65293123  1
  Al  Al14  1  0.44108434  0.43501336  0.39782232  1
  Al  Al15  1  0.56126585  0.53341341  0.14917009  1
  Al  Al16  1  0.10331352  0.43792807  0.90331643  1
  Al  Al17  1  0.21831994  0.54170663  0.64810866  1
  Al  Al18  1  0.77772823  0.43020517  0.40866316  1
  Al  Al19  1  0.87959707  0.53766248  0.15398993  1
  Al  Al20  1  0.44449904  0.42952188  0.89896892  1
  Al  Al21  1  0.55389061  0.53855993  0.65570639  1
  Al  Al22  1  0.10472103  0.76759729  0.39739921  1
  Al  Al23  1  0.21727057  0.87720570  0.14973899  1
  Al  Al24  1  0.44002885  0.75884591  0.40328760  1
  Al  Al25  1  0.09988437  0.76523963  0.90031555  1
  Al  Al26  1  0.21568634  0.87284436  0.65463124  1
  Al  Al27  1  0.78315630  0.76282258  0.39136751  1
  Al  Al28  1  0.88384220  0.86906652  0.14002027  1
  Al  Al29  1  0.45454022  0.76364401  0.89800214  1
  Al  Al30  1  0.55776495  0.87656695  0.59320031  1
  B  B31  1  0.77514310  0.07888341  0.85799078  1
  B  B32  1  0.88579630  0.20498223  0.11388572  1
  B  B33  1  0.76951953  0.77846356  0.86121909  1
  B  B34  1  0.88809500  0.87390931  0.60146536  1
  B  B35  1  0.55946907  0.86533552  0.11142334  1
  N  N36  1  0.21934297  0.20705652  0.33125771  1
  N  N37  1  0.07836016  0.10692175  0.08781024  1
  N  N38  1  0.87270911  0.18131360  0.83595005  1
  N  N39  1  0.79364230  0.05726407  0.60459836  1
  N  N40  1  0.55611381  0.20166570  0.37992838  1
  N  N41  1  0.46067764  0.06073670  0.13039254  1
  N  N42  1  0.21071011  0.21034320  0.84470276  1
  N  N43  1  0.11630114  0.09150119  0.59202326  1
  N  N44  1  0.89276143  0.20971770  0.37016786  1
  N  N45  1  0.79017670  0.11213796  0.13411004  1
  N  N46  1  0.58637215  0.18548010  0.88779230  1
  N  N47  1  0.44467058  0.10128227  0.64246156  1
  N  N48  1  0.22059188  0.54130004  0.33817635  1
  N  N49  1  0.10528141  0.43138221  0.08817697  1
  N  N50  1  0.87547569  0.57300320  0.84347564  1
  N  N51  1  0.77777647  0.43283482  0.59892655  1
  N  N52  1  0.55868768  0.53912926  0.33391794  1
  N  N53  1  0.44154565  0.42776433  0.08632932  1
  N  N54  1  0.22250830  0.53890646  0.83465867  1
  N  N55  1  0.10943334  0.42847457  0.58713588  1
  N  N56  1  0.88945888  0.53726352  0.33928537  1
  N  N57  1  0.79161235  0.39744897  0.08523039  1
  N  N58  1  0.55600603  0.53864754  0.84079634  1
  N  N59  1  0.44399411  0.43034472  0.58635245  1
  N  N60  1  0.22284032  0.87320153  0.33518221  1
  N  N61  1  0.11231350  0.75844081  0.08524300  1
  N  N62  1  0.85935731  0.88526266  0.86983810  1
  N  N63  1  0.80025365  0.77124895  0.58425108  1
  N  N64  1  0.55190225  0.87816192  0.40049318  1
  N  N65  1  0.45536600  0.77405313  0.08960311  1
  N  N66  1  0.22482222  0.86872521  0.84128499  1
  N  N67  1  0.08530318  0.77452798  0.58920296  1
  N  N68  1  0.89287359  0.86925378  0.32593091  1
  N  N69  1  0.74218814  0.77157622  0.11794727  1
  N  N70  1  0.58736916  0.85500444  0.84347202  1
  N  N71  1  0.43713945  0.75633508  0.59150753  1
