# generated using pymatgen
data_Al31B5N36
_symmetry_space_group_name_H-M   'P 1'
_cell_length_a   9.15108167
_cell_length_b   9.13184831
_cell_length_c   10.22587865
_cell_angle_alpha   90.20834726
_cell_angle_beta   89.44829693
_cell_angle_gamma   60.01472507
_symmetry_Int_Tables_number   1
_chemical_formula_structural   Al31B5N36
_chemical_formula_sum   'Al31 B5 N36'
_cell_volume   740.09251305
_cell_formula_units_Z   1
loop_
 _symmetry_equiv_pos_site_id
 _symmetry_equiv_pos_as_xyz
  1  'x, y, z'
loop_
 _atom_site_type_symbol
 _atom_site_label
 _atom_site_symmetry_multiplicity
 _atom_site_fract_x
 _atom_site_fract_y
 _atom_site_fract_z
 _atom_site_occupancy
  Al  Al0  1  0.11516275  0.09301566  0.40631055  1
  Al  Al1  1  0.21143196  0.20562996  0.14183260  1
  Al  Al2  1  0.88751481  0.20010415  0.62340837  1
  Al  Al3  1  0.45421297  0.08258695  0.32328854  1
  Al  Al4  1  0.57610902  0.18500349  0.06609651  1
  Al  Al5  1  0.09746487  0.09537946  0.89290732  1
  Al  Al6  1  0.21284054  0.21361785  0.65469805  1
  Al  Al7  1  0.77956915  0.10571602  0.32423369  1
  Al  Al8  1  0.46137628  0.08667757  0.82312216  1
  Al  Al9  1  0.56457540  0.19159469  0.57421783  1
  Al  Al10  1  0.11144775  0.42465704  0.39839416  1
  Al  Al11  1  0.22296929  0.53704234  0.15017978  1
  Al  Al12  1  0.77915174  0.42149681  0.88882644  1
  Al  Al13  1  0.88727353  0.55428636  0.65178682  1
  Al  Al14  1  0.44202313  0.43247780  0.39792139  1
  Al  Al15  1  0.56163058  0.53176967  0.14541364  1
  Al  Al16  1  0.10391496  0.43836451  0.90141651  1
  Al  Al17  1  0.21712012  0.54321290  0.64748683  1
  Al  Al18  1  0.77531342  0.43137341  0.40954096  1
  Al  Al19  1  0.88022604  0.53715787  0.15079974  1
  Al  Al20  1  0.44551523  0.42789412  0.89394025  1
  Al  Al21  1  0.55212856  0.54173956  0.65547662  1
  Al  Al22  1  0.10250746  0.76810561  0.39739708  1
  Al  Al23  1  0.21725220  0.87720444  0.14702712  1
  Al  Al24  1  0.43914737  0.75753986  0.40088183  1
  Al  Al25  1  0.09877472  0.76569369  0.89784193  1
  Al  Al26  1  0.21466433  0.87473750  0.65547179  1
  Al  Al27  1  0.78264577  0.76206867  0.38977527  1
  Al  Al28  1  0.88505048  0.86790115  0.13852366  1
  Al  Al29  1  0.45494545  0.76457190  0.89674830  1
  Al  Al30  1  0.55532909  0.87592913  0.59365472  1
  B  B31  1  0.77482111  0.07859195  0.81247640  1
  B  B32  1  0.88703240  0.20489078  0.10264646  1
  B  B33  1  0.77253568  0.77590156  0.85532995  1
  B  B34  1  0.88742601  0.86970611  0.61880660  1
  B  B35  1  0.56094403  0.86534508  0.11029259  1
  N  N36  1  0.21798520  0.20542256  0.32884041  1
  N  N37  1  0.07893074  0.10750885  0.08603390  1
  N  N38  1  0.87721402  0.19009072  0.82733151  1
  N  N39  1  0.78428986  0.06136406  0.64933149  1
  N  N40  1  0.55936984  0.19707998  0.38534244  1
  N  N41  1  0.46388034  0.06107169  0.12785289  1
  N  N42  1  0.21347304  0.21038507  0.84504759  1
  N  N43  1  0.12089530  0.09069899  0.59216483  1
  N  N44  1  0.88472481  0.20170058  0.40344730  1
  N  N45  1  0.79318937  0.11314375  0.13296536  1
  N  N46  1  0.58761410  0.18595736  0.87772298  1
  N  N47  1  0.44271352  0.10106694  0.63948731  1
  N  N48  1  0.22090067  0.54055716  0.33788085  1
  N  N49  1  0.10612813  0.43159522  0.08707311  1
  N  N50  1  0.87625038  0.57112187  0.84175088  1
  N  N51  1  0.77366781  0.44272964  0.59760469  1
  N  N52  1  0.55883564  0.53613726  0.33161661  1
  N  N53  1  0.44360538  0.42471540  0.08328261  1
  N  N54  1  0.22228565  0.53957168  0.83323432  1
  N  N55  1  0.10888931  0.43000780  0.58571860  1
  N  N56  1  0.88924373  0.53440053  0.33757767  1
  N  N57  1  0.79268699  0.39697699  0.08279424  1
  N  N58  1  0.55512158  0.54029109  0.84043002  1
  N  N59  1  0.44342687  0.43184473  0.58705527  1
  N  N60  1  0.22058331  0.87301684  0.33379783  1
  N  N61  1  0.11273985  0.75801299  0.08403800  1
  N  N62  1  0.86429236  0.87636009  0.85650539  1
  N  N63  1  0.79853261  0.77506842  0.58389909  1
  N  N64  1  0.55171341  0.87545622  0.39845500  1
  N  N65  1  0.45634495  0.77459044  0.08926304  1
  N  N66  1  0.22451863  0.86948333  0.84175004  1
  N  N67  1  0.08012973  0.77958220  0.59120561  1
  N  N68  1  0.89068071  0.87089448  0.32615465  1
  N  N69  1  0.74353353  0.77130372  0.11692233  1
  N  N70  1  0.58840818  0.85364102  0.83854067  1
  N  N71  1  0.43380961  0.75720407  0.58946513  1
