# generated using pymatgen
data_Al31B5N36
_symmetry_space_group_name_H-M   'P 1'
_cell_length_a   9.15234829
_cell_length_b   9.16904953
_cell_length_c   10.08330105
_cell_angle_alpha   89.82425404
_cell_angle_beta   89.75447396
_cell_angle_gamma   60.37878804
_symmetry_Int_Tables_number   1
_chemical_formula_structural   Al31B5N36
_chemical_formula_sum   'Al31 B5 N36'
_cell_volume   735.58187752
_cell_formula_units_Z   1
loop_
 _symmetry_equiv_pos_site_id
 _symmetry_equiv_pos_as_xyz
  1  'x, y, z'
loop_
 _atom_site_type_symbol
 _atom_site_label
 _atom_site_symmetry_multiplicity
 _atom_site_fract_x
 _atom_site_fract_y
 _atom_site_fract_z
 _atom_site_occupancy
  Al  Al0  1  0.11108836  0.09577362  0.39973758  1
  Al  Al1  1  0.21049837  0.20743075  0.14521524  1
  Al  Al2  1  0.88586192  0.19044324  0.65082927  1
  Al  Al3  1  0.45186133  0.09006370  0.31968723  1
  Al  Al4  1  0.56794169  0.19535465  0.08087328  1
  Al  Al5  1  0.09701911  0.09195935  0.90717192  1
  Al  Al6  1  0.21339285  0.20766291  0.65413715  1
  Al  Al7  1  0.77921549  0.09726976  0.33230414  1
  Al  Al8  1  0.45106378  0.09674705  0.83898089  1
  Al  Al9  1  0.56474755  0.18734505  0.57559465  1
  Al  Al10  1  0.11058529  0.42609144  0.39963361  1
  Al  Al11  1  0.22166773  0.53939659  0.15253548  1
  Al  Al12  1  0.77845639  0.41610577  0.90396363  1
  Al  Al13  1  0.89006545  0.54051139  0.65719334  1
  Al  Al14  1  0.44078023  0.43310073  0.40199235  1
  Al  Al15  1  0.56060062  0.53462619  0.15257767  1
  Al  Al16  1  0.10197714  0.43176546  0.90224217  1
  Al  Al17  1  0.21583860  0.54053983  0.65037803  1
  Al  Al18  1  0.78059511  0.42587496  0.39948162  1
  Al  Al19  1  0.88083321  0.54127919  0.14548745  1
  Al  Al20  1  0.44151623  0.43478734  0.89860336  1
  Al  Al21  1  0.55793190  0.53672105  0.65337401  1
  Al  Al22  1  0.10614090  0.76356166  0.39667603  1
  Al  Al23  1  0.22021556  0.87754266  0.15364700  1
  Al  Al24  1  0.44836760  0.76069847  0.39793013  1
  Al  Al25  1  0.09825085  0.76659731  0.90220408  1
  Al  Al26  1  0.21936289  0.87293218  0.65152046  1
  Al  Al27  1  0.78047091  0.76148064  0.39127521  1
  Al  Al28  1  0.88631509  0.87801113  0.13202843  1
  Al  Al29  1  0.45223073  0.76410414  0.90795442  1
  Al  Al30  1  0.57512859  0.86328344  0.65664639  1
  B  B31  1  0.77250195  0.08515402  0.87157068  1
  B  B32  1  0.88781870  0.21062728  0.15806284  1
  B  B33  1  0.74222416  0.81466984  0.92784898  1
  B  B34  1  0.88920762  0.87226928  0.59982500  1
  B  B35  1  0.55597088  0.86600035  0.14962871  1
  N  N36  1  0.22134090  0.20630886  0.33674022  1
  N  N37  1  0.08172107  0.10618326  0.09684732  1
  N  N38  1  0.87037066  0.18019733  0.84289335  1
  N  N39  1  0.79779852  0.05483081  0.59699584  1
  N  N40  1  0.55630013  0.19994297  0.38631608  1
  N  N41  1  0.45579682  0.07231165  0.12612433  1
  N  N42  1  0.21313914  0.20457459  0.84818477  1
  N  N43  1  0.10824598  0.09348710  0.58902809  1
  N  N44  1  0.89745749  0.21319502  0.32368514  1
  N  N45  1  0.78459413  0.11460840  0.13962753  1
  N  N46  1  0.58257417  0.19276570  0.88749853  1
  N  N47  1  0.44603633  0.09383628  0.64576893  1
  N  N48  1  0.22181672  0.53964916  0.34096406  1
  N  N49  1  0.10732671  0.43195542  0.08990059  1
  N  N50  1  0.88396443  0.53497295  0.84276612  1
  N  N51  1  0.78078872  0.42001684  0.59052204  1
  N  N52  1  0.55702834  0.53695694  0.34001412  1
  N  N53  1  0.44090999  0.43123256  0.08865844  1
  N  N54  1  0.21691964  0.54145142  0.83805326  1
  N  N55  1  0.10964700  0.42584073  0.58816281  1
  N  N56  1  0.88882767  0.53989382  0.33570208  1
  N  N57  1  0.78922707  0.40220222  0.09591025  1
  N  N58  1  0.55565915  0.54248569  0.84240450  1
  N  N59  1  0.44262387  0.42943847  0.59310046  1
  N  N60  1  0.22376563  0.87182968  0.34262780  1
  N  N61  1  0.11658934  0.75917931  0.08907175  1
  N  N62  1  0.85213819  0.89820485  0.89243141  1
  N  N63  1  0.79496355  0.77051733  0.58457108  1
  N  N64  1  0.56541026  0.85736531  0.31639666  1
  N  N65  1  0.45515713  0.77354518  0.09805406  1
  N  N66  1  0.22370682  0.87027663  0.84195908  1
  N  N67  1  0.08480517  0.77258680  0.59166756  1
  N  N68  1  0.89323476  0.86459033  0.32510099  1
  N  N69  1  0.74568753  0.77843891  0.08101156  1
  N  N70  1  0.58388066  0.86098751  0.85064419  1
  N  N71  1  0.45049831  0.76209325  0.59039853  1
