# generated using pymatgen
data_Al31B5N36
_symmetry_space_group_name_H-M   'P 1'
_cell_length_a   9.16181676
_cell_length_b   9.15970158
_cell_length_c   10.05947528
_cell_angle_alpha   89.86293843
_cell_angle_beta   89.73071893
_cell_angle_gamma   60.25758016
_symmetry_Int_Tables_number   1
_chemical_formula_structural   Al31B5N36
_chemical_formula_sum   'Al31 B5 N36'
_cell_volume   732.96878368
_cell_formula_units_Z   1
loop_
 _symmetry_equiv_pos_site_id
 _symmetry_equiv_pos_as_xyz
  1  'x, y, z'
loop_
 _atom_site_type_symbol
 _atom_site_label
 _atom_site_symmetry_multiplicity
 _atom_site_fract_x
 _atom_site_fract_y
 _atom_site_fract_z
 _atom_site_occupancy
  Al  Al0  1  0.11170028  0.09581981  0.39971897  1
  Al  Al1  1  0.21042137  0.20706473  0.14436824  1
  Al  Al2  1  0.88610462  0.19083218  0.65083326  1
  Al  Al3  1  0.45199999  0.08995082  0.31818432  1
  Al  Al4  1  0.56906054  0.19474492  0.08143710  1
  Al  Al5  1  0.09568651  0.09158973  0.90770057  1
  Al  Al6  1  0.21311269  0.20852779  0.65547187  1
  Al  Al7  1  0.78010954  0.09605984  0.33443512  1
  Al  Al8  1  0.45040502  0.09489214  0.84351641  1
  Al  Al9  1  0.56377940  0.18799720  0.57604798  1
  Al  Al10  1  0.11095473  0.42596593  0.40041305  1
  Al  Al11  1  0.22174299  0.53943621  0.15267972  1
  Al  Al12  1  0.77738662  0.41845200  0.90496430  1
  Al  Al13  1  0.88828001  0.54600350  0.65785507  1
  Al  Al14  1  0.44128405  0.43300789  0.40146189  1
  Al  Al15  1  0.56093418  0.53431723  0.15265171  1
  Al  Al16  1  0.10047922  0.43558145  0.90357617  1
  Al  Al17  1  0.21630184  0.54113450  0.65031115  1
  Al  Al18  1  0.78121059  0.42582098  0.40080433  1
  Al  Al19  1  0.88077523  0.54092054  0.14744919  1
  Al  Al20  1  0.44257138  0.43309962  0.89849173  1
  Al  Al21  1  0.55765273  0.53773126  0.65332957  1
  Al  Al22  1  0.10626958  0.76358558  0.39641337  1
  Al  Al23  1  0.22018890  0.87685741  0.15356209  1
  Al  Al24  1  0.44870204  0.76103701  0.39735582  1
  Al  Al25  1  0.09854793  0.76677410  0.90128223  1
  Al  Al26  1  0.21948277  0.87345734  0.65093631  1
  Al  Al27  1  0.78024015  0.76196167  0.39106357  1
  Al  Al28  1  0.88528998  0.87679893  0.13034667  1
  Al  Al29  1  0.45130697  0.76371292  0.90754645  1
  Al  Al30  1  0.57314863  0.86508272  0.65695222  1
  B  B31  1  0.77289810  0.08185146  0.87184960  1
  B  B32  1  0.88803220  0.20961588  0.15876306  1
  B  B33  1  0.75206466  0.79306662  0.92086341  1
  B  B34  1  0.88889459  0.87390121  0.59927518  1
  B  B35  1  0.55773862  0.86407868  0.14790555  1
  N  N36  1  0.22171781  0.20619686  0.33640934  1
  N  N37  1  0.08161214  0.10567949  0.09743119  1
  N  N38  1  0.87007057  0.18062266  0.84291322  1
  N  N39  1  0.79776703  0.05692749  0.59374057  1
  N  N40  1  0.55572094  0.19966321  0.38585026  1
  N  N41  1  0.45580715  0.07176643  0.12372994  1
  N  N42  1  0.20826455  0.20804647  0.84939905  1
  N  N43  1  0.10850745  0.09448096  0.58924523  1
  N  N44  1  0.89753210  0.21280509  0.32472697  1
  N  N45  1  0.78517329  0.11378239  0.14035509  1
  N  N46  1  0.58326357  0.19100684  0.88796506  1
  N  N47  1  0.44504102  0.09596966  0.64842514  1
  N  N48  1  0.22217149  0.53920725  0.34144669  1
  N  N49  1  0.10697408  0.43235925  0.09073671  1
  N  N50  1  0.87562130  0.55526266  0.84862415  1
  N  N51  1  0.78181957  0.42197101  0.59321553  1
  N  N52  1  0.55808246  0.53646320  0.34047610  1
  N  N53  1  0.44124901  0.43094062  0.08905976  1
  N  N54  1  0.21809596  0.54077010  0.83809112  1
  N  N55  1  0.10835090  0.42742104  0.59006306  1
  N  N56  1  0.88930739  0.53926535  0.33743977  1
  N  N57  1  0.78997864  0.40160942  0.09628153  1
  N  N58  1  0.55589452  0.54156555  0.84247317  1
  N  N59  1  0.44290994  0.43024882  0.59289795  1
  N  N60  1  0.22408104  0.87148613  0.34272671  1
  N  N61  1  0.11653668  0.75905982  0.08868493  1
  N  N62  1  0.85476079  0.89403996  0.88952648  1
  N  N63  1  0.79353784  0.77341097  0.58448477  1
  N  N64  1  0.56580463  0.85720907  0.31559067  1
  N  N65  1  0.45507072  0.77278025  0.09784002  1
  N  N66  1  0.22383711  0.87034433  0.84152811  1
  N  N67  1  0.08446599  0.77347324  0.59164512  1
  N  N68  1  0.89387562  0.86333795  0.32459559  1
  N  N69  1  0.74696604  0.77413582  0.08078178  1
  N  N70  1  0.58263290  0.85869609  0.84948307  1
  N  N71  1  0.45028114  0.76291969  0.58967646  1
