# generated using pymatgen
data_Al31B5N36
_symmetry_space_group_name_H-M   'P 1'
_cell_length_a   9.17685263
_cell_length_b   9.17709602
_cell_length_c   9.79397757
_cell_angle_alpha   90.07294382
_cell_angle_beta   90.06281143
_cell_angle_gamma   60.03990676
_symmetry_Int_Tables_number   1
_chemical_formula_structural   Al31B5N36
_chemical_formula_sum   'Al31 B5 N36'
_cell_volume   714.59974668
_cell_formula_units_Z   1
loop_
 _symmetry_equiv_pos_site_id
 _symmetry_equiv_pos_as_xyz
  1  'x, y, z'
loop_
 _atom_site_type_symbol
 _atom_site_label
 _atom_site_symmetry_multiplicity
 _atom_site_fract_x
 _atom_site_fract_y
 _atom_site_fract_z
 _atom_site_occupancy
  Al  Al0  1  0.10555345  0.09540973  0.39910923  1
  Al  Al1  1  0.21917169  0.20199852  0.15488310  1
  Al  Al2  1  0.88680921  0.19544134  0.65799328  1
  Al  Al3  1  0.44671049  0.09032336  0.39902546  1
  Al  Al4  1  0.56339639  0.19961033  0.15041491  1
  Al  Al5  1  0.10115949  0.09409473  0.90998850  1
  Al  Al6  1  0.22155914  0.20344393  0.65581092  1
  Al  Al7  1  0.78100338  0.08808981  0.40090129  1
  Al  Al8  1  0.45702388  0.08353501  0.91066884  1
  Al  Al9  1  0.56536021  0.19469884  0.66047414  1
  Al  Al10  1  0.10806312  0.42797789  0.40594975  1
  Al  Al11  1  0.22016125  0.54109618  0.15703666  1
  Al  Al12  1  0.77778863  0.42207386  0.90872130  1
  Al  Al13  1  0.88557231  0.54879624  0.66031375  1
  Al  Al14  1  0.44505646  0.42525046  0.40636267  1
  Al  Al15  1  0.56052443  0.53603580  0.15602681  1
  Al  Al16  1  0.10640099  0.43331312  0.90666280  1
  Al  Al17  1  0.21697547  0.54152611  0.65559971  1
  Al  Al18  1  0.78001355  0.42294735  0.39967154  1
  Al  Al19  1  0.88248976  0.54120947  0.14910459  1
  Al  Al20  1  0.44776408  0.42453865  0.90618886  1
  Al  Al21  1  0.55685689  0.53856926  0.65582516  1
  Al  Al22  1  0.10189873  0.76501249  0.40932087  1
  Al  Al23  1  0.21785979  0.87566769  0.15509631  1
  Al  Al24  1  0.44647764  0.76214094  0.39851105  1
  Al  Al25  1  0.10006827  0.76591625  0.89761405  1
  Al  Al26  1  0.21822354  0.87377570  0.65514513  1
  Al  Al27  1  0.77789032  0.76490103  0.40053642  1
  Al  Al28  1  0.88229166  0.87778551  0.14020397  1
  Al  Al29  1  0.45136244  0.76241281  0.90995238  1
  Al  Al30  1  0.56520912  0.87049571  0.65806056  1
  B  B31  1  0.77571923  0.09847491  0.90897729  1
  B  B32  1  0.88800821  0.20464928  0.15153779  1
  B  B33  1  0.76325330  0.77066695  0.90945062  1
  B  B34  1  0.88029300  0.87612674  0.65864737  1
  B  B35  1  0.55398925  0.87280678  0.15310618  1
  N  N36  1  0.22119302  0.20486043  0.34656490  1
  N  N37  1  0.08390553  0.10657832  0.10323359  1
  N  N38  1  0.87472930  0.19103722  0.84935984  1
  N  N39  1  0.79038723  0.06640168  0.59739296  1
  N  N40  1  0.55791483  0.20342874  0.34370522  1
  N  N41  1  0.45492705  0.06899425  0.10369178  1
  N  N42  1  0.22263271  0.20267777  0.85127933  1
  N  N43  1  0.10656732  0.09569856  0.59337800  1
  N  N44  1  0.88533022  0.20249882  0.32229088  1
  N  N45  1  0.78796082  0.10483893  0.07890613  1
  N  N46  1  0.58029226  0.19204862  0.85739909  1
  N  N47  1  0.44578662  0.09173645  0.59566530  1
  N  N48  1  0.22020372  0.54076556  0.35103713  1
  N  N49  1  0.11062891  0.42748570  0.09781444  1
  N  N50  1  0.87308767  0.56491455  0.85694195  1
  N  N51  1  0.78174645  0.42304478  0.59664347  1
  N  N52  1  0.55550743  0.53731757  0.34709588  1
  N  N53  1  0.44342286  0.42748871  0.09792575  1
  N  N54  1  0.22353755  0.53729148  0.84604951  1
  N  N55  1  0.10771171  0.42739263  0.59911922  1
  N  N56  1  0.88586564  0.54130996  0.34321710  1
  N  N57  1  0.79038974  0.40106300  0.10173776  1
  N  N58  1  0.55586333  0.53995264  0.84926875  1
  N  N59  1  0.44632767  0.42323168  0.60025485  1
  N  N60  1  0.22033841  0.86982172  0.34787805  1
  N  N61  1  0.10999345  0.76088665  0.09046438  1
  N  N62  1  0.86532171  0.88407653  0.84335783  1
  N  N63  1  0.78988377  0.77506791  0.59740781  1
  N  N64  1  0.55926519  0.86985579  0.32247549  1
  N  N65  1  0.45555328  0.77338046  0.10427632  1
  N  N66  1  0.22534039  0.87194659  0.84853468  1
  N  N67  1  0.08255902  0.77512967  0.60769660  1
  N  N68  1  0.88774136  0.87159689  0.33245782  1
  N  N69  1  0.75282765  0.77371378  0.07994001  1
  N  N70  1  0.57974812  0.85922246  0.84957471  1
  N  N71  1  0.44694840  0.76281655  0.59410767  1
