# generated using pymatgen
data_Al31B5N36
_symmetry_space_group_name_H-M   'P 1'
_cell_length_a   9.16116985
_cell_length_b   9.14422833
_cell_length_c   10.09052494
_cell_angle_alpha   90.11307670
_cell_angle_beta   89.75293836
_cell_angle_gamma   60.18109064
_symmetry_Int_Tables_number   1
_chemical_formula_structural   Al31B5N36
_chemical_formula_sum   'Al31 B5 N36'
_cell_volume   733.36987550
_cell_formula_units_Z   1
loop_
 _symmetry_equiv_pos_site_id
 _symmetry_equiv_pos_as_xyz
  1  'x, y, z'
loop_
 _atom_site_type_symbol
 _atom_site_label
 _atom_site_symmetry_multiplicity
 _atom_site_fract_x
 _atom_site_fract_y
 _atom_site_fract_z
 _atom_site_occupancy
  Al  Al0  1  0.11147414  0.09623636  0.39953672  1
  Al  Al1  1  0.21054904  0.20727576  0.14562209  1
  Al  Al2  1  0.88573260  0.19135999  0.65106728  1
  Al  Al3  1  0.45275463  0.08718399  0.32020660  1
  Al  Al4  1  0.56986544  0.19370511  0.08151796  1
  Al  Al5  1  0.09556533  0.09233287  0.90802040  1
  Al  Al6  1  0.21252191  0.20880445  0.65491681  1
  Al  Al7  1  0.77989124  0.09640127  0.33316864  1
  Al  Al8  1  0.45183161  0.09386088  0.84009461  1
  Al  Al9  1  0.56398028  0.18735852  0.57391463  1
  Al  Al10  1  0.11081451  0.42654560  0.40097149  1
  Al  Al11  1  0.22182095  0.53987695  0.15345398  1
  Al  Al12  1  0.77683967  0.41935298  0.90641849  1
  Al  Al13  1  0.88812964  0.54783081  0.65876301  1
  Al  Al14  1  0.44111228  0.43341226  0.40112415  1
  Al  Al15  1  0.56081029  0.53565637  0.15324725  1
  Al  Al16  1  0.10095320  0.43701380  0.90472174  1
  Al  Al17  1  0.21698966  0.54087272  0.65055578  1
  Al  Al18  1  0.78058486  0.42706330  0.40143605  1
  Al  Al19  1  0.88014234  0.54198343  0.14942744  1
  Al  Al20  1  0.44336402  0.43174095  0.89952954  1
  Al  Al21  1  0.55721514  0.53647966  0.65446995  1
  Al  Al22  1  0.10535703  0.76457702  0.39670489  1
  Al  Al23  1  0.22012249  0.87749627  0.15357432  1
  Al  Al24  1  0.44711542  0.76131462  0.40100986  1
  Al  Al25  1  0.09916334  0.76680865  0.90130377  1
  Al  Al26  1  0.21770831  0.87388763  0.65188322  1
  Al  Al27  1  0.78018317  0.76271240  0.39429421  1
  Al  Al28  1  0.88496155  0.87574686  0.13036431  1
  Al  Al29  1  0.45078143  0.76391855  0.90464195  1
  Al  Al30  1  0.57155145  0.86455662  0.65363834  1
  B  B31  1  0.77407463  0.07945691  0.87118801  1
  B  B32  1  0.88832944  0.20978732  0.15877747  1
  B  B33  1  0.75839174  0.78083224  0.91350835  1
  B  B34  1  0.88914679  0.87390845  0.60121079  1
  B  B35  1  0.55683496  0.86681277  0.13623081  1
  N  N36  1  0.22155043  0.20666348  0.33612221  1
  N  N37  1  0.08178767  0.10629989  0.09735255  1
  N  N38  1  0.87038161  0.18123317  0.84287346  1
  N  N39  1  0.79744402  0.05738486  0.59395136  1
  N  N40  1  0.55560018  0.20013278  0.38444703  1
  N  N41  1  0.45747998  0.06913792  0.12453856  1
  N  N42  1  0.20711480  0.20950039  0.84839060  1
  N  N43  1  0.10810201  0.09455286  0.58872095  1
  N  N44  1  0.89723089  0.21344208  0.32449160  1
  N  N45  1  0.78598202  0.11322609  0.13992988  1
  N  N46  1  0.58400307  0.18914256  0.88876297  1
  N  N47  1  0.44458349  0.09632731  0.64686787  1
  N  N48  1  0.22188362  0.53954773  0.34161028  1
  N  N49  1  0.10689160  0.43270843  0.09118057  1
  N  N50  1  0.87275265  0.56476465  0.85147981  1
  N  N51  1  0.78177546  0.42328914  0.59435586  1
  N  N52  1  0.55756922  0.53713490  0.34051111  1
  N  N53  1  0.44164189  0.43090922  0.08950469  1
  N  N54  1  0.21950386  0.53997839  0.83804455  1
  N  N55  1  0.10795915  0.42786908  0.59056527  1
  N  N56  1  0.88940305  0.53966391  0.33847356  1
  N  N57  1  0.79008483  0.40225501  0.09667973  1
  N  N58  1  0.55654829  0.53988191  0.84292911  1
  N  N59  1  0.44313537  0.42942111  0.59215757  1
  N  N60  1  0.22371691  0.87139923  0.34215236  1
  N  N61  1  0.11662372  0.75916700  0.08834852  1
  N  N62  1  0.85728360  0.89143741  0.88588590  1
  N  N63  1  0.79503251  0.77302953  0.58687891  1
  N  N64  1  0.56442725  0.85840144  0.32932889  1
  N  N65  1  0.45528808  0.77455088  0.09539678  1
  N  N66  1  0.22318506  0.87093597  0.84161648  1
  N  N67  1  0.08464726  0.77336561  0.59181808  1
  N  N68  1  0.89336942  0.86306307  0.32423539  1
  N  N69  1  0.74650139  0.77351083  0.07866473  1
  N  N70  1  0.58291353  0.85692758  0.84580625  1
  N  N71  1  0.44748882  0.76124409  0.59222366  1
