# generated using pymatgen
data_Al31B5N36
_symmetry_space_group_name_H-M   'P 1'
_cell_length_a   9.12923714
_cell_length_b   9.15185783
_cell_length_c   10.41910386
_cell_angle_alpha   90.46363756
_cell_angle_beta   89.74282678
_cell_angle_gamma   59.96635833
_symmetry_Int_Tables_number   1
_chemical_formula_structural   Al31B5N36
_chemical_formula_sum   'Al31 B5 N36'
_cell_volume   753.56736788
_cell_formula_units_Z   1
loop_
 _symmetry_equiv_pos_site_id
 _symmetry_equiv_pos_as_xyz
  1  'x, y, z'
loop_
 _atom_site_type_symbol
 _atom_site_label
 _atom_site_symmetry_multiplicity
 _atom_site_fract_x
 _atom_site_fract_y
 _atom_site_fract_z
 _atom_site_occupancy
  Al  Al0  1  0.11760029  0.09113438  0.39818667  1
  Al  Al1  1  0.21052643  0.20980434  0.13707337  1
  Al  Al2  1  0.88649169  0.19383819  0.59476583  1
  Al  Al3  1  0.45473875  0.08304563  0.31591175  1
  Al  Al4  1  0.57022815  0.19530986  0.06156339  1
  Al  Al5  1  0.09276640  0.09350150  0.89110383  1
  Al  Al6  1  0.20959888  0.21274008  0.64741334  1
  Al  Al7  1  0.77816491  0.10236257  0.32158673  1
  Al  Al8  1  0.45807121  0.08654368  0.81486354  1
  Al  Al9  1  0.55859759  0.19608632  0.56574951  1
  Al  Al10  1  0.10841955  0.42351214  0.39350822  1
  Al  Al11  1  0.23144218  0.53934828  0.06180829  1
  Al  Al12  1  0.77343172  0.42149905  0.81569961  1
  Al  Al13  1  0.89157073  0.55633165  0.64414059  1
  Al  Al14  1  0.44325821  0.42579032  0.31690504  1
  Al  Al15  1  0.56998717  0.52685374  0.07148787  1
  Al  Al16  1  0.09749989  0.43363910  0.89279187  1
  Al  Al17  1  0.21964022  0.55022777  0.57105293  1
  Al  Al18  1  0.78124123  0.41785642  0.32821439  1
  Al  Al19  1  0.88505615  0.54614601  0.14493503  1
  Al  Al20  1  0.45187005  0.42188489  0.81627268  1
  Al  Al21  1  0.56207482  0.52749061  0.56785133  1
  Al  Al22  1  0.11284073  0.75523316  0.30886581  1
  Al  Al23  1  0.22647332  0.88262489  0.13630750  1
  Al  Al24  1  0.43525850  0.76528159  0.39603107  1
  Al  Al25  1  0.09145398  0.76319809  0.82819736  1
  Al  Al26  1  0.21986436  0.87536282  0.65208652  1
  Al  Al27  1  0.78453882  0.76473499  0.38940590  1
  Al  Al28  1  0.87944831  0.87512122  0.11991814  1
  Al  Al29  1  0.45490825  0.76537684  0.88878185  1
  Al  Al30  1  0.55573666  0.87761636  0.58648055  1
  B  B31  1  0.77322822  0.08305736  0.83126729  1
  B  B32  1  0.88783523  0.20610264  0.10783510  1
  B  B33  1  0.76880105  0.77854672  0.85308810  1
  B  B34  1  0.88518877  0.87417648  0.61354800  1
  B  B35  1  0.56142074  0.86859870  0.10169471  1
  N  N36  1  0.21615479  0.20824430  0.32068775  1
  N  N37  1  0.07940247  0.11015494  0.07967506  1
  N  N38  1  0.87189603  0.18028588  0.83382210  1
  N  N39  1  0.78426676  0.06080233  0.62642006  1
  N  N40  1  0.55304953  0.20508713  0.37996522  1
  N  N41  1  0.46436067  0.06433423  0.12312629  1
  N  N42  1  0.20661971  0.20927431  0.83372475  1
  N  N43  1  0.12177846  0.08624336  0.58103468  1
  N  N44  1  0.88263296  0.20667968  0.39828474  1
  N  N45  1  0.79188138  0.11476356  0.12857455  1
  N  N46  1  0.57969181  0.19079546  0.87502515  1
  N  N47  1  0.44116280  0.10111022  0.63397411  1
  N  N48  1  0.22384762  0.54664760  0.38527050  1
  N  N49  1  0.10452982  0.42978466  0.07641740  1
  N  N50  1  0.87681917  0.57792081  0.83074931  1
  N  N51  1  0.77819510  0.43041112  0.63385175  1
  N  N52  1  0.55841255  0.53118607  0.38057161  1
  N  N53  1  0.44813560  0.42092037  0.13094948  1
  N  N54  1  0.22846949  0.53770961  0.87803253  1
  N  N55  1  0.10782870  0.42556985  0.57791268  1
  N  N56  1  0.89077497  0.54237961  0.32965613  1
  N  N57  1  0.79506368  0.39487033  0.13426081  1
  N  N58  1  0.56121175  0.52978225  0.88924977  1
  N  N59  1  0.44644011  0.42377302  0.63271929  1
  N  N60  1  0.22548927  0.87821598  0.32053180  1
  N  N61  1  0.11790987  0.75626454  0.12032953  1
  N  N62  1  0.85604741  0.88587932  0.86682155  1
  N  N63  1  0.79949629  0.77454027  0.57797309  1
  N  N64  1  0.55182311  0.87891509  0.39337100  1
  N  N65  1  0.45819785  0.77969815  0.08037891  1
  N  N66  1  0.22695369  0.86916241  0.83633158  1
  N  N67  1  0.07749300  0.77478531  0.63706735  1
  N  N68  1  0.88317245  0.87386416  0.31641441  1
  N  N69  1  0.74412196  0.77311295  0.10310399  1
  N  N70  1  0.58621597  0.85450770  0.83123368  1
  N  N71  1  0.43526649  0.75883280  0.58402986  1
