# generated using pymatgen
data_Al31B5N36
_symmetry_space_group_name_H-M   'P 1'
_cell_length_a   9.15106379
_cell_length_b   9.13181828
_cell_length_c   10.22588801
_cell_angle_alpha   90.20852236
_cell_angle_beta   89.44848376
_cell_angle_gamma   60.01521817
_symmetry_Int_Tables_number   1
_chemical_formula_structural   Al31B5N36
_chemical_formula_sum   'Al31 B5 N36'
_cell_volume   740.09299811
_cell_formula_units_Z   1
loop_
 _symmetry_equiv_pos_site_id
 _symmetry_equiv_pos_as_xyz
  1  'x, y, z'
loop_
 _atom_site_type_symbol
 _atom_site_label
 _atom_site_symmetry_multiplicity
 _atom_site_fract_x
 _atom_site_fract_y
 _atom_site_fract_z
 _atom_site_occupancy
  Al  Al0  1  0.11526980  0.09308382  0.40001727  1
  Al  Al1  1  0.21153309  0.20570104  0.13553852  1
  Al  Al2  1  0.88762210  0.20016842  0.61711846  1
  Al  Al3  1  0.45431777  0.08265846  0.31698981  1
  Al  Al4  1  0.57620805  0.18507513  0.05979733  1
  Al  Al5  1  0.09757059  0.09544717  0.88660979  1
  Al  Al6  1  0.21294631  0.21368683  0.64840265  1
  Al  Al7  1  0.77967766  0.10578246  0.31792881  1
  Al  Al8  1  0.46148024  0.08674727  0.81682362  1
  Al  Al9  1  0.56468688  0.19165856  0.56791925  1
  Al  Al10  1  0.11155338  0.42472647  0.39210126  1
  Al  Al11  1  0.22307510  0.53710952  0.14388387  1
  Al  Al12  1  0.77925612  0.42156619  0.88253385  1
  Al  Al13  1  0.88737781  0.55435868  0.64549208  1
  Al  Al14  1  0.44213194  0.43254494  0.39162692  1
  Al  Al15  1  0.56173398  0.53183883  0.13911606  1
  Al  Al16  1  0.10401863  0.43843512  0.89511808  1
  Al  Al17  1  0.21722671  0.54328190  0.64118969  1
  Al  Al18  1  0.77542282  0.43143771  0.40324290  1
  Al  Al19  1  0.88033151  0.53722452  0.14450249  1
  Al  Al20  1  0.44561767  0.42796593  0.88764100  1
  Al  Al21  1  0.55223819  0.54180646  0.64918147  1
  Al  Al22  1  0.10261602  0.76817237  0.39109058  1
  Al  Al23  1  0.21735671  0.87727529  0.14073355  1
  Al  Al24  1  0.43925626  0.75760692  0.39458286  1
  Al  Al25  1  0.09888039  0.76576452  0.89155376  1
  Al  Al26  1  0.21477364  0.87480320  0.64917459  1
  Al  Al27  1  0.78274993  0.76213733  0.38346302  1
  Al  Al28  1  0.88515101  0.86797312  0.13220854  1
  Al  Al29  1  0.45505020  0.76464167  0.89045495  1
  Al  Al30  1  0.55543687  0.87599903  0.58735254  1
  B  B31  1  0.77492933  0.07865403  0.80619672  1
  B  B32  1  0.88713469  0.20496071  0.09634792  1
  B  B33  1  0.77263727  0.77597982  0.84905111  1
  B  B34  1  0.88753402  0.86977824  0.61247470  1
  B  B35  1  0.56104416  0.86541344  0.10399829  1
  N  N36  1  0.21809106  0.20549282  0.32254606  1
  N  N37  1  0.07903355  0.10757833  0.07973646  1
  N  N38  1  0.87731688  0.19015676  0.82103941  1
  N  N39  1  0.78440481  0.06141929  0.64303272  1
  N  N40  1  0.55947996  0.19714756  0.37904379  1
  N  N41  1  0.46398190  0.06114099  0.12155664  1
  N  N42  1  0.21357682  0.21045556  0.83874944  1
  N  N43  1  0.12100067  0.09076620  0.58587089  1
  N  N44  1  0.88483412  0.20176634  0.39714460  1
  N  N45  1  0.79328937  0.11321587  0.12666339  1
  N  N46  1  0.58771447  0.18603099  0.87142444  1
  N  N47  1  0.44281967  0.10113479  0.63318907  1
  N  N48  1  0.22101048  0.54062201  0.33158424  1
  N  N49  1  0.10623198  0.43166431  0.08077463  1
  N  N50  1  0.87635323  0.57119623  0.83545802  1
  N  N51  1  0.77377755  0.44279320  0.59130875  1
  N  N52  1  0.55894395  0.53620471  0.32531934  1
  N  N53  1  0.44370806  0.42478530  0.07698337  1
  N  N54  1  0.22238742  0.53964610  0.82693662  1
  N  N55  1  0.10899372  0.43007716  0.57942482  1
  N  N56  1  0.88935249  0.53446586  0.33127963  1
  N  N57  1  0.79279023  0.39704651  0.07649760  1
  N  N58  1  0.55522772  0.54036132  0.83413431  1
  N  N59  1  0.44353545  0.43191002  0.58076015  1
  N  N60  1  0.22069264  0.87308649  0.32750213  1
  N  N61  1  0.11285038  0.75807909  0.07774644  1
  N  N62  1  0.86438597  0.87644531  0.85025897  1
  N  N63  1  0.79864043  0.77513671  0.57759538  1
  N  N64  1  0.55181901  0.87552764  0.39215610  1
  N  N65  1  0.45644554  0.77465927  0.08296823  1
  N  N66  1  0.22462466  0.86955121  0.83545265  1
  N  N67  1  0.08023682  0.77965022  0.58489921  1
  N  N68  1  0.89078964  0.87096152  0.31984750  1
  N  N69  1  0.74363211  0.77136986  0.11063409  1
  N  N70  1  0.58851208  0.85371442  0.83225292  1
  N  N71  1  0.43391965  0.75727040  0.58316721  1
