# generated using pymatgen
data_Al31B5N36
_symmetry_space_group_name_H-M   'P 1'
_cell_length_a   9.14854429
_cell_length_b   9.12177747
_cell_length_c   10.21253414
_cell_angle_alpha   90.16355063
_cell_angle_beta   89.65251135
_cell_angle_gamma   60.13447437
_symmetry_Int_Tables_number   1
_chemical_formula_structural   Al31B5N36
_chemical_formula_sum   'Al31 B5 N36'
_cell_volume   739.03425258
_cell_formula_units_Z   1
loop_
 _symmetry_equiv_pos_site_id
 _symmetry_equiv_pos_as_xyz
  1  'x, y, z'
loop_
 _atom_site_type_symbol
 _atom_site_label
 _atom_site_symmetry_multiplicity
 _atom_site_fract_x
 _atom_site_fract_y
 _atom_site_fract_z
 _atom_site_occupancy
  Al  Al0  1  0.11130516  0.09705025  0.39959534  1
  Al  Al1  1  0.21125457  0.20624120  0.14856194  1
  Al  Al2  1  0.88540143  0.19169040  0.65141080  1
  Al  Al3  1  0.45442935  0.08314253  0.32701239  1
  Al  Al4  1  0.57144697  0.18943025  0.08217321  1
  Al  Al5  1  0.09646049  0.09211879  0.90895625  1
  Al  Al6  1  0.21044942  0.21084129  0.65518415  1
  Al  Al7  1  0.77909771  0.09944335  0.33219016  1
  Al  Al8  1  0.45745142  0.08782063  0.82895564  1
  Al  Al9  1  0.56423492  0.19027879  0.57113095  1
  Al  Al10  1  0.11213196  0.42670597  0.40290201  1
  Al  Al11  1  0.22148412  0.53919958  0.15405129  1
  Al  Al12  1  0.77680316  0.41974695  0.90710399  1
  Al  Al13  1  0.88734595  0.54924327  0.65475151  1
  Al  Al14  1  0.44071830  0.43577681  0.40060774  1
  Al  Al15  1  0.56166396  0.53561720  0.15215517  1
  Al  Al16  1  0.10221208  0.43724137  0.90533834  1
  Al  Al17  1  0.21765517  0.54131212  0.65137692  1
  Al  Al18  1  0.77987911  0.42751605  0.40276206  1
  Al  Al19  1  0.87953649  0.54096059  0.15544778  1
  Al  Al20  1  0.44437219  0.42915463  0.90157327  1
  Al  Al21  1  0.55575237  0.53589187  0.65699071  1
  Al  Al22  1  0.10671795  0.76580822  0.39976825  1
  Al  Al23  1  0.21974992  0.87721296  0.15202440  1
  Al  Al24  1  0.44091278  0.75979195  0.40764707  1
  Al  Al25  1  0.09931762  0.76544646  0.90242428  1
  Al  Al26  1  0.21415859  0.87457877  0.65559010  1
  Al  Al27  1  0.78357536  0.76255557  0.39623082  1
  Al  Al28  1  0.88365186  0.87148893  0.14128977  1
  Al  Al29  1  0.45395405  0.76287179  0.89881986  1
  Al  Al30  1  0.55914553  0.87558796  0.60190753  1
  B  B31  1  0.77310560  0.07765305  0.86740138  1
  B  B32  1  0.88969357  0.20833296  0.15737715  1
  B  B33  1  0.76797873  0.77715144  0.86510163  1
  B  B34  1  0.88976320  0.87318250  0.60228374  1
  B  B35  1  0.56023296  0.86663621  0.11300239  1
  N  N36  1  0.22120918  0.20794131  0.33555577  1
  N  N37  1  0.08255407  0.10606469  0.09680584  1
  N  N38  1  0.87089168  0.17961280  0.84280645  1
  N  N39  1  0.79642742  0.05849807  0.59604016  1
  N  N40  1  0.55549915  0.20320207  0.38318456  1
  N  N41  1  0.46142243  0.06140056  0.13297611  1
  N  N42  1  0.20717781  0.20925858  0.84695372  1
  N  N43  1  0.10799252  0.09475152  0.58803109  1
  N  N44  1  0.89732350  0.21484356  0.32299347  1
  N  N45  1  0.78798706  0.10999838  0.13970409  1
  N  N46  1  0.58424990  0.18511478  0.89073524  1
  N  N47  1  0.44227403  0.10240167  0.64497480  1
  N  N48  1  0.22140038  0.54109590  0.34085070  1
  N  N49  1  0.10616962  0.43195593  0.09088868  1
  N  N50  1  0.87348586  0.57162089  0.84644922  1
  N  N51  1  0.78022334  0.42421789  0.59436891  1
  N  N52  1  0.55758209  0.54029323  0.33812953  1
  N  N53  1  0.44232820  0.42902337  0.08963667  1
  N  N54  1  0.22167863  0.53862694  0.83803173  1
  N  N55  1  0.10852920  0.42855222  0.59027638  1
  N  N56  1  0.89030561  0.53857890  0.34240847  1
  N  N57  1  0.79130352  0.40130732  0.09553337  1
  N  N58  1  0.55822417  0.53629718  0.84344803  1
  N  N59  1  0.44286725  0.43020604  0.59017681  1
  N  N60  1  0.22368931  0.87236033  0.33896681  1
  N  N61  1  0.11300432  0.75948119  0.08799356  1
  N  N62  1  0.85769374  0.88496452  0.87288494  1
  N  N63  1  0.80118277  0.77103670  0.58949740  1
  N  N64  1  0.55314485  0.87799113  0.40481038  1
  N  N65  1  0.45669814  0.77478772  0.09156161  1
  N  N66  1  0.22265114  0.87073177  0.84352671  1
  N  N67  1  0.08574966  0.77386927  0.59225044  1
  N  N68  1  0.89485996  0.86633393  0.33009728  1
  N  N69  1  0.74310697  0.77366556  0.11650735  1
  N  N70  1  0.58605215  0.85456986  0.84197660  1
  N  N71  1  0.43758982  0.75624317  0.59646059  1
