# generated using pymatgen
data_Al31B5N36
_symmetry_space_group_name_H-M   'P 1'
_cell_length_a   9.16607767
_cell_length_b   9.23366668
_cell_length_c   10.25673588
_cell_angle_alpha   90.49650338
_cell_angle_beta   89.77179610
_cell_angle_gamma   59.82505711
_symmetry_Int_Tables_number   1
_chemical_formula_structural   Al31B5N36
_chemical_formula_sum   'Al31 B5 N36'
_cell_volume   750.39982581
_cell_formula_units_Z   1
loop_
 _symmetry_equiv_pos_site_id
 _symmetry_equiv_pos_as_xyz
  1  'x, y, z'
loop_
 _atom_site_type_symbol
 _atom_site_label
 _atom_site_symmetry_multiplicity
 _atom_site_fract_x
 _atom_site_fract_y
 _atom_site_fract_z
 _atom_site_occupancy
  Al  Al0  1  0.11611965  0.09359227  0.39789163  1
  Al  Al1  1  0.21633960  0.20278222  0.13102165  1
  Al  Al2  1  0.88513210  0.20254218  0.59138021  1
  Al  Al3  1  0.45413257  0.08614354  0.31784799  1
  Al  Al4  1  0.57550564  0.19490842  0.05929850  1
  Al  Al5  1  0.09313111  0.09851515  0.89026380  1
  Al  Al6  1  0.21805420  0.20421068  0.64917211  1
  Al  Al7  1  0.78194275  0.09603848  0.31897332  1
  Al  Al8  1  0.47152236  0.07735667  0.81865232  1
  Al  Al9  1  0.55706274  0.19936893  0.56849967  1
  Al  Al10  1  0.10778936  0.43517908  0.32274059  1
  Al  Al11  1  0.22778400  0.53472726  0.06400739  1
  Al  Al12  1  0.76923160  0.43733006  0.81499988  1
  Al  Al13  1  0.88829246  0.55078683  0.56934720  1
  Al  Al14  1  0.44414708  0.42475941  0.31892100  1
  Al  Al15  1  0.56445411  0.52712661  0.07431132  1
  Al  Al16  1  0.10211176  0.43769265  0.82853721  1
  Al  Al17  1  0.21120552  0.54987888  0.57429432  1
  Al  Al18  1  0.78234441  0.41921793  0.32523113  1
  Al  Al19  1  0.88159621  0.53732572  0.07182325  1
  Al  Al20  1  0.44900050  0.42704792  0.81608678  1
  Al  Al21  1  0.55741714  0.53283722  0.56660772  1
  Al  Al22  1  0.10863880  0.75809788  0.31201136  1
  Al  Al23  1  0.22344027  0.88248014  0.13791828  1
  Al  Al24  1  0.43298237  0.76704031  0.39292182  1
  Al  Al25  1  0.09265051  0.76080764  0.83579283  1
  Al  Al26  1  0.21786169  0.87635196  0.65220574  1
  Al  Al27  1  0.77065942  0.76178311  0.32356823  1
  Al  Al28  1  0.88671680  0.86974228  0.08881898  1
  Al  Al29  1  0.44976661  0.76874915  0.89291315  1
  Al  Al30  1  0.56423232  0.87548428  0.57593727  1
  B  B31  1  0.75766714  0.13408244  0.79956584  1
  B  B32  1  0.88804664  0.20471158  0.10585277  1
  B  B33  1  0.77613386  0.75878232  0.87238852  1
  B  B34  1  0.88247739  0.87018314  0.62661825  1
  B  B35  1  0.55906731  0.86717256  0.10445299  1
  N  N36  1  0.21942370  0.20286693  0.32199244  1
  N  N37  1  0.07880099  0.11054769  0.08002685  1
  N  N38  1  0.86936080  0.20061442  0.83425234  1
  N  N39  1  0.78147051  0.07191461  0.65108458  1
  N  N40  1  0.55613589  0.20396651  0.38136224  1
  N  N41  1  0.46943279  0.06162273  0.12052726  1
  N  N42  1  0.22139154  0.20003694  0.84311826  1
  N  N43  1  0.11999031  0.08944334  0.58323910  1
  N  N44  1  0.88021220  0.20700845  0.39662417  1
  N  N45  1  0.79614270  0.11083629  0.12587075  1
  N  N46  1  0.58548163  0.19557866  0.86909873  1
  N  N47  1  0.44827445  0.09454296  0.63400494  1
  N  N48  1  0.22097662  0.54344496  0.38623051  1
  N  N49  1  0.10613652  0.43665522  0.12555910  1
  N  N50  1  0.87162649  0.55792772  0.88494218  1
  N  N51  1  0.77482953  0.43855069  0.63063589  1
  N  N52  1  0.55637772  0.53402229  0.37591944  1
  N  N53  1  0.44877530  0.41692745  0.13059364  1
  N  N54  1  0.22934250  0.53228782  0.88022717  1
  N  N55  1  0.10603236  0.43489369  0.63546064  1
  N  N56  1  0.88612270  0.53819467  0.38087311  1
  N  N57  1  0.79562876  0.39518344  0.13162871  1
  N  N58  1  0.55469368  0.53552879  0.88865389  1
  N  N59  1  0.44384432  0.42746365  0.63043889  1
  N  N60  1  0.22072759  0.88029169  0.32397809  1
  N  N61  1  0.12237803  0.75306253  0.12160973  1
  N  N62  1  0.87765364  0.83888684  0.90336153  1
  N  N63  1  0.79515441  0.77983481  0.60532809  1
  N  N64  1  0.55268770  0.87725575  0.38718870  1
  N  N65  1  0.45662253  0.77927840  0.08702834  1
  N  N66  1  0.22207638  0.87258573  0.84009088  1
  N  N67  1  0.07561054  0.77837227  0.64194515  1
  N  N68  1  0.88451033  0.87300159  0.33088140  1
  N  N69  1  0.74387069  0.76473032  0.13285249  1
  N  N70  1  0.59224606  0.85088747  0.85615505  1
  N  N71  1  0.43538978  0.76340572  0.58408058  1
