# generated using pymatgen
data_Al31B5N36
_symmetry_space_group_name_H-M   'P 1'
_cell_length_a   9.11777190
_cell_length_b   9.13906066
_cell_length_c   10.48661816
_cell_angle_alpha   90.55569193
_cell_angle_beta   89.83415486
_cell_angle_gamma   59.96348200
_symmetry_Int_Tables_number   1
_chemical_formula_structural   Al31B5N36
_chemical_formula_sum   'Al31 B5 N36'
_cell_volume   756.41235397
_cell_formula_units_Z   1
loop_
 _symmetry_equiv_pos_site_id
 _symmetry_equiv_pos_as_xyz
  1  'x, y, z'
loop_
 _atom_site_type_symbol
 _atom_site_label
 _atom_site_symmetry_multiplicity
 _atom_site_fract_x
 _atom_site_fract_y
 _atom_site_fract_z
 _atom_site_occupancy
  Al  Al0  1  0.11987038  0.09088829  0.39674431  1
  Al  Al1  1  0.20975760  0.21034315  0.13757405  1
  Al  Al2  1  0.88653549  0.19398347  0.58365767  1
  Al  Al3  1  0.45436477  0.08330726  0.31516696  1
  Al  Al4  1  0.56763120  0.19650405  0.06559117  1
  Al  Al5  1  0.09375388  0.09206329  0.89229222  1
  Al  Al6  1  0.20977342  0.21243513  0.64731705  1
  Al  Al7  1  0.77797730  0.10199679  0.32472953  1
  Al  Al8  1  0.45852080  0.08618809  0.81497584  1
  Al  Al9  1  0.55916485  0.19543534  0.56329110  1
  Al  Al10  1  0.10781264  0.42409809  0.39390944  1
  Al  Al11  1  0.23082152  0.54035167  0.06118915  1
  Al  Al12  1  0.77380633  0.41861768  0.81579660  1
  Al  Al13  1  0.89163162  0.55595143  0.64489971  1
  Al  Al14  1  0.44222540  0.42708931  0.31673012  1
  Al  Al15  1  0.56992261  0.52690903  0.07083719  1
  Al  Al16  1  0.09741789  0.43379546  0.89278518  1
  Al  Al17  1  0.21982294  0.55006676  0.57117850  1
  Al  Al18  1  0.78064800  0.41932421  0.32522408  1
  Al  Al19  1  0.88541727  0.54668777  0.14452288  1
  Al  Al20  1  0.45217110  0.42147579  0.81655464  1
  Al  Al21  1  0.56289778  0.52662020  0.56817153  1
  Al  Al22  1  0.11303837  0.75498460  0.30894146  1
  Al  Al23  1  0.22665413  0.88234452  0.13705426  1
  Al  Al24  1  0.43553428  0.76482195  0.39669559  1
  Al  Al25  1  0.09067442  0.76371471  0.82619446  1
  Al  Al26  1  0.21992105  0.87527324  0.65155666  1
  Al  Al27  1  0.78462243  0.76456124  0.39008483  1
  Al  Al28  1  0.87892237  0.87548299  0.12357969  1
  Al  Al29  1  0.45482386  0.76513092  0.88915271  1
  Al  Al30  1  0.55611358  0.87804450  0.58470154  1
  B  B31  1  0.77351829  0.08352385  0.85286962  1
  B  B32  1  0.88729576  0.20593813  0.10845999  1
  B  B33  1  0.76796756  0.77920098  0.85437993  1
  B  B34  1  0.88538480  0.87583946  0.60754777  1
  B  B35  1  0.56102140  0.86871299  0.10154685  1
  N  N36  1  0.21601650  0.20934784  0.31996157  1
  N  N37  1  0.07947568  0.10977462  0.07993588  1
  N  N38  1  0.86908273  0.17782549  0.84274622  1
  N  N39  1  0.78905793  0.05875478  0.60463610  1
  N  N40  1  0.55090279  0.20679732  0.37842363  1
  N  N41  1  0.46337746  0.06431283  0.12419353  1
  N  N42  1  0.20548744  0.20939190  0.83279297  1
  N  N43  1  0.12245123  0.08587947  0.57925120  1
  N  N44  1  0.88497460  0.20849107  0.39409209  1
  N  N45  1  0.79083177  0.11523808  0.13047077  1
  N  N46  1  0.57854069  0.19069179  0.88001566  1
  N  N47  1  0.44258179  0.10096267  0.63523886  1
  N  N48  1  0.22351621  0.54735685  0.38633197  1
  N  N49  1  0.10457755  0.42961910  0.07537759  1
  N  N50  1  0.87691367  0.57879009  0.83033202  1
  N  N51  1  0.77983613  0.42671662  0.63525733  1
  N  N52  1  0.55925362  0.53054301  0.38141901  1
  N  N53  1  0.44692825  0.42284687  0.13176655  1
  N  N54  1  0.22845673  0.53824224  0.87839570  1
  N  N55  1  0.10771988  0.42509450  0.57737401  1
  N  N56  1  0.89094248  0.54310900  0.32816117  1
  N  N57  1  0.79475052  0.39545336  0.13393346  1
  N  N58  1  0.56179361  0.52918797  0.88954706  1
  N  N59  1  0.44710828  0.42285669  0.63336071  1
  N  N60  1  0.22641526  0.87766974  0.32015169  1
  N  N61  1  0.11747065  0.75640489  0.12148754  1
  N  N62  1  0.85518466  0.88816148  0.86917780  1
  N  N63  1  0.79962965  0.77269268  0.57695862  1
  N  N64  1  0.55117269  0.87981595  0.39337178  1
  N  N65  1  0.45788694  0.77958188  0.07991701  1
  N  N66  1  0.22744922  0.86893870  0.83511363  1
  N  N67  1  0.07796919  0.77401907  0.63759788  1
  N  N68  1  0.88294512  0.87325811  0.31575132  1
  N  N69  1  0.74399142  0.77355153  0.10253080  1
  N  N70  1  0.58587752  0.85484824  0.83335680  1
  N  N71  1  0.43607944  0.75855507  0.58360194  1
