# generated using pymatgen
data_Al31B5N36
_symmetry_space_group_name_H-M   'P 1'
_cell_length_a   9.16110928
_cell_length_b   9.19580549
_cell_length_c   9.90098194
_cell_angle_alpha   89.54151846
_cell_angle_beta   90.10286574
_cell_angle_gamma   60.22865494
_symmetry_Int_Tables_number   1
_chemical_formula_structural   Al31B5N36
_chemical_formula_sum   'Al31 B5 N36'
_cell_volume   723.96786370
_cell_formula_units_Z   1
loop_
 _symmetry_equiv_pos_site_id
 _symmetry_equiv_pos_as_xyz
  1  'x, y, z'
loop_
 _atom_site_type_symbol
 _atom_site_label
 _atom_site_symmetry_multiplicity
 _atom_site_fract_x
 _atom_site_fract_y
 _atom_site_fract_z
 _atom_site_occupancy
  Al  Al0  1  0.10780402  0.09614887  0.39500821  1
  Al  Al1  1  0.21754608  0.20377860  0.14902903  1
  Al  Al2  1  0.88875265  0.19171931  0.64959045  1
  Al  Al3  1  0.44657035  0.09061937  0.39399085  1
  Al  Al4  1  0.56044417  0.20475627  0.14848308  1
  Al  Al5  1  0.09987807  0.09157351  0.90383336  1
  Al  Al6  1  0.22413385  0.20112917  0.65007953  1
  Al  Al7  1  0.78173067  0.09102787  0.38317094  1
  Al  Al8  1  0.45133103  0.08968517  0.90615277  1
  Al  Al9  1  0.56651744  0.19289468  0.65025435  1
  Al  Al10  1  0.10913506  0.42735631  0.39702993  1
  Al  Al11  1  0.22129135  0.53977826  0.14991976  1
  Al  Al12  1  0.78009602  0.41109224  0.90210185  1
  Al  Al13  1  0.89182804  0.53652087  0.65401611  1
  Al  Al14  1  0.44501739  0.42685255  0.40166105  1
  Al  Al15  1  0.55933869  0.53749755  0.14919093  1
  Al  Al16  1  0.10732121  0.42499351  0.89827781  1
  Al  Al17  1  0.21530036  0.54035331  0.64847573  1
  Al  Al18  1  0.77988525  0.42451008  0.39237602  1
  Al  Al19  1  0.88148776  0.54184458  0.13806503  1
  Al  Al20  1  0.44493971  0.42634099  0.89832190  1
  Al  Al21  1  0.55939530  0.53660754  0.65125508  1
  Al  Al22  1  0.10717162  0.76266500  0.39203996  1
  Al  Al23  1  0.21984376  0.87842158  0.15037818  1
  Al  Al24  1  0.44835502  0.76187567  0.39491957  1
  Al  Al25  1  0.09578850  0.76601220  0.90024386  1
  Al  Al26  1  0.21994990  0.87238829  0.64963018  1
  Al  Al27  1  0.77832427  0.76294362  0.38600622  1
  Al  Al28  1  0.88317535  0.88535805  0.12902117  1
  Al  Al29  1  0.45310769  0.76117205  0.90478827  1
  Al  Al30  1  0.57229792  0.86930502  0.65480588  1
  B  B31  1  0.77215654  0.09355095  0.89767826  1
  B  B32  1  0.88357055  0.20836248  0.14946379  1
  B  B33  1  0.74050505  0.82282528  0.92770773  1
  B  B34  1  0.88971081  0.86922435  0.59882678  1
  B  B35  1  0.55105953  0.87533694  0.14952796  1
  N  N36  1  0.22215841  0.20544577  0.33917246  1
  N  N37  1  0.08366386  0.10792868  0.09602731  1
  N  N38  1  0.87258815  0.18046826  0.84090433  1
  N  N39  1  0.79414000  0.06035703  0.58141326  1
  N  N40  1  0.55468202  0.20710777  0.34007139  1
  N  N41  1  0.45395751  0.07281974  0.09828307  1
  N  N42  1  0.22730076  0.19537672  0.84342133  1
  N  N43  1  0.10905813  0.09343155  0.58769452  1
  N  N44  1  0.88907519  0.20641559  0.31883598  1
  N  N45  1  0.78473883  0.11741628  0.09326706  1
  N  N46  1  0.57783335  0.19340145  0.84721427  1
  N  N47  1  0.44843915  0.08843770  0.58871280  1
  N  N48  1  0.22225315  0.53928248  0.34181986  1
  N  N49  1  0.11037862  0.42851456  0.08913219  1
  N  N50  1  0.89044745  0.52003367  0.83959852  1
  N  N51  1  0.78095485  0.41896978  0.58578202  1
  N  N52  1  0.55436192  0.53951442  0.33956258  1
  N  N53  1  0.44211123  0.42911075  0.08872541  1
  N  N54  1  0.21703066  0.54087281  0.83801257  1
  N  N55  1  0.11184165  0.42348765  0.58753914  1
  N  N56  1  0.88676893  0.54145380  0.33219348  1
  N  N57  1  0.78803087  0.40358735  0.09544568  1
  N  N58  1  0.55567406  0.53985125  0.84272009  1
  N  N59  1  0.44578724  0.42404561  0.59411248  1
  N  N60  1  0.22294563  0.87243239  0.34196546  1
  N  N61  1  0.11517251  0.76037039  0.09028324  1
  N  N62  1  0.85177333  0.89645913  0.88875139  1
  N  N63  1  0.79592673  0.77066429  0.58462975  1
  N  N64  1  0.55692163  0.87230928  0.31668928  1
  N  N65  1  0.45452804  0.77593489  0.09760270  1
  N  N66  1  0.22315278  0.86871024  0.84162511  1
  N  N67  1  0.08270652  0.77437809  0.59069960  1
  N  N68  1  0.88927264  0.87165458  0.32396211  1
  N  N69  1  0.74435107  0.78188137  0.08145972  1
  N  N70  1  0.58168213  0.86490454  0.84812464  1
  N  N71  1  0.45100337  0.76206001  0.59071191  1
