# generated using pymatgen
data_Al31B5N36
_symmetry_space_group_name_H-M   'P 1'
_cell_length_a   9.17300452
_cell_length_b   9.23837030
_cell_length_c   10.25820465
_cell_angle_alpha   90.51162139
_cell_angle_beta   89.78020642
_cell_angle_gamma   59.82093801
_symmetry_Int_Tables_number   1
_chemical_formula_structural   Al31B5N36
_chemical_formula_sum   'Al31 B5 N36'
_cell_volume   751.42399482
_cell_formula_units_Z   1
loop_
 _symmetry_equiv_pos_site_id
 _symmetry_equiv_pos_as_xyz
  1  'x, y, z'
loop_
 _atom_site_type_symbol
 _atom_site_label
 _atom_site_symmetry_multiplicity
 _atom_site_fract_x
 _atom_site_fract_y
 _atom_site_fract_z
 _atom_site_occupancy
  Al  Al0  1  0.11601418  0.09284718  0.39820696  1
  Al  Al1  1  0.21461608  0.20498946  0.13172612  1
  Al  Al2  1  0.88540022  0.20251313  0.59138937  1
  Al  Al3  1  0.45460536  0.08594665  0.31717933  1
  Al  Al4  1  0.57532189  0.19482883  0.05928941  1
  Al  Al5  1  0.09289151  0.09769714  0.89035961  1
  Al  Al6  1  0.21691911  0.20640086  0.64935525  1
  Al  Al7  1  0.78189136  0.09610762  0.31892473  1
  Al  Al8  1  0.47201147  0.07702139  0.81798511  1
  Al  Al9  1  0.55673979  0.19948209  0.56848479  1
  Al  Al10  1  0.11035203  0.43118987  0.34414524  1
  Al  Al11  1  0.22910218  0.53533250  0.06379678  1
  Al  Al12  1  0.76898860  0.43734745  0.81454566  1
  Al  Al13  1  0.88632402  0.55209961  0.57059536  1
  Al  Al14  1  0.44480085  0.42483045  0.31834504  1
  Al  Al15  1  0.56462762  0.52704378  0.07404497  1
  Al  Al16  1  0.10430547  0.43334087  0.84672412  1
  Al  Al17  1  0.21235676  0.55094497  0.57538387  1
  Al  Al18  1  0.78211592  0.41912918  0.32467593  1
  Al  Al19  1  0.87998108  0.53794669  0.07217812  1
  Al  Al20  1  0.44986503  0.42691413  0.81547205  1
  Al  Al21  1  0.55759452  0.53285361  0.56628303  1
  Al  Al22  1  0.10831936  0.75837760  0.31128973  1
  Al  Al23  1  0.22347914  0.88265864  0.13770130  1
  Al  Al24  1  0.43305217  0.76702764  0.39276642  1
  Al  Al25  1  0.09223806  0.76064194  0.83478409  1
  Al  Al26  1  0.21789604  0.87675666  0.65221103  1
  Al  Al27  1  0.77043895  0.76234954  0.32298404  1
  Al  Al28  1  0.88676055  0.86964559  0.08827934  1
  Al  Al29  1  0.44970453  0.76873988  0.89286421  1
  Al  Al30  1  0.56361456  0.87616053  0.57577202  1
  B  B31  1  0.75753287  0.13426318  0.79940001  1
  B  B32  1  0.88814802  0.20445836  0.10579336  1
  B  B33  1  0.77576280  0.75880096  0.87182976  1
  B  B34  1  0.88214926  0.87052432  0.62656689  1
  B  B35  1  0.55867689  0.86752518  0.10435346  1
  N  N36  1  0.21904896  0.20324093  0.32173594  1
  N  N37  1  0.07881429  0.11027563  0.08016933  1
  N  N38  1  0.86927175  0.20062500  0.83422282  1
  N  N39  1  0.78133104  0.07219450  0.65098034  1
  N  N40  1  0.55580962  0.20422723  0.38117083  1
  N  N41  1  0.46885235  0.06181232  0.12085857  1
  N  N42  1  0.22145128  0.19856930  0.84175203  1
  N  N43  1  0.12018515  0.08946221  0.58330923  1
  N  N44  1  0.88030328  0.20712326  0.39643743  1
  N  N45  1  0.79605556  0.11074112  0.12578172  1
  N  N46  1  0.58544134  0.19555872  0.86903592  1
  N  N47  1  0.44792495  0.09484242  0.63401753  1
  N  N48  1  0.22280800  0.54509556  0.38628046  1
  N  N49  1  0.10784929  0.43277989  0.10889219  1
  N  N50  1  0.86939951  0.55905933  0.88391103  1
  N  N51  1  0.77449817  0.43844055  0.63059269  1
  N  N52  1  0.55659836  0.53407403  0.37574626  1
  N  N53  1  0.44930777  0.41692807  0.13051491  1
  N  N54  1  0.23087157  0.53332198  0.87881794  1
  N  N55  1  0.10813998  0.43205678  0.62247643  1
  N  N56  1  0.88369263  0.53965374  0.38045144  1
  N  N57  1  0.79535877  0.39504048  0.13167598  1
  N  N58  1  0.55488825  0.53551288  0.88858227  1
  N  N59  1  0.44475998  0.42734379  0.63030837  1
  N  N60  1  0.22087157  0.88033582  0.32371116  1
  N  N61  1  0.12220935  0.75328974  0.12160956  1
  N  N62  1  0.87779325  0.83831058  0.90319606  1
  N  N63  1  0.79435328  0.78065468  0.60572467  1
  N  N64  1  0.55247487  0.87754685  0.38701959  1
  N  N65  1  0.45667974  0.77917886  0.08696172  1
  N  N66  1  0.22205350  0.87230276  0.84002529  1
  N  N67  1  0.07523654  0.77899881  0.64186210  1
  N  N68  1  0.88447336  0.87319048  0.33121285  1
  N  N69  1  0.74351260  0.76526785  0.13276459  1
  N  N70  1  0.59180450  0.85128616  0.85637183  1
  N  N71  1  0.43536705  0.76341010  0.58387230  1
