# generated using pymatgen
data_Al31B5N36
_symmetry_space_group_name_H-M   'P 1'
_cell_length_a   9.17029228
_cell_length_b   9.14948738
_cell_length_c   10.18832880
_cell_angle_alpha   90.09547470
_cell_angle_beta   89.47235402
_cell_angle_gamma   60.01469017
_symmetry_Int_Tables_number   1
_chemical_formula_structural   Al31B5N36
_chemical_formula_sum   'Al31 B5 N36'
_cell_volume   740.36861588
_cell_formula_units_Z   1
loop_
 _symmetry_equiv_pos_site_id
 _symmetry_equiv_pos_as_xyz
  1  'x, y, z'
loop_
 _atom_site_type_symbol
 _atom_site_label
 _atom_site_symmetry_multiplicity
 _atom_site_fract_x
 _atom_site_fract_y
 _atom_site_fract_z
 _atom_site_occupancy
  Al  Al0  1  0.11539595  0.09329133  0.39705344  1
  Al  Al1  1  0.21193979  0.20601729  0.13223787  1
  Al  Al2  1  0.88752240  0.19987087  0.61458395  1
  Al  Al3  1  0.45475606  0.08201271  0.31386840  1
  Al  Al4  1  0.57338207  0.19149878  0.05660571  1
  Al  Al5  1  0.09738754  0.09520854  0.88368485  1
  Al  Al6  1  0.21362935  0.21309153  0.64514776  1
  Al  Al7  1  0.78101610  0.10493997  0.31481823  1
  Al  Al8  1  0.46133292  0.08423356  0.81420370  1
  Al  Al9  1  0.56289446  0.19453929  0.56640258  1
  Al  Al10  1  0.11133796  0.42450343  0.38944574  1
  Al  Al11  1  0.22049387  0.53896910  0.13886704  1
  Al  Al12  1  0.78000545  0.42093678  0.88064596  1
  Al  Al13  1  0.88840124  0.55413393  0.64275513  1
  Al  Al14  1  0.44471396  0.42789794  0.36505990  1
  Al  Al15  1  0.56210429  0.53395059  0.13364466  1
  Al  Al16  1  0.10332252  0.43798697  0.89251865  1
  Al  Al17  1  0.21554010  0.54440581  0.63724816  1
  Al  Al18  1  0.77655742  0.43118212  0.40043027  1
  Al  Al19  1  0.88001252  0.53776785  0.14154900  1
  Al  Al20  1  0.44851463  0.42110806  0.85637192  1
  Al  Al21  1  0.55527148  0.54366545  0.64603038  1
  Al  Al22  1  0.10202090  0.76920334  0.38831350  1
  Al  Al23  1  0.21678325  0.87797112  0.13786458  1
  Al  Al24  1  0.43927055  0.75800718  0.39196995  1
  Al  Al25  1  0.09852758  0.76607492  0.88907079  1
  Al  Al26  1  0.21507617  0.87470554  0.64619652  1
  Al  Al27  1  0.78305016  0.76187945  0.37973038  1
  Al  Al28  1  0.88322910  0.86992047  0.12769110  1
  Al  Al29  1  0.45446691  0.76467077  0.88840858  1
  Al  Al30  1  0.55645652  0.87584835  0.58430229  1
  B  B31  1  0.77572213  0.07617645  0.80267145  1
  B  B32  1  0.88705291  0.20529385  0.09371610  1
  B  B33  1  0.77263528  0.77509373  0.84677930  1
  B  B34  1  0.88745545  0.86985111  0.60897056  1
  B  B35  1  0.56058187  0.86698641  0.10103339  1
  N  N36  1  0.21895128  0.20547063  0.32012194  1
  N  N37  1  0.07884796  0.10817924  0.07727534  1
  N  N38  1  0.87691509  0.18982576  0.81830657  1
  N  N39  1  0.78463932  0.06055208  0.63975721  1
  N  N40  1  0.56024099  0.19672189  0.37687628  1
  N  N41  1  0.46427143  0.06216687  0.11809174  1
  N  N42  1  0.21393009  0.20994835  0.83627936  1
  N  N43  1  0.12069758  0.09090408  0.58346251  1
  N  N44  1  0.88512986  0.20188023  0.39383460  1
  N  N45  1  0.79291261  0.11397635  0.12290558  1
  N  N46  1  0.58771147  0.18405027  0.86741153  1
  N  N47  1  0.44301201  0.10006623  0.62967735  1
  N  N48  1  0.21773755  0.54269872  0.32921886  1
  N  N49  1  0.10505043  0.43206040  0.07803681  1
  N  N50  1  0.87617359  0.57079983  0.83300644  1
  N  N51  1  0.77572749  0.44248211  0.58833675  1
  N  N52  1  0.56108484  0.53817116  0.32223120  1
  N  N53  1  0.44454569  0.42316002  0.08757293  1
  N  N54  1  0.21777811  0.54176200  0.82446903  1
  N  N55  1  0.10928004  0.42963333  0.57664148  1
  N  N56  1  0.88981342  0.53442924  0.32855826  1
  N  N57  1  0.79351781  0.39721516  0.07393667  1
  N  N58  1  0.55693495  0.54137496  0.83291496  1
  N  N59  1  0.44701521  0.42693922  0.59777452  1
  N  N60  1  0.22073101  0.87327432  0.32511722  1
  N  N61  1  0.11131085  0.76003498  0.07513454  1
  N  N62  1  0.86386063  0.87611064  0.84841635  1
  N  N63  1  0.79943025  0.77467320  0.57467095  1
  N  N64  1  0.55255325  0.87507082  0.38884131  1
  N  N65  1  0.45559652  0.77675870  0.08044603  1
  N  N66  1  0.22449089  0.86941677  0.83289136  1
  N  N67  1  0.08002010  0.78028006  0.58194470  1
  N  N68  1  0.89046210  0.87137167  0.31668017  1
  N  N69  1  0.74294353  0.77183745  0.10789437  1
  N  N70  1  0.58889310  0.85230688  0.82933812  1
  N  N71  1  0.43400753  0.75798480  0.58036277  1
