# generated using pymatgen
data_Al31B5N36
_symmetry_space_group_name_H-M   'P 1'
_cell_length_a   9.17579748
_cell_length_b   9.24104817
_cell_length_c   10.20217692
_cell_angle_alpha   90.23637859
_cell_angle_beta   89.62557680
_cell_angle_gamma   59.80554412
_symmetry_Int_Tables_number   1
_chemical_formula_structural   Al31B5N36
_chemical_formula_sum   'Al31 B5 N36'
_cell_volume   747.66829876
_cell_formula_units_Z   1
loop_
 _symmetry_equiv_pos_site_id
 _symmetry_equiv_pos_as_xyz
  1  'x, y, z'
loop_
 _atom_site_type_symbol
 _atom_site_label
 _atom_site_symmetry_multiplicity
 _atom_site_fract_x
 _atom_site_fract_y
 _atom_site_fract_z
 _atom_site_occupancy
  Al  Al0  1  0.11700797  0.09401805  0.39715669  1
  Al  Al1  1  0.21890664  0.20232705  0.12585116  1
  Al  Al2  1  0.88628636  0.20158475  0.59284354  1
  Al  Al3  1  0.45586689  0.08383858  0.31041958  1
  Al  Al4  1  0.57548970  0.19806026  0.06000350  1
  Al  Al5  1  0.09127651  0.09989760  0.89035156  1
  Al  Al6  1  0.22058064  0.20136572  0.65128853  1
  Al  Al7  1  0.78197898  0.09530307  0.32026125  1
  Al  Al8  1  0.46914548  0.08013202  0.82813662  1
  Al  Al9  1  0.55715652  0.19645954  0.57016956  1
  Al  Al10  1  0.10755919  0.43418881  0.31722125  1
  Al  Al11  1  0.22761292  0.53543989  0.06455606  1
  Al  Al12  1  0.76906015  0.43848691  0.81434350  1
  Al  Al13  1  0.88869760  0.55007243  0.56803695  1
  Al  Al14  1  0.44392121  0.42325698  0.31989209  1
  Al  Al15  1  0.56315453  0.52979341  0.07574292  1
  Al  Al16  1  0.10076525  0.44074105  0.82509539  1
  Al  Al17  1  0.21095625  0.54802382  0.57283305  1
  Al  Al18  1  0.78286100  0.41835945  0.32578185  1
  Al  Al19  1  0.88259772  0.53732467  0.07221089  1
  Al  Al20  1  0.44863258  0.42741284  0.81567719  1
  Al  Al21  1  0.55750770  0.53226476  0.56671244  1
  Al  Al22  1  0.10788856  0.75736124  0.31277874  1
  Al  Al23  1  0.22399707  0.88220725  0.13883561  1
  Al  Al24  1  0.43441947  0.76572737  0.38884829  1
  Al  Al25  1  0.09354215  0.76112679  0.83673174  1
  Al  Al26  1  0.21797589  0.87520312  0.65029582  1
  Al  Al27  1  0.76846150  0.76080785  0.31660695  1
  Al  Al28  1  0.88682730  0.87064116  0.09210036  1
  Al  Al29  1  0.44328367  0.76751789  0.89604660  1
  Al  Al30  1  0.56438231  0.87518746  0.57140163  1
  B  B31  1  0.75730803  0.13476501  0.79945584  1
  B  B32  1  0.88827325  0.20548279  0.10671056  1
  B  B33  1  0.78081971  0.75896875  0.88132740  1
  B  B34  1  0.88153006  0.86884683  0.62870381  1
  B  B35  1  0.56509683  0.86786616  0.06980079  1
  N  N36  1  0.22095789  0.20134967  0.31920583  1
  N  N37  1  0.07848231  0.11102738  0.08012267  1
  N  N38  1  0.86912238  0.20176852  0.83204983  1
  N  N39  1  0.78228659  0.06999412  0.65146266  1
  N  N40  1  0.55573128  0.20148257  0.38191503  1
  N  N41  1  0.46944797  0.06665436  0.11397118  1
  N  N42  1  0.21927744  0.20308249  0.84653908  1
  N  N43  1  0.12127637  0.08933147  0.58371394  1
  N  N44  1  0.88089780  0.20576652  0.39722374  1
  N  N45  1  0.79614229  0.11224894  0.12659916  1
  N  N46  1  0.58609492  0.19725671  0.86935580  1
  N  N47  1  0.45220895  0.08829086  0.64166175  1
  N  N48  1  0.21991097  0.54148864  0.38495602  1
  N  N49  1  0.10598527  0.43751366  0.12596781  1
  N  N50  1  0.87068110  0.56127143  0.88359366  1
  N  N51  1  0.77542297  0.43804038  0.62944607  1
  N  N52  1  0.55635797  0.53289272  0.37576776  1
  N  N53  1  0.44831262  0.41868669  0.13096789  1
  N  N54  1  0.22893638  0.53261236  0.87991637  1
  N  N55  1  0.10647355  0.43306186  0.63582549  1
  N  N56  1  0.88662125  0.53810483  0.37928695  1
  N  N57  1  0.79575870  0.39583666  0.13108067  1
  N  N58  1  0.55475461  0.53584185  0.88667710  1
  N  N59  1  0.44339888  0.42597200  0.62938441  1
  N  N60  1  0.21922122  0.87957689  0.32612726  1
  N  N61  1  0.12235144  0.75357925  0.12132377  1
  N  N62  1  0.87881507  0.84148607  0.90377519  1
  N  N63  1  0.79242525  0.77838131  0.61239194  1
  N  N64  1  0.55281406  0.87695126  0.38510658  1
  N  N65  1  0.45344238  0.77763377  0.08633888  1
  N  N66  1  0.21965012  0.87471732  0.83875060  1
  N  N67  1  0.07493513  0.77686148  0.64107396  1
  N  N68  1  0.88312746  0.87163488  0.32930250  1
  N  N69  1  0.74605753  0.76395798  0.12879384  1
  N  N70  1  0.58811574  0.85970020  0.89771156  1
  N  N71  1  0.43776629  0.76237148  0.58612010  1
