# generated using pymatgen
data_Al31B5N36
_symmetry_space_group_name_H-M   'P 1'
_cell_length_a   9.18045664
_cell_length_b   9.17648222
_cell_length_c   9.98736864
_cell_angle_alpha   89.96577742
_cell_angle_beta   89.80811616
_cell_angle_gamma   60.14417312
_symmetry_Int_Tables_number   1
_chemical_formula_structural   Al31B5N36
_chemical_formula_sum   'Al31 B5 N36'
_cell_volume   729.70708306
_cell_formula_units_Z   1
loop_
 _symmetry_equiv_pos_site_id
 _symmetry_equiv_pos_as_xyz
  1  'x, y, z'
loop_
 _atom_site_type_symbol
 _atom_site_label
 _atom_site_symmetry_multiplicity
 _atom_site_fract_x
 _atom_site_fract_y
 _atom_site_fract_z
 _atom_site_occupancy
  Al  Al0  1  0.11212067  0.09664765  0.40095252  1
  Al  Al1  1  0.20913114  0.20819704  0.14442893  1
  Al  Al2  1  0.88593865  0.19086673  0.65001713  1
  Al  Al3  1  0.44954817  0.09091217  0.33212220  1
  Al  Al4  1  0.57178214  0.19931121  0.08864724  1
  Al  Al5  1  0.09442391  0.09096763  0.90676166  1
  Al  Al6  1  0.21984944  0.20511793  0.65643701  1
  Al  Al7  1  0.78379069  0.09475132  0.33651656  1
  Al  Al8  1  0.44817580  0.08536651  0.89234265  1
  Al  Al9  1  0.56333057  0.18882558  0.57363803  1
  Al  Al10  1  0.11045793  0.42714536  0.40165687  1
  Al  Al11  1  0.22127648  0.54040501  0.15249142  1
  Al  Al12  1  0.77681023  0.41792042  0.90489996  1
  Al  Al13  1  0.88682314  0.54883353  0.65715774  1
  Al  Al14  1  0.44145998  0.43562429  0.39968735  1
  Al  Al15  1  0.56137206  0.53571802  0.15213147  1
  Al  Al16  1  0.10058537  0.43663585  0.90289050  1
  Al  Al17  1  0.21662516  0.54073664  0.64944642  1
  Al  Al18  1  0.78145303  0.42665325  0.40132477  1
  Al  Al19  1  0.88106073  0.54078186  0.14783062  1
  Al  Al20  1  0.44359307  0.42943908  0.89709926  1
  Al  Al21  1  0.55753492  0.53796464  0.65229407  1
  Al  Al22  1  0.10592584  0.76441581  0.39618982  1
  Al  Al23  1  0.21998522  0.87701628  0.15291386  1
  Al  Al24  1  0.44855610  0.76304394  0.39763444  1
  Al  Al25  1  0.09866811  0.76641874  0.89980474  1
  Al  Al26  1  0.21973217  0.87375722  0.64991329  1
  Al  Al27  1  0.77934345  0.76362502  0.39079761  1
  Al  Al28  1  0.88503688  0.87621997  0.12785443  1
  Al  Al29  1  0.45065021  0.76039008  0.90545705  1
  Al  Al30  1  0.56876564  0.87223720  0.65725687  1
  B  B31  1  0.77140925  0.07964487  0.87247773  1
  B  B32  1  0.88990864  0.20892399  0.15920936  1
  B  B33  1  0.75723106  0.78034750  0.91677767  1
  B  B34  1  0.88818746  0.87452668  0.59874233  1
  B  B35  1  0.55861088  0.86210404  0.14599486  1
  N  N36  1  0.22058947  0.20771165  0.33469385  1
  N  N37  1  0.08214079  0.10587271  0.09735984  1
  N  N38  1  0.86887187  0.18013017  0.84270637  1
  N  N39  1  0.79789050  0.05810453  0.58862850  1
  N  N40  1  0.55700861  0.20448774  0.37741636  1
  N  N41  1  0.45343083  0.07179656  0.10835497  1
  N  N42  1  0.21101154  0.20614963  0.85136835  1
  N  N43  1  0.10819967  0.09561862  0.59101711  1
  N  N44  1  0.89858169  0.21355587  0.32540386  1
  N  N45  1  0.78945465  0.11217652  0.13996988  1
  N  N46  1  0.58275945  0.18825870  0.88974592  1
  N  N47  1  0.44214212  0.09238186  0.61942824  1
  N  N48  1  0.22158720  0.53995342  0.34216478  1
  N  N49  1  0.10696622  0.43297996  0.09085761  1
  N  N50  1  0.87192817  0.56355443  0.85116155  1
  N  N51  1  0.78217291  0.42266488  0.59451766  1
  N  N52  1  0.55858806  0.53896184  0.34063656  1
  N  N53  1  0.44113415  0.43289955  0.08978671  1
  N  N54  1  0.21874100  0.54011921  0.83815831  1
  N  N55  1  0.10774165  0.42705652  0.59246550  1
  N  N56  1  0.88874990  0.54036017  0.33856216  1
  N  N57  1  0.79076973  0.40140409  0.09646957  1
  N  N58  1  0.55624632  0.53880364  0.84238223  1
  N  N59  1  0.44335722  0.43016477  0.59203219  1
  N  N60  1  0.22388045  0.87238368  0.34314831  1
  N  N61  1  0.11673075  0.75925348  0.08835621  1
  N  N62  1  0.85590963  0.89132981  0.88791475  1
  N  N63  1  0.79270142  0.77490440  0.58521541  1
  N  N64  1  0.56416737  0.86088479  0.31199457  1
  N  N65  1  0.45493818  0.77237115  0.09683705  1
  N  N66  1  0.22363817  0.86976627  0.84142780  1
  N  N67  1  0.08382707  0.77399644  0.59205504  1
  N  N68  1  0.89400239  0.86275478  0.32366412  1
  N  N69  1  0.74731209  0.77167216  0.08030693  1
  N  N70  1  0.58072750  0.85742556  0.84905074  1
  N  N71  1  0.45048912  0.76225429  0.59032015  1
