# generated using pymatgen
data_Al31B5N36
_symmetry_space_group_name_H-M   'P 1'
_cell_length_a   9.15098584
_cell_length_b   9.21352103
_cell_length_c   10.36412262
_cell_angle_alpha   90.50644710
_cell_angle_beta   89.77705931
_cell_angle_gamma   59.85069859
_symmetry_Int_Tables_number   1
_chemical_formula_structural   Al31B5N36
_chemical_formula_sum   'Al31 B5 N36'
_cell_volume   755.55175830
_cell_formula_units_Z   1
loop_
 _symmetry_equiv_pos_site_id
 _symmetry_equiv_pos_as_xyz
  1  'x, y, z'
loop_
 _atom_site_type_symbol
 _atom_site_label
 _atom_site_symmetry_multiplicity
 _atom_site_fract_x
 _atom_site_fract_y
 _atom_site_fract_z
 _atom_site_occupancy
  Al  Al0  1  0.11664254  0.09219481  0.39779343  1
  Al  Al1  1  0.21127247  0.20821416  0.13672228  1
  Al  Al2  1  0.88557347  0.20195842  0.58886303  1
  Al  Al3  1  0.45395186  0.08702584  0.31675664  1
  Al  Al4  1  0.57440422  0.19439367  0.05872728  1
  Al  Al5  1  0.09280738  0.09684056  0.88976834  1
  Al  Al6  1  0.21368381  0.21127509  0.64885385  1
  Al  Al7  1  0.78150088  0.09648075  0.31924474  1
  Al  Al8  1  0.47154262  0.07690736  0.81519774  1
  Al  Al9  1  0.55644505  0.19988343  0.56793055  1
  Al  Al10  1  0.11657756  0.42182378  0.39083323  1
  Al  Al11  1  0.23174769  0.53743815  0.06380870  1
  Al  Al12  1  0.76997529  0.43700886  0.81431190  1
  Al  Al13  1  0.88116657  0.55496009  0.56863786  1
  Al  Al14  1  0.44456691  0.42595046  0.31776599  1
  Al  Al15  1  0.56546720  0.52595691  0.07262331  1
  Al  Al16  1  0.10875576  0.42394903  0.88995628  1
  Al  Al17  1  0.21564002  0.55438685  0.57313264  1
  Al  Al18  1  0.78311529  0.42001252  0.32399679  1
  Al  Al19  1  0.87534147  0.54069186  0.07368912  1
  Al  Al20  1  0.44974206  0.42667937  0.81485499  1
  Al  Al21  1  0.55858707  0.53236875  0.56537598  1
  Al  Al22  1  0.10732082  0.75836913  0.31099355  1
  Al  Al23  1  0.22373452  0.88260724  0.13831178  1
  Al  Al24  1  0.43312572  0.76662232  0.39268817  1
  Al  Al25  1  0.09237134  0.75806644  0.83247365  1
  Al  Al26  1  0.21830671  0.87745646  0.65271105  1
  Al  Al27  1  0.77163683  0.76293094  0.32249633  1
  Al  Al28  1  0.88648961  0.87074223  0.08377766  1
  Al  Al29  1  0.44975498  0.76840867  0.89359718  1
  Al  Al30  1  0.56214020  0.87783956  0.57366980  1
  B  B31  1  0.75725634  0.13425585  0.79978054  1
  B  B32  1  0.88851934  0.20378947  0.10553869  1
  B  B33  1  0.77554363  0.75791833  0.87167129  1
  B  B34  1  0.88139961  0.87096097  0.62703991  1
  B  B35  1  0.55780811  0.86880481  0.10506392  1
  N  N36  1  0.21639123  0.20780060  0.32033716  1
  N  N37  1  0.07956488  0.10980663  0.07922669  1
  N  N38  1  0.86882223  0.20020047  0.83575272  1
  N  N39  1  0.78116313  0.07286763  0.65149428  1
  N  N40  1  0.55484989  0.20540623  0.38173621  1
  N  N41  1  0.46703462  0.06281408  0.12232169  1
  N  N42  1  0.21780723  0.20104493  0.83522252  1
  N  N43  1  0.12064256  0.08919164  0.58188480  1
  N  N44  1  0.88039449  0.20786119  0.39613194  1
  N  N45  1  0.79570078  0.11014231  0.12611997  1
  N  N46  1  0.58468561  0.19509329  0.86907226  1
  N  N47  1  0.44688383  0.09580914  0.63371085  1
  N  N48  1  0.22541813  0.54781811  0.38493327  1
  N  N49  1  0.11075650  0.42514472  0.07926640  1
  N  N50  1  0.86785085  0.55992214  0.88415174  1
  N  N51  1  0.77552299  0.43763682  0.63160688  1
  N  N52  1  0.55799378  0.53336142  0.37656120  1
  N  N53  1  0.44978637  0.41675477  0.13096966  1
  N  N54  1  0.23158695  0.53282899  0.87779769  1
  N  N55  1  0.11457495  0.42282373  0.58047991  1
  N  N56  1  0.88252910  0.54160151  0.37792697  1
  N  N57  1  0.79549524  0.39481671  0.13243065  1
  N  N58  1  0.55543275  0.53452258  0.88898404  1
  N  N59  1  0.44525989  0.42765319  0.63119630  1
  N  N60  1  0.22161764  0.88074444  0.32190390  1
  N  N61  1  0.11994014  0.75384064  0.12305857  1
  N  N62  1  0.87790069  0.83847355  0.90222079  1
  N  N63  1  0.79304839  0.78087220  0.60774312  1
  N  N64  1  0.55230747  0.87844505  0.38676632  1
  N  N65  1  0.45740867  0.77834072  0.08631279  1
  N  N66  1  0.22244290  0.87150415  0.83890300  1
  N  N67  1  0.07513318  0.77808387  0.64284470  1
  N  N68  1  0.88455781  0.87462426  0.33767052  1
  N  N69  1  0.74385497  0.76785587  0.13325103  1
  N  N70  1  0.59087489  0.85211023  0.85696997  1
  N  N71  1  0.43493973  0.76349917  0.58214506  1
