# generated using pymatgen
data_Al31B5N36
_symmetry_space_group_name_H-M   'P 1'
_cell_length_a   9.16919328
_cell_length_b   9.14888512
_cell_length_c   10.18761507
_cell_angle_alpha   90.09908452
_cell_angle_beta   89.47261667
_cell_angle_gamma   60.01584857
_symmetry_Int_Tables_number   1
_chemical_formula_structural   Al31B5N36
_chemical_formula_sum   'Al31 B5 N36'
_cell_volume   740.18759289
_cell_formula_units_Z   1
loop_
 _symmetry_equiv_pos_site_id
 _symmetry_equiv_pos_as_xyz
  1  'x, y, z'
loop_
 _atom_site_type_symbol
 _atom_site_label
 _atom_site_symmetry_multiplicity
 _atom_site_fract_x
 _atom_site_fract_y
 _atom_site_fract_z
 _atom_site_occupancy
  Al  Al0  1  0.11538646  0.09328511  0.39704364  1
  Al  Al1  1  0.21189560  0.20602872  0.13223678  1
  Al  Al2  1  0.88754244  0.19988742  0.61455693  1
  Al  Al3  1  0.45475182  0.08208194  0.31387944  1
  Al  Al4  1  0.57368528  0.19085699  0.05664284  1
  Al  Al5  1  0.09739533  0.09520436  0.88367423  1
  Al  Al6  1  0.21358882  0.21312475  0.64514265  1
  Al  Al7  1  0.78088735  0.10502768  0.31481746  1
  Al  Al8  1  0.46133818  0.08435835  0.81419345  1
  Al  Al9  1  0.56314372  0.19410169  0.56634602  1
  Al  Al10  1  0.11139390  0.42451482  0.38934957  1
  Al  Al11  1  0.22091531  0.53874722  0.13896853  1
  Al  Al12  1  0.77999032  0.42094247  0.88051767  1
  Al  Al13  1  0.88836410  0.55413810  0.64271441  1
  Al  Al14  1  0.44436635  0.42870475  0.37000104  1
  Al  Al15  1  0.56194266  0.53370819  0.13377308  1
  Al  Al16  1  0.10337493  0.43799138  0.89244604  1
  Al  Al17  1  0.21585030  0.54423365  0.63722719  1
  Al  Al18  1  0.77649386  0.43119671  0.40035287  1
  Al  Al19  1  0.88000582  0.53778056  0.14151579  1
  Al  Al20  1  0.44803652  0.42202667  0.86150154  1
  Al  Al21  1  0.55497028  0.54338954  0.64596851  1
  Al  Al22  1  0.10208182  0.76910337  0.38821972  1
  Al  Al23  1  0.21679226  0.87795918  0.13784711  1
  Al  Al24  1  0.43930720  0.75797961  0.39187638  1
  Al  Al25  1  0.09853600  0.76604811  0.88898689  1
  Al  Al26  1  0.21508654  0.87469050  0.64616406  1
  Al  Al27  1  0.78303890  0.76191153  0.37972667  1
  Al  Al28  1  0.88333033  0.86982270  0.12771687  1
  Al  Al29  1  0.45450902  0.76464356  0.88830256  1
  Al  Al30  1  0.55643772  0.87580660  0.58432361  1
  B  B31  1  0.77563291  0.07628745  0.80267558  1
  B  B32  1  0.88705068  0.20531975  0.09368887  1
  B  B33  1  0.77263463  0.77510964  0.84677050  1
  B  B34  1  0.88750845  0.86980621  0.60895119  1
  B  B35  1  0.56059142  0.86691483  0.10102033  1
  N  N36  1  0.21892026  0.20545035  0.32009862  1
  N  N37  1  0.07883441  0.10817624  0.07726863  1
  N  N38  1  0.87694888  0.18982513  0.81830063  1
  N  N39  1  0.78468311  0.06055069  0.63975331  1
  N  N40  1  0.56026456  0.19662370  0.37664290  1
  N  N41  1  0.46423301  0.06215098  0.11806291  1
  N  N42  1  0.21392505  0.20995176  0.83628188  1
  N  N43  1  0.12071354  0.09089311  0.58345977  1
  N  N44  1  0.88512106  0.20188580  0.39382897  1
  N  N45  1  0.79289474  0.11400183  0.12291410  1
  N  N46  1  0.58776944  0.18409008  0.86727736  1
  N  N47  1  0.44298441  0.10011348  0.62969754  1
  N  N48  1  0.21826843  0.54239127  0.32899953  1
  N  N49  1  0.10513351  0.43207984  0.07802525  1
  N  N50  1  0.87618910  0.57081105  0.83300166  1
  N  N51  1  0.77560895  0.44250088  0.58834605  1
  N  N52  1  0.56079794  0.53789890  0.32208275  1
  N  N53  1  0.44424029  0.42371635  0.08405575  1
  N  N54  1  0.21829133  0.54149327  0.82421962  1
  N  N55  1  0.10928381  0.42966036  0.57662466  1
  N  N56  1  0.88979460  0.53444978  0.32853585  1
  N  N57  1  0.79344679  0.39723975  0.07391474  1
  N  N58  1  0.55679102  0.54120855  0.83256174  1
  N  N59  1  0.44657031  0.42776936  0.59372386  1
  N  N60  1  0.22072432  0.87328640  0.32509463  1
  N  N61  1  0.11139754  0.75991877  0.07510718  1
  N  N62  1  0.86388583  0.87608447  0.84840350  1
  N  N63  1  0.79940867  0.77469046  0.57466407  1
  N  N64  1  0.55253802  0.87506325  0.38881370  1
  N  N65  1  0.45563101  0.77665399  0.08040950  1
  N  N66  1  0.22449805  0.86940839  0.83288381  1
  N  N67  1  0.08005089  0.78022098  0.58192139  1
  N  N68  1  0.89050273  0.87135166  0.31665687  1
  N  N69  1  0.74295054  0.77185447  0.10786997  1
  N  N70  1  0.58888288  0.85233973  0.82931412  1
  N  N71  1  0.43404317  0.75794383  0.58037080  1
