# generated using pymatgen
data_Al31B5N36
_symmetry_space_group_name_H-M   'P 1'
_cell_length_a   9.15746046
_cell_length_b   9.14695784
_cell_length_c   10.28140321
_cell_angle_alpha   90.13276564
_cell_angle_beta   89.46633285
_cell_angle_gamma   60.06300775
_symmetry_Int_Tables_number   1
_chemical_formula_structural   Al31B5N36
_chemical_formula_sum   'Al31 B5 N36'
_cell_volume   746.23784511
_cell_formula_units_Z   1
loop_
 _symmetry_equiv_pos_site_id
 _symmetry_equiv_pos_as_xyz
  1  'x, y, z'
loop_
 _atom_site_type_symbol
 _atom_site_label
 _atom_site_symmetry_multiplicity
 _atom_site_fract_x
 _atom_site_fract_y
 _atom_site_fract_z
 _atom_site_occupancy
  Al  Al0  1  0.11637199  0.09396565  0.39827582  1
  Al  Al1  1  0.21247670  0.20616872  0.13458556  1
  Al  Al2  1  0.88734157  0.20023720  0.61475058  1
  Al  Al3  1  0.45642851  0.08149393  0.31501656  1
  Al  Al4  1  0.57352569  0.19285921  0.05695809  1
  Al  Al5  1  0.09691776  0.09463450  0.88508384  1
  Al  Al6  1  0.21396039  0.21142287  0.64688198  1
  Al  Al7  1  0.78028985  0.10644503  0.31621574  1
  Al  Al8  1  0.46201514  0.08314643  0.81396631  1
  Al  Al9  1  0.56071574  0.19810851  0.56442058  1
  Al  Al10  1  0.11036431  0.42263305  0.39197208  1
  Al  Al11  1  0.22981600  0.53532915  0.06557520  1
  Al  Al12  1  0.77731121  0.42044474  0.88245176  1
  Al  Al13  1  0.88802435  0.55475408  0.64430361  1
  Al  Al14  1  0.44117969  0.42331001  0.31544385  1
  Al  Al15  1  0.56574511  0.53860860  0.13571313  1
  Al  Al16  1  0.09889934  0.43255459  0.88980708  1
  Al  Al17  1  0.22466146  0.54202150  0.57646202  1
  Al  Al18  1  0.77503618  0.43166494  0.40105381  1
  Al  Al19  1  0.88217103  0.53748645  0.14362934  1
  Al  Al20  1  0.44815769  0.41460438  0.81711675  1
  Al  Al21  1  0.55693580  0.54641494  0.64871683  1
  Al  Al22  1  0.09996233  0.77583966  0.38932812  1
  Al  Al23  1  0.21633514  0.87954039  0.13948553  1
  Al  Al24  1  0.43954307  0.75554133  0.39233798  1
  Al  Al25  1  0.09443037  0.77163472  0.88596441  1
  Al  Al26  1  0.21410338  0.87541071  0.64758510  1
  Al  Al27  1  0.78408029  0.76127914  0.38246295  1
  Al  Al28  1  0.88402779  0.86938375  0.13185478  1
  Al  Al29  1  0.45359458  0.76358179  0.88958286  1
  Al  Al30  1  0.55526012  0.87661055  0.58215381  1
  B  B31  1  0.77372102  0.07824195  0.80268929  1
  B  B32  1  0.88746595  0.20519757  0.09481921  1
  B  B33  1  0.77116957  0.77509227  0.84572308  1
  B  B34  1  0.88577868  0.87158000  0.61285207  1
  B  B35  1  0.56132485  0.86745973  0.10148788  1
  N  N36  1  0.22014269  0.20605254  0.32055514  1
  N  N37  1  0.07927365  0.10873327  0.07775911  1
  N  N38  1  0.87646975  0.18956637  0.81898264  1
  N  N39  1  0.78127007  0.06387490  0.64079338  1
  N  N40  1  0.55781039  0.20225132  0.37789796  1
  N  N41  1  0.46531804  0.06216169  0.11998021  1
  N  N42  1  0.21454705  0.20654397  0.83504721  1
  N  N43  1  0.12080606  0.09041860  0.58315300  1
  N  N44  1  0.88614537  0.20202114  0.39420747  1
  N  N45  1  0.79290190  0.11413145  0.12460505  1
  N  N46  1  0.58514087  0.18646778  0.87053868  1
  N  N47  1  0.44391401  0.09963047  0.63003672  1
  N  N48  1  0.22695151  0.54222154  0.38431492  1
  N  N49  1  0.10311255  0.42841505  0.07743369  1
  N  N50  1  0.87437421  0.57087002  0.83211692  1
  N  N51  1  0.77477298  0.44278340  0.58784493  1
  N  N52  1  0.56266110  0.53888025  0.32205142  1
  N  N53  1  0.44625507  0.41709854  0.12567393  1
  N  N54  1  0.22685177  0.53537654  0.87214940  1
  N  N55  1  0.10658320  0.42631514  0.58125980  1
  N  N56  1  0.89089345  0.53445085  0.32934653  1
  N  N57  1  0.79337869  0.39733879  0.07411517  1
  N  N58  1  0.55542006  0.54081865  0.83595995  1
  N  N59  1  0.44810820  0.42043268  0.63083310  1
  N  N60  1  0.22115897  0.87504210  0.32471127  1
  N  N61  1  0.10788349  0.76787393  0.07485346  1
  N  N62  1  0.86214453  0.87634411  0.84432748  1
  N  N63  1  0.79872113  0.77508580  0.57548439  1
  N  N64  1  0.55255173  0.87469231  0.38978410  1
  N  N65  1  0.45501504  0.77761000  0.08039963  1
  N  N66  1  0.22422193  0.86992696  0.83204679  1
  N  N67  1  0.07648001  0.78578747  0.58575198  1
  N  N68  1  0.88979599  0.87208774  0.31795975  1
  N  N69  1  0.74382699  0.77139175  0.10891416  1
  N  N70  1  0.58749319  0.85215531  0.83122266  1
  N  N71  1  0.43254127  0.75692862  0.57948098  1
