# generated using pymatgen
data_Al31B5N36
_symmetry_space_group_name_H-M   'P 1'
_cell_length_a   9.20762582
_cell_length_b   9.20965505
_cell_length_c   9.80093270
_cell_angle_alpha   89.47001803
_cell_angle_beta   89.30234145
_cell_angle_gamma   59.75472387
_symmetry_Int_Tables_number   1
_chemical_formula_structural   Al31B5N36
_chemical_formula_sum   'Al31 B5 N36'
_cell_volume   717.91882299
_cell_formula_units_Z   1
loop_
 _symmetry_equiv_pos_site_id
 _symmetry_equiv_pos_as_xyz
  1  'x, y, z'
loop_
 _atom_site_type_symbol
 _atom_site_label
 _atom_site_symmetry_multiplicity
 _atom_site_fract_x
 _atom_site_fract_y
 _atom_site_fract_z
 _atom_site_occupancy
  Al  Al0  1  0.10407888  0.09749376  0.31032137  1
  Al  Al1  1  0.22184204  0.20305111  0.06187751  1
  Al  Al2  1  0.88560773  0.19840900  0.57414586  1
  Al  Al3  1  0.44861860  0.08770656  0.30526951  1
  Al  Al4  1  0.57311381  0.19691473  0.05489375  1
  Al  Al5  1  0.10620305  0.09881258  0.82055919  1
  Al  Al6  1  0.22084189  0.20300321  0.56220517  1
  Al  Al7  1  0.78197196  0.09292899  0.31354195  1
  Al  Al8  1  0.45292223  0.08477504  0.81705810  1
  Al  Al9  1  0.55655633  0.19794380  0.56278486  1
  Al  Al10  1  0.10898870  0.42876778  0.31121216  1
  Al  Al11  1  0.22160874  0.54103312  0.05942171  1
  Al  Al12  1  0.78037896  0.42981617  0.82059396  1
  Al  Al13  1  0.88627027  0.54391438  0.56885063  1
  Al  Al14  1  0.44505862  0.42561789  0.30993745  1
  Al  Al15  1  0.56301641  0.53637360  0.06271054  1
  Al  Al16  1  0.10825039  0.43346456  0.81160419  1
  Al  Al17  1  0.21650989  0.54175698  0.56129824  1
  Al  Al18  1  0.78151789  0.42245628  0.31075579  1
  Al  Al19  1  0.88200044  0.54686301  0.05839006  1
  Al  Al20  1  0.45319276  0.42209186  0.80891375  1
  Al  Al21  1  0.55622191  0.53898061  0.56079222  1
  Al  Al22  1  0.10411573  0.76422818  0.31829977  1
  Al  Al23  1  0.21827781  0.87883194  0.06279600  1
  Al  Al24  1  0.44719009  0.76464874  0.30698549  1
  Al  Al25  1  0.09826639  0.76889950  0.80733893  1
  Al  Al26  1  0.21670002  0.87386607  0.56295223  1
  Al  Al27  1  0.77359814  0.76587100  0.31521057  1
  Al  Al28  1  0.87894235  0.88368968  0.05481302  1
  Al  Al29  1  0.44896647  0.76023196  0.81915542  1
  Al  Al30  1  0.55949695  0.87099017  0.56808965  1
  B  B31  1  0.75647596  0.05754612  0.79212962  1
  B  B32  1  0.89380845  0.20966188  0.05572057  1
  B  B33  1  0.77647168  0.76628206  0.81109659  1
  B  B34  1  0.88672887  0.86821394  0.57026285  1
  B  B35  1  0.56549114  0.86929922  0.05595475  1
  N  N36  1  0.22318844  0.20286477  0.36642081  1
  N  N37  1  0.08869662  0.10763230  0.11704056  1
  N  N38  1  0.89544096  0.21653374  0.89800431  1
  N  N39  1  0.78425604  0.06396609  0.63709702  1
  N  N40  1  0.55642014  0.20145289  0.36925457  1
  N  N41  1  0.46215032  0.06923597  0.10716238  1
  N  N42  1  0.22726616  0.20702089  0.87118975  1
  N  N43  1  0.10799047  0.09425853  0.62708279  1
  N  N44  1  0.88581927  0.20410080  0.38245518  1
  N  N45  1  0.79483385  0.10543264  0.11842120  1
  N  N46  1  0.58720942  0.18425793  0.85697569  1
  N  N47  1  0.44200204  0.09234299  0.62507004  1
  N  N48  1  0.22136564  0.53849692  0.36935927  1
  N  N49  1  0.10857383  0.43049779  0.11800641  1
  N  N50  1  0.87593454  0.57307734  0.86339289  1
  N  N51  1  0.77718914  0.42548338  0.62704141  1
  N  N52  1  0.55500858  0.53970130  0.36593920  1
  N  N53  1  0.44658934  0.42337910  0.11585222  1
  N  N54  1  0.22402281  0.54127503  0.86639861  1
  N  N55  1  0.11047458  0.42611886  0.62012616  1
  N  N56  1  0.88525484  0.54145579  0.37323259  1
  N  N57  1  0.79227872  0.40722343  0.11624232  1
  N  N58  1  0.55583862  0.53706326  0.87290048  1
  N  N59  1  0.44457494  0.42572367  0.61712382  1
  N  N60  1  0.22204304  0.87215331  0.36808628  1
  N  N61  1  0.10329516  0.76484407  0.12165341  1
  N  N62  1  0.86070398  0.88228050  0.85938911  1
  N  N63  1  0.78547442  0.77208025  0.63760830  1
  N  N64  1  0.55460222  0.87175252  0.37767025  1
  N  N65  1  0.45846858  0.77507750  0.11043506  1
  N  N66  1  0.21920074  0.87129418  0.87102744  1
  N  N67  1  0.08339881  0.77351566  0.61411166  1
  N  N68  1  0.88259675  0.87368083  0.39849501  1
  N  N69  1  0.75458858  0.77790927  0.11873953  1
  N  N70  1  0.58085408  0.85816722  0.88108366  1
  N  N71  1  0.44275908  0.76085453  0.62484241  1
