# generated using pymatgen
data_Al31B5N36
_symmetry_space_group_name_H-M   'P 1'
_cell_length_a   9.13998000
_cell_length_b   9.11551897
_cell_length_c   10.28431445
_cell_angle_alpha   90.26679093
_cell_angle_beta   89.54943234
_cell_angle_gamma   60.12797737
_symmetry_Int_Tables_number   1
_chemical_formula_structural   Al31B5N36
_chemical_formula_sum   'Al31 B5 N36'
_cell_volume   742.94486227
_cell_formula_units_Z   1
loop_
 _symmetry_equiv_pos_site_id
 _symmetry_equiv_pos_as_xyz
  1  'x, y, z'
loop_
 _atom_site_type_symbol
 _atom_site_label
 _atom_site_symmetry_multiplicity
 _atom_site_fract_x
 _atom_site_fract_y
 _atom_site_fract_z
 _atom_site_occupancy
  Al  Al0  1  0.11719364  0.09300173  0.40632825  1
  Al  Al1  1  0.20965381  0.20639257  0.14425379  1
  Al  Al2  1  0.88665678  0.19504559  0.61146714  1
  Al  Al3  1  0.45323934  0.08315856  0.32321336  1
  Al  Al4  1  0.57143366  0.18822086  0.07548036  1
  Al  Al5  1  0.09811700  0.09272608  0.89548398  1
  Al  Al6  1  0.21299663  0.21265655  0.65609257  1
  Al  Al7  1  0.78059325  0.10445637  0.32940901  1
  Al  Al8  1  0.46195967  0.08654812  0.82477958  1
  Al  Al9  1  0.56514785  0.18945098  0.56995311  1
  Al  Al10  1  0.11117815  0.42542598  0.40031085  1
  Al  Al11  1  0.22149325  0.53827661  0.15243320  1
  Al  Al12  1  0.77844625  0.42025898  0.89163159  1
  Al  Al13  1  0.88779384  0.55352575  0.65372947  1
  Al  Al14  1  0.44113121  0.43404676  0.39836998  1
  Al  Al15  1  0.56151998  0.53317746  0.14803160  1
  Al  Al16  1  0.10352702  0.43830125  0.90316188  1
  Al  Al17  1  0.21794630  0.54225893  0.64812269  1
  Al  Al18  1  0.77549722  0.43337886  0.41003998  1
  Al  Al19  1  0.88003256  0.53778898  0.15255515  1
  Al  Al20  1  0.44479177  0.42920268  0.89818175  1
  Al  Al21  1  0.55313329  0.53952720  0.65640413  1
  Al  Al22  1  0.10395661  0.76755735  0.39784842  1
  Al  Al23  1  0.21753362  0.87718005  0.14889655  1
  Al  Al24  1  0.43942982  0.75817146  0.40310400  1
  Al  Al25  1  0.09973302  0.76551253  0.90024835  1
  Al  Al26  1  0.21518803  0.87299228  0.65571144  1
  Al  Al27  1  0.78277976  0.76248079  0.39114333  1
  Al  Al28  1  0.88433944  0.86915394  0.13970066  1
  Al  Al29  1  0.45519104  0.76376240  0.89814604  1
  Al  Al30  1  0.55697187  0.87612417  0.59342683  1
  B  B31  1  0.77682598  0.08038959  0.85293830  1
  B  B32  1  0.88613401  0.20511134  0.10563016  1
  B  B33  1  0.77039142  0.77868770  0.86097960  1
  B  B34  1  0.88659205  0.87407326  0.60404492  1
  B  B35  1  0.56003005  0.86542897  0.11147571  1
  N  N36  1  0.21787086  0.20678079  0.32988153  1
  N  N37  1  0.07860166  0.10728861  0.08752033  1
  N  N38  1  0.87285724  0.18132067  0.83852676  1
  N  N39  1  0.79075884  0.05675732  0.61293455  1
  N  N40  1  0.55614168  0.20046252  0.38128009  1
  N  N41  1  0.46168401  0.06104486  0.13009632  1
  N  N42  1  0.21140804  0.21043126  0.84562688  1
  N  N43  1  0.12114000  0.08953052  0.59261067  1
  N  N44  1  0.88794911  0.20509015  0.39856020  1
  N  N45  1  0.79159993  0.11438173  0.13661724  1
  N  N46  1  0.58698139  0.18557085  0.88684639  1
  N  N47  1  0.44402939  0.10092287  0.64262853  1
  N  N48  1  0.22052082  0.54091760  0.33842634  1
  N  N49  1  0.10579157  0.43171373  0.08804574  1
  N  N50  1  0.87604141  0.57284003  0.84374621  1
  N  N51  1  0.77544499  0.43875687  0.59944871  1
  N  N52  1  0.55883468  0.53769262  0.33317227  1
  N  N53  1  0.44195713  0.42744318  0.08597145  1
  N  N54  1  0.22256177  0.53906532  0.83451615  1
  N  N55  1  0.10930135  0.42862309  0.58702728  1
  N  N56  1  0.88946605  0.53563421  0.33823130  1
  N  N57  1  0.79215677  0.39757368  0.08426589  1
  N  N58  1  0.55564699  0.53906782  0.84113927  1
  N  N59  1  0.44402734  0.43038494  0.58675017  1
  N  N60  1  0.22187954  0.87308002  0.33452984  1
  N  N61  1  0.11270091  0.75835952  0.08544867  1
  N  N62  1  0.86010961  0.88460305  0.86987413  1
  N  N63  1  0.79963347  0.77134577  0.58402139  1
  N  N64  1  0.55129089  0.87735151  0.39997401  1
  N  N65  1  0.45582393  0.77428363  0.08996359  1
  N  N66  1  0.22553355  0.86816060  0.84194902  1
  N  N67  1  0.08406248  0.77552232  0.58958014  1
  N  N68  1  0.89212031  0.86965101  0.32608977  1
  N  N69  1  0.74257486  0.77178971  0.11838410  1
  N  N70  1  0.58795238  0.85474188  0.84326829  1
  N  N71  1  0.43594451  0.75629712  0.59108920  1
