# generated using pymatgen
data_Al31B5N36
_symmetry_space_group_name_H-M   'P 1'
_cell_length_a   9.18419625
_cell_length_b   9.20764350
_cell_length_c   10.11491012
_cell_angle_alpha   90.01503457
_cell_angle_beta   89.48676911
_cell_angle_gamma   59.79284342
_symmetry_Int_Tables_number   1
_chemical_formula_structural   Al31B5N36
_chemical_formula_sum   'Al31 B5 N36'
_cell_volume   739.17610065
_cell_formula_units_Z   1
loop_
 _symmetry_equiv_pos_site_id
 _symmetry_equiv_pos_as_xyz
  1  'x, y, z'
loop_
 _atom_site_type_symbol
 _atom_site_label
 _atom_site_symmetry_multiplicity
 _atom_site_fract_x
 _atom_site_fract_y
 _atom_site_fract_z
 _atom_site_occupancy
  Al  Al0  1  0.11335369  0.08590742  0.38718114  1
  Al  Al1  1  0.22571820  0.20428316  0.05995329  1
  Al  Al2  1  0.88490488  0.20206342  0.58545481  1
  Al  Al3  1  0.44911677  0.08933116  0.30500224  1
  Al  Al4  1  0.57281427  0.20004518  0.05236276  1
  Al  Al5  1  0.08934228  0.09717465  0.87729907  1
  Al  Al6  1  0.22910274  0.20819826  0.56336935  1
  Al  Al7  1  0.78112865  0.09578415  0.31151503  1
  Al  Al8  1  0.46057663  0.08326211  0.81543692  1
  Al  Al9  1  0.55918430  0.19841754  0.56068098  1
  Al  Al10  1  0.11159440  0.42813958  0.31080174  1
  Al  Al11  1  0.22704624  0.53365240  0.05629717  1
  Al  Al12  1  0.77193235  0.43445279  0.80535390  1
  Al  Al13  1  0.88827273  0.55044452  0.55916201  1
  Al  Al14  1  0.44419430  0.42717483  0.31144839  1
  Al  Al15  1  0.56204649  0.53427475  0.06120305  1
  Al  Al16  1  0.10745320  0.42880188  0.80971896  1
  Al  Al17  1  0.21146382  0.55001585  0.56189743  1
  Al  Al18  1  0.78230881  0.42059619  0.31711801  1
  Al  Al19  1  0.88571911  0.53634521  0.06504455  1
  Al  Al20  1  0.44877435  0.42641402  0.80583144  1
  Al  Al21  1  0.55340573  0.54543313  0.55724483  1
  Al  Al22  1  0.10667189  0.75926936  0.30320467  1
  Al  Al23  1  0.21742794  0.88375473  0.11764027  1
  Al  Al24  1  0.45287484  0.76296681  0.30380021  1
  Al  Al25  1  0.09248688  0.75767484  0.82717633  1
  Al  Al26  1  0.21368588  0.87781038  0.64372631  1
  Al  Al27  1  0.77238608  0.76414722  0.31127511  1
  Al  Al28  1  0.88323565  0.87428469  0.07390408  1
  Al  Al29  1  0.45585130  0.75866403  0.82416099  1
  Al  Al30  1  0.56187544  0.87374196  0.56333458  1
  B  B31  1  0.75763883  0.12702602  0.79171214  1
  B  B32  1  0.88719576  0.20699519  0.09768160  1
  B  B33  1  0.77837283  0.75927773  0.86810607  1
  B  B34  1  0.88029427  0.86912237  0.61656261  1
  B  B35  1  0.56502062  0.86390733  0.06178830  1
  N  N36  1  0.22721952  0.20730580  0.36927805  1
  N  N37  1  0.07543336  0.11372700  0.07186201  1
  N  N38  1  0.86771206  0.19870018  0.82246373  1
  N  N39  1  0.78158154  0.06841320  0.64103245  1
  N  N40  1  0.55591257  0.20394821  0.37129908  1
  N  N41  1  0.46329318  0.06908046  0.10954518  1
  N  N42  1  0.22471128  0.20246863  0.87072517  1
  N  N43  1  0.11840069  0.08760383  0.57761092  1
  N  N44  1  0.87915911  0.20742662  0.38699423  1
  N  N45  1  0.79466971  0.11199997  0.11689442  1
  N  N46  1  0.58341308  0.19530318  0.85972198  1
  N  N47  1  0.44644097  0.09347401  0.62875073  1
  N  N48  1  0.22032007  0.54266890  0.37356886  1
  N  N49  1  0.11214605  0.42696467  0.12170662  1
  N  N50  1  0.87441748  0.55926777  0.87342349  1
  N  N51  1  0.77490937  0.43836405  0.61896459  1
  N  N52  1  0.55338775  0.54291248  0.36722029  1
  N  N53  1  0.44811157  0.42253878  0.12085295  1
  N  N54  1  0.22801276  0.52877739  0.86972061  1
  N  N55  1  0.10927230  0.42961433  0.62304627  1
  N  N56  1  0.88780372  0.53906300  0.36888574  1
  N  N57  1  0.79367865  0.39782625  0.12090651  1
  N  N58  1  0.55551909  0.53626912  0.87581175  1
  N  N59  1  0.44377854  0.43024189  0.61785672  1
  N  N60  1  0.22060462  0.87836786  0.31048015  1
  N  N61  1  0.11493815  0.75420662  0.10925311  1
  N  N62  1  0.87207169  0.84825878  0.88686896  1
  N  N63  1  0.79013974  0.77806982  0.60662513  1
  N  N64  1  0.55163158  0.87457342  0.37676263  1
  N  N65  1  0.46303639  0.77143417  0.10826157  1
  N  N66  1  0.21692425  0.87129630  0.83721829  1
  N  N67  1  0.07460578  0.77632654  0.63092667  1
  N  N68  1  0.88532638  0.87397716  0.33639909  1
  N  N69  1  0.75014161  0.76696764  0.12016978  1
  N  N70  1  0.58272990  0.85742317  0.89205909  1
  N  N71  1  0.45124199  0.76126931  0.63107929  1
