# generated using pymatgen
data_Al31B5N36
_symmetry_space_group_name_H-M   'P 1'
_cell_length_a   9.15605473
_cell_length_b   9.12991838
_cell_length_c   10.17308811
_cell_angle_alpha   90.18785459
_cell_angle_beta   89.70454943
_cell_angle_gamma   60.10188887
_symmetry_Int_Tables_number   1
_chemical_formula_structural   Al31B5N36
_chemical_formula_sum   'Al31 B5 N36'
_cell_volume   737.20458604
_cell_formula_units_Z   1
loop_
 _symmetry_equiv_pos_site_id
 _symmetry_equiv_pos_as_xyz
  1  'x, y, z'
loop_
 _atom_site_type_symbol
 _atom_site_label
 _atom_site_symmetry_multiplicity
 _atom_site_fract_x
 _atom_site_fract_y
 _atom_site_fract_z
 _atom_site_occupancy
  Al  Al0  1  0.11125933  0.09717522  0.39967989  1
  Al  Al1  1  0.21163612  0.20603739  0.14835420  1
  Al  Al2  1  0.88504380  0.19215865  0.65119636  1
  Al  Al3  1  0.45478770  0.08216035  0.32774197  1
  Al  Al4  1  0.57144081  0.19043033  0.08270099  1
  Al  Al5  1  0.09628993  0.09226258  0.90865084  1
  Al  Al6  1  0.21044838  0.21099126  0.65498983  1
  Al  Al7  1  0.77944383  0.09848839  0.33207756  1
  Al  Al8  1  0.45761777  0.08763251  0.82949203  1
  Al  Al9  1  0.56422781  0.18988965  0.57103080  1
  Al  Al10  1  0.11089490  0.42735375  0.40221227  1
  Al  Al11  1  0.22181666  0.53931923  0.15416903  1
  Al  Al12  1  0.77692577  0.41902762  0.90721850  1
  Al  Al13  1  0.88683197  0.55009475  0.65798599  1
  Al  Al14  1  0.44058141  0.43556287  0.40032452  1
  Al  Al15  1  0.56188481  0.53551246  0.15210539  1
  Al  Al16  1  0.10283045  0.43611277  0.90538129  1
  Al  Al17  1  0.21731034  0.54129183  0.65070276  1
  Al  Al18  1  0.77961384  0.42841693  0.40227565  1
  Al  Al19  1  0.87973302  0.54185793  0.15235026  1
  Al  Al20  1  0.44412969  0.42890729  0.90109323  1
  Al  Al21  1  0.55575297  0.53550791  0.65683118  1
  Al  Al22  1  0.10532097  0.76628544  0.39828793  1
  Al  Al23  1  0.22027467  0.87751747  0.15198596  1
  Al  Al24  1  0.44103754  0.75997112  0.40822676  1
  Al  Al25  1  0.09974721  0.76531023  0.90219328  1
  Al  Al26  1  0.21378108  0.87478726  0.65509484  1
  Al  Al27  1  0.78421475  0.76234643  0.39933757  1
  Al  Al28  1  0.88414263  0.87298889  0.13594807  1
  Al  Al29  1  0.45302368  0.76283107  0.89755945  1
  Al  Al30  1  0.56044312  0.87411019  0.60706865  1
  B  B31  1  0.77365140  0.07739694  0.86939462  1
  B  B32  1  0.88955439  0.20906178  0.15792799  1
  B  B33  1  0.76538144  0.77659773  0.88161830  1
  B  B34  1  0.89002404  0.87335756  0.60310374  1
  B  B35  1  0.55969096  0.86744188  0.10835407  1
  N  N36  1  0.22150599  0.20775795  0.33577431  1
  N  N37  1  0.08277264  0.10628136  0.09699503  1
  N  N38  1  0.87071587  0.17984038  0.84290629  1
  N  N39  1  0.79676992  0.05843237  0.59482587  1
  N  N40  1  0.55539423  0.20309341  0.38225045  1
  N  N41  1  0.46301343  0.06007197  0.13226756  1
  N  N42  1  0.20794013  0.20850579  0.84732051  1
  N  N43  1  0.10772020  0.09505508  0.58829757  1
  N  N44  1  0.89709747  0.21489431  0.32355320  1
  N  N45  1  0.78812413  0.11111426  0.13937798  1
  N  N46  1  0.58411208  0.18527646  0.89090273  1
  N  N47  1  0.44206391  0.10248351  0.64461076  1
  N  N48  1  0.22097667  0.54112058  0.34124716  1
  N  N49  1  0.10736349  0.43151395  0.09116744  1
  N  N50  1  0.87323485  0.56930553  0.84997939  1
  N  N51  1  0.78024647  0.42504198  0.59459744  1
  N  N52  1  0.55698313  0.54052293  0.33844102  1
  N  N53  1  0.44238107  0.42929423  0.08995243  1
  N  N54  1  0.22112326  0.53858791  0.83786169  1
  N  N55  1  0.10718056  0.42914018  0.59046475  1
  N  N56  1  0.88871094  0.54056817  0.34011658  1
  N  N57  1  0.79128454  0.40150558  0.09601354  1
  N  N58  1  0.55793501  0.53600376  0.84372025  1
  N  N59  1  0.44288524  0.42974721  0.59031880  1
  N  N60  1  0.22341495  0.87242665  0.33934231  1
  N  N61  1  0.11507206  0.75900822  0.08809369  1
  N  N62  1  0.85783291  0.88643848  0.87832971  1
  N  N63  1  0.80183577  0.77103008  0.59122581  1
  N  N64  1  0.55438202  0.87652043  0.40430586  1
  N  N65  1  0.45749676  0.77512517  0.09140546  1
  N  N66  1  0.22204919  0.87088517  0.84333831  1
  N  N67  1  0.08547675  0.77413325  0.59185100  1
  N  N68  1  0.89322395  0.86497325  0.32675562  1
  N  N69  1  0.74552412  0.77301967  0.09825122  1
  N  N70  1  0.58536129  0.85439608  0.84168032  1
  N  N71  1  0.43756095  0.75630383  0.59730105  1
