# generated using pymatgen
data_Al31B5N36
_symmetry_space_group_name_H-M   'P 1'
_cell_length_a   9.17963434
_cell_length_b   9.17712754
_cell_length_c   9.98201967
_cell_angle_alpha   89.94032163
_cell_angle_beta   89.80248957
_cell_angle_gamma   60.12717016
_symmetry_Int_Tables_number   1
_chemical_formula_structural   Al31B5N36
_chemical_formula_sum   'Al31 B5 N36'
_cell_volume   729.17805818
_cell_formula_units_Z   1
loop_
 _symmetry_equiv_pos_site_id
 _symmetry_equiv_pos_as_xyz
  1  'x, y, z'
loop_
 _atom_site_type_symbol
 _atom_site_label
 _atom_site_symmetry_multiplicity
 _atom_site_fract_x
 _atom_site_fract_y
 _atom_site_fract_z
 _atom_site_occupancy
  Al  Al0  1  0.11130856  0.09670360  0.40088690  1
  Al  Al1  1  0.21228026  0.20659242  0.14599676  1
  Al  Al2  1  0.88617528  0.19087758  0.65032889  1
  Al  Al3  1  0.44733662  0.08958005  0.35485131  1
  Al  Al4  1  0.57082204  0.19917070  0.09110666  1
  Al  Al5  1  0.09505861  0.09106003  0.90651695  1
  Al  Al6  1  0.22108848  0.20421118  0.65499833  1
  Al  Al7  1  0.78373774  0.09485890  0.33545622  1
  Al  Al8  1  0.44832039  0.08371808  0.90080447  1
  Al  Al9  1  0.56484107  0.19013178  0.57391119  1
  Al  Al10  1  0.10982946  0.42779013  0.40154143  1
  Al  Al11  1  0.22128552  0.54024514  0.15232152  1
  Al  Al12  1  0.77682845  0.41782061  0.90495388  1
  Al  Al13  1  0.88688522  0.54866414  0.65717465  1
  Al  Al14  1  0.44134364  0.43615037  0.39935445  1
  Al  Al15  1  0.56134196  0.53601544  0.15188706  1
  Al  Al16  1  0.10136974  0.43581700  0.90257961  1
  Al  Al17  1  0.21634874  0.54097867  0.64956124  1
  Al  Al18  1  0.78137859  0.42668009  0.40116116  1
  Al  Al19  1  0.88129186  0.54064255  0.14730705  1
  Al  Al20  1  0.44386266  0.42890066  0.89722084  1
  Al  Al21  1  0.55760102  0.53800748  0.65247587  1
  Al  Al22  1  0.10577569  0.76454042  0.39604754  1
  Al  Al23  1  0.21998683  0.87716515  0.15264783  1
  Al  Al24  1  0.44850382  0.76290450  0.39734085  1
  Al  Al25  1  0.09865342  0.76640714  0.89982872  1
  Al  Al26  1  0.21960083  0.87358020  0.64989930  1
  Al  Al27  1  0.77913967  0.76375161  0.39034171  1
  Al  Al28  1  0.88492038  0.87621301  0.12752233  1
  Al  Al29  1  0.45069520  0.76049129  0.90519191  1
  Al  Al30  1  0.56825541  0.87285403  0.65602629  1
  B  B31  1  0.77089281  0.07986171  0.87254786  1
  B  B32  1  0.89017686  0.20910929  0.15879533  1
  B  B33  1  0.75716419  0.78115340  0.91635342  1
  B  B34  1  0.88827238  0.87424575  0.59892095  1
  B  B35  1  0.55691429  0.86507037  0.14605544  1
  N  N36  1  0.21998646  0.20804830  0.33531518  1
  N  N37  1  0.08275832  0.10633967  0.09729468  1
  N  N38  1  0.86897302  0.18023381  0.84287279  1
  N  N39  1  0.79811700  0.05787324  0.58945765  1
  N  N40  1  0.55774058  0.20594046  0.37632097  1
  N  N41  1  0.45315602  0.07045543  0.10343040  1
  N  N42  1  0.21388529  0.20477622  0.84930359  1
  N  N43  1  0.10810988  0.09545318  0.59101898  1
  N  N44  1  0.89834657  0.21370254  0.32518982  1
  N  N45  1  0.78980076  0.11209091  0.13929799  1
  N  N46  1  0.58214103  0.18799081  0.88873748  1
  N  N47  1  0.44119307  0.08973327  0.60199517  1
  N  N48  1  0.22138645  0.54013468  0.34217831  1
  N  N49  1  0.10773327  0.43191016  0.09077079  1
  N  N50  1  0.87221816  0.56309128  0.85106807  1
  N  N51  1  0.78216951  0.42256970  0.59442463  1
  N  N52  1  0.55856693  0.53928599  0.34054448  1
  N  N53  1  0.44126825  0.43284478  0.08988047  1
  N  N54  1  0.21878524  0.54019315  0.83819970  1
  N  N55  1  0.10796849  0.42690340  0.59246810  1
  N  N56  1  0.88838781  0.54063803  0.33827936  1
  N  N57  1  0.79077858  0.40146463  0.09642459  1
  N  N58  1  0.55624130  0.53880589  0.84248426  1
  N  N59  1  0.44325215  0.43018119  0.59233960  1
  N  N60  1  0.22370611  0.87250130  0.34309331  1
  N  N61  1  0.11670743  0.75925003  0.08838424  1
  N  N62  1  0.85579880  0.89131295  0.88775753  1
  N  N63  1  0.79284312  0.77471303  0.58513644  1
  N  N64  1  0.56276126  0.86323539  0.31219014  1
  N  N65  1  0.45486120  0.77255300  0.09678484  1
  N  N66  1  0.22356783  0.86973305  0.84137102  1
  N  N67  1  0.08381265  0.77393418  0.59200457  1
  N  N68  1  0.89386471  0.86291825  0.32360056  1
  N  N69  1  0.74708637  0.77198923  0.08006419  1
  N  N70  1  0.57995444  0.85892640  0.84745392  1
  N  N71  1  0.45032631  0.76196490  0.59032381  1
