# generated using pymatgen
data_Al31B5N36
_symmetry_space_group_name_H-M   'P 1'
_cell_length_a   9.19177590
_cell_length_b   9.18673997
_cell_length_c   9.79278659
_cell_angle_alpha   89.75538481
_cell_angle_beta   89.55392374
_cell_angle_gamma   59.92622141
_symmetry_Int_Tables_number   1
_chemical_formula_structural   Al31B5N36
_chemical_formula_sum   'Al31 B5 N36'
_cell_volume   715.58498419
_cell_formula_units_Z   1
loop_
 _symmetry_equiv_pos_site_id
 _symmetry_equiv_pos_as_xyz
  1  'x, y, z'
loop_
 _atom_site_type_symbol
 _atom_site_label
 _atom_site_symmetry_multiplicity
 _atom_site_fract_x
 _atom_site_fract_y
 _atom_site_fract_z
 _atom_site_occupancy
  Al  Al0  1  0.10402837  0.09711341  0.30918115  1
  Al  Al1  1  0.22041809  0.20264134  0.06243229  1
  Al  Al2  1  0.88718932  0.19887435  0.57289829  1
  Al  Al3  1  0.44860208  0.08797789  0.30660623  1
  Al  Al4  1  0.57060066  0.19792380  0.05627636  1
  Al  Al5  1  0.10545429  0.09592615  0.82006398  1
  Al  Al6  1  0.22177996  0.20324894  0.56256830  1
  Al  Al7  1  0.78152467  0.09298613  0.31535521  1
  Al  Al8  1  0.45327335  0.08619238  0.81844249  1
  Al  Al9  1  0.55937727  0.19767376  0.56599369  1
  Al  Al10  1  0.10877017  0.42886690  0.31229676  1
  Al  Al11  1  0.22096660  0.54054460  0.06088184  1
  Al  Al12  1  0.77973266  0.42657987  0.82087766  1
  Al  Al13  1  0.88604728  0.54528858  0.56990260  1
  Al  Al14  1  0.44485667  0.42572828  0.31168776  1
  Al  Al15  1  0.56200098  0.53632701  0.06300730  1
  Al  Al16  1  0.10774048  0.43333701  0.81190584  1
  Al  Al17  1  0.21677357  0.54232456  0.56250856  1
  Al  Al18  1  0.78192670  0.42198427  0.30912464  1
  Al  Al19  1  0.88179322  0.54614742  0.05856525  1
  Al  Al20  1  0.45198735  0.42280839  0.81033122  1
  Al  Al21  1  0.55706371  0.53900896  0.56128512  1
  Al  Al22  1  0.10390399  0.76437075  0.31968646  1
  Al  Al23  1  0.21909474  0.87692193  0.06296498  1
  Al  Al24  1  0.44754402  0.76457164  0.30776616  1
  Al  Al25  1  0.09841190  0.76829016  0.80888879  1
  Al  Al26  1  0.21761318  0.87382178  0.56350193  1
  Al  Al27  1  0.77359897  0.76618095  0.31652311  1
  Al  Al28  1  0.87927635  0.88190829  0.05627584  1
  Al  Al29  1  0.45042518  0.76013362  0.81942088  1
  Al  Al30  1  0.56009698  0.87209564  0.56939227  1
  B  B31  1  0.76592442  0.06908541  0.80116994  1
  B  B32  1  0.88954981  0.20278501  0.05567250  1
  B  B33  1  0.77652781  0.76965138  0.81216770  1
  B  B34  1  0.88657219  0.87118433  0.57354788  1
  B  B35  1  0.56524971  0.86929695  0.05659727  1
  N  N36  1  0.22319825  0.20281628  0.36636710  1
  N  N37  1  0.08618354  0.10663701  0.11464960  1
  N  N38  1  0.88630645  0.20212053  0.89147551  1
  N  N39  1  0.78705523  0.06756171  0.63953911  1
  N  N40  1  0.55676319  0.20183415  0.37130681  1
  N  N41  1  0.46084668  0.06924765  0.10827978  1
  N  N42  1  0.22399246  0.20689411  0.87167457  1
  N  N43  1  0.10921495  0.09431323  0.62692236  1
  N  N44  1  0.88674728  0.20469501  0.38133254  1
  N  N45  1  0.79338235  0.10476935  0.11981327  1
  N  N46  1  0.58493962  0.18765771  0.86000960  1
  N  N47  1  0.44245292  0.09348492  0.62642644  1
  N  N48  1  0.22137458  0.53890996  0.37066006  1
  N  N49  1  0.10784577  0.42991686  0.11915399  1
  N  N50  1  0.87621483  0.57114723  0.86410792  1
  N  N51  1  0.77792655  0.42568018  0.62737781  1
  N  N52  1  0.55620333  0.53956977  0.36605735  1
  N  N53  1  0.44557851  0.42394778  0.11779697  1
  N  N54  1  0.22362091  0.54096450  0.86790936  1
  N  N55  1  0.11045446  0.42664570  0.62045778  1
  N  N56  1  0.88505906  0.54172964  0.37355066  1
  N  N57  1  0.79258915  0.40397399  0.11276837  1
  N  N58  1  0.55600747  0.53732644  0.87339697  1
  N  N59  1  0.44456145  0.42675067  0.61827198  1
  N  N60  1  0.22253781  0.87247268  0.36834839  1
  N  N61  1  0.10318774  0.76436550  0.12318311  1
  N  N62  1  0.86244596  0.88363120  0.86205783  1
  N  N63  1  0.78583323  0.77421143  0.63953199  1
  N  N64  1  0.55494143  0.87227403  0.37885185  1
  N  N65  1  0.45853092  0.77465100  0.11113867  1
  N  N66  1  0.22116708  0.86960399  0.87138760  1
  N  N67  1  0.08394198  0.77412744  0.61557336  1
  N  N68  1  0.88266038  0.87471084  0.39996308  1
  N  N69  1  0.75417465  0.77722132  0.11995515  1
  N  N70  1  0.58126443  0.85925732  0.88228137  1
  N  N71  1  0.44382024  0.76114210  0.62521402  1
