# generated using pymatgen
data_Al31B5N36
_symmetry_space_group_name_H-M   'P 1'
_cell_length_a   9.17394109
_cell_length_b   9.17281047
_cell_length_c   9.80203270
_cell_angle_alpha   90.06100519
_cell_angle_beta   90.07281059
_cell_angle_gamma   60.05901290
_symmetry_Int_Tables_number   1
_chemical_formula_structural   Al31B5N36
_chemical_formula_sum   'Al31 B5 N36'
_cell_volume   714.76403082
_cell_formula_units_Z   1
loop_
 _symmetry_equiv_pos_site_id
 _symmetry_equiv_pos_as_xyz
  1  'x, y, z'
loop_
 _atom_site_type_symbol
 _atom_site_label
 _atom_site_symmetry_multiplicity
 _atom_site_fract_x
 _atom_site_fract_y
 _atom_site_fract_z
 _atom_site_occupancy
  Al  Al0  1  0.10560219  0.09548258  0.39673358  1
  Al  Al1  1  0.21906892  0.20211162  0.15248975  1
  Al  Al2  1  0.88701042  0.19519224  0.65568002  1
  Al  Al3  1  0.44669100  0.09036408  0.39663817  1
  Al  Al4  1  0.56325918  0.19973725  0.14808462  1
  Al  Al5  1  0.10111419  0.09395870  0.90757855  1
  Al  Al6  1  0.22163473  0.20343324  0.65341906  1
  Al  Al7  1  0.78101989  0.08827443  0.39787709  1
  Al  Al8  1  0.45662177  0.08385916  0.90830904  1
  Al  Al9  1  0.56556090  0.19448027  0.65818350  1
  Al  Al10  1  0.10811263  0.42796400  0.40351507  1
  Al  Al11  1  0.22041503  0.54089626  0.15470701  1
  Al  Al12  1  0.77799499  0.42191592  0.90622803  1
  Al  Al13  1  0.88579660  0.54873099  0.65805186  1
  Al  Al14  1  0.44520360  0.42522703  0.40409072  1
  Al  Al15  1  0.56058998  0.53608398  0.15358516  1
  Al  Al16  1  0.10630772  0.43342638  0.90421378  1
  Al  Al17  1  0.21699000  0.54151610  0.65320014  1
  Al  Al18  1  0.78011681  0.42294825  0.39730515  1
  Al  Al19  1  0.88243240  0.54131237  0.14651011  1
  Al  Al20  1  0.44779500  0.42457764  0.90375119  1
  Al  Al21  1  0.55705337  0.53848859  0.65356887  1
  Al  Al22  1  0.10218485  0.76491131  0.40614719  1
  Al  Al23  1  0.21818032  0.87574613  0.15279463  1
  Al  Al24  1  0.44664007  0.76211683  0.39626273  1
  Al  Al25  1  0.09983200  0.76598025  0.89593094  1
  Al  Al26  1  0.21825562  0.87375987  0.65276856  1
  Al  Al27  1  0.77786578  0.76481380  0.39746277  1
  Al  Al28  1  0.88241276  0.87789071  0.13766006  1
  Al  Al29  1  0.45155589  0.76242534  0.90749055  1
  Al  Al30  1  0.56542863  0.87061041  0.65575193  1
  B  B31  1  0.77578988  0.09735022  0.90693590  1
  B  B32  1  0.88782445  0.20472636  0.14897182  1
  B  B33  1  0.76337742  0.77255342  0.90729909  1
  B  B34  1  0.88101847  0.87564826  0.65268250  1
  B  B35  1  0.55409865  0.87281870  0.15058916  1
  N  N36  1  0.22122132  0.20492540  0.34405275  1
  N  N37  1  0.08390393  0.10658263  0.10070319  1
  N  N38  1  0.87475538  0.19047511  0.84690957  1
  N  N39  1  0.79061367  0.06609723  0.59436813  1
  N  N40  1  0.55782557  0.20355353  0.34122815  1
  N  N41  1  0.45476305  0.06918655  0.10122311  1
  N  N42  1  0.22244203  0.20276672  0.84872178  1
  N  N43  1  0.10665403  0.09562773  0.59087327  1
  N  N44  1  0.88546857  0.20264149  0.31978707  1
  N  N45  1  0.78782313  0.10518918  0.07703526  1
  N  N46  1  0.58013152  0.19205842  0.85495307  1
  N  N47  1  0.44583648  0.09175469  0.59312109  1
  N  N48  1  0.22045591  0.54057696  0.34854140  1
  N  N49  1  0.11061085  0.42759787  0.09525644  1
  N  N50  1  0.87328406  0.56500114  0.85439453  1
  N  N51  1  0.78188164  0.42293327  0.59421638  1
  N  N52  1  0.55560800  0.53734193  0.34460876  1
  N  N53  1  0.44346524  0.42752733  0.09535508  1
  N  N54  1  0.22340334  0.53760235  0.84350761  1
  N  N55  1  0.10778897  0.42738556  0.59652568  1
  N  N56  1  0.88601397  0.54119807  0.34055249  1
  N  N57  1  0.79037024  0.40113112  0.09914859  1
  N  N58  1  0.55601355  0.53993771  0.84678070  1
  N  N59  1  0.44641919  0.42319822  0.59786508  1
  N  N60  1  0.22059120  0.86992930  0.34543983  1
  N  N61  1  0.11041186  0.76077392  0.08856671  1
  N  N62  1  0.86436668  0.88433015  0.84400774  1
  N  N63  1  0.79011074  0.77505599  0.59434995  1
  N  N64  1  0.55913900  0.86998365  0.32000882  1
  N  N65  1  0.45560962  0.77342386  0.10171819  1
  N  N66  1  0.22525130  0.87174694  0.84600455  1
  N  N67  1  0.08220927  0.77527776  0.60458192  1
  N  N68  1  0.88784618  0.87162900  0.32983161  1
  N  N69  1  0.75245338  0.77409817  0.07799232  1
  N  N70  1  0.57970573  0.85966576  0.84714179  1
  N  N71  1  0.44708149  0.76278300  0.59176892  1
