# generated using pymatgen
data_Al31B5N36
_symmetry_space_group_name_H-M   'P 1'
_cell_length_a   9.14316005
_cell_length_b   9.11924136
_cell_length_c   10.26050178
_cell_angle_alpha   90.24998337
_cell_angle_beta   89.50438835
_cell_angle_gamma   60.09832094
_symmetry_Int_Tables_number   1
_chemical_formula_structural   Al31B5N36
_chemical_formula_sum   'Al31 B5 N36'
_cell_volume   741.55896712
_cell_formula_units_Z   1
loop_
 _symmetry_equiv_pos_site_id
 _symmetry_equiv_pos_as_xyz
  1  'x, y, z'
loop_
 _atom_site_type_symbol
 _atom_site_label
 _atom_site_symmetry_multiplicity
 _atom_site_fract_x
 _atom_site_fract_y
 _atom_site_fract_z
 _atom_site_occupancy
  Al  Al0  1  0.11599173  0.09317039  0.40707376  1
  Al  Al1  1  0.21017006  0.20608335  0.14397030  1
  Al  Al2  1  0.88697414  0.19639911  0.61982849  1
  Al  Al3  1  0.45352275  0.08304872  0.32370164  1
  Al  Al4  1  0.57308960  0.18691167  0.07235991  1
  Al  Al5  1  0.09799820  0.09350704  0.89500523  1
  Al  Al6  1  0.21289800  0.21306104  0.65594844  1
  Al  Al7  1  0.78016315  0.10513653  0.32723703  1
  Al  Al8  1  0.46161733  0.08662262  0.82447744  1
  Al  Al9  1  0.56540331  0.18993097  0.57196454  1
  Al  Al10  1  0.11124823  0.42511258  0.40016348  1
  Al  Al11  1  0.22209652  0.53766888  0.15217868  1
  Al  Al12  1  0.77870516  0.42088055  0.89105077  1
  Al  Al13  1  0.88759121  0.55400925  0.65367682  1
  Al  Al14  1  0.44157568  0.43337472  0.39874701  1
  Al  Al15  1  0.56156070  0.53258392  0.14763232  1
  Al  Al16  1  0.10360928  0.43838409  0.90308799  1
  Al  Al17  1  0.21757756  0.54268881  0.64824221  1
  Al  Al18  1  0.77572699  0.43207402  0.41074500  1
  Al  Al19  1  0.88007820  0.53737695  0.15256915  1
  Al  Al20  1  0.44492518  0.42894849  0.89704361  1
  Al  Al21  1  0.55283343  0.54028701  0.65652703  1
  Al  Al22  1  0.10351167  0.76775925  0.39775363  1
  Al  Al23  1  0.21746536  0.87714771  0.14882784  1
  Al  Al24  1  0.43942315  0.75789496  0.40272579  1
  Al  Al25  1  0.09941098  0.76558905  0.90013535  1
  Al  Al26  1  0.21510632  0.87352461  0.65594481  1
  Al  Al27  1  0.78265303  0.76231690  0.39064724  1
  Al  Al28  1  0.88442685  0.86873436  0.13892214  1
  Al  Al29  1  0.45513598  0.76410271  0.89816662  1
  Al  Al30  1  0.55638961  0.87620623  0.59374648  1
  B  B31  1  0.77617433  0.07955008  0.83881190  1
  B  B32  1  0.88638956  0.20500580  0.10520501  1
  B  B33  1  0.77110736  0.77828172  0.86001998  1
  B  B34  1  0.88649337  0.87351691  0.60801726  1
  B  B35  1  0.56024360  0.86527149  0.11158303  1
  N  N36  1  0.21789835  0.20620739  0.33009425  1
  N  N37  1  0.07859718  0.10730105  0.08731085  1
  N  N38  1  0.87452815  0.18408081  0.83350519  1
  N  N39  1  0.78849657  0.05820893  0.62759679  1
  N  N40  1  0.55748501  0.19911972  0.38319481  1
  N  N41  1  0.46239254  0.06104390  0.12965431  1
  N  N42  1  0.21198427  0.21051053  0.84585867  1
  N  N43  1  0.12079051  0.09005042  0.59318139  1
  N  N44  1  0.88684519  0.20370710  0.39995161  1
  N  N45  1  0.79201644  0.11391230  0.13537170  1
  N  N46  1  0.58746590  0.18577567  0.88357233  1
  N  N47  1  0.44341052  0.10105925  0.64188434  1
  N  N48  1  0.22078490  0.54064589  0.33873161  1
  N  N49  1  0.10586000  0.43161941  0.08825167  1
  N  N50  1  0.87613480  0.57240825  0.84374918  1
  N  N51  1  0.77511625  0.43975921  0.59976268  1
  N  N52  1  0.55901300  0.53702846  0.33318600  1
  N  N53  1  0.44257904  0.42626439  0.08536488  1
  N  N54  1  0.22235817  0.53936194  0.83448683  1
  N  N55  1  0.10906643  0.42920737  0.58708481  1
  N  N56  1  0.88938713  0.53502681  0.33865076  1
  N  N57  1  0.79234332  0.39721353  0.08403036  1
  N  N58  1  0.55552260  0.53953609  0.84137844  1
  N  N59  1  0.44386120  0.43082653  0.58740965  1
  N  N60  1  0.22155951  0.87310473  0.33480677  1
  N  N61  1  0.11301488  0.75799557  0.08563626  1
  N  N62  1  0.86110467  0.88253004  0.86773166  1
  N  N63  1  0.79926748  0.77281459  0.58444084  1
  N  N64  1  0.55144990  0.87672734  0.39983624  1
  N  N65  1  0.45588896  0.77429683  0.09022083  1
  N  N66  1  0.22523076  0.86851051  0.84229129  1
  N  N67  1  0.08251535  0.77711940  0.59024246  1
  N  N68  1  0.89153159  0.87026764  0.32643970  1
  N  N69  1  0.74271596  0.77138730  0.11876737  1
  N  N70  1  0.58812033  0.85456581  0.84237292  1
  N  N71  1  0.43535420  0.75657689  0.59098274  1
