# generated using pymatgen
data_Al31B5N36
_symmetry_space_group_name_H-M   'P 1'
_cell_length_a   9.15851563
_cell_length_b   9.16550186
_cell_length_c   10.06707296
_cell_angle_alpha   89.81060065
_cell_angle_beta   89.73196243
_cell_angle_gamma   60.30467603
_symmetry_Int_Tables_number   1
_chemical_formula_structural   Al31B5N36
_chemical_formula_sum   'Al31 B5 N36'
_cell_volume   734.06635705
_cell_formula_units_Z   1
loop_
 _symmetry_equiv_pos_site_id
 _symmetry_equiv_pos_as_xyz
  1  'x, y, z'
loop_
 _atom_site_type_symbol
 _atom_site_label
 _atom_site_symmetry_multiplicity
 _atom_site_fract_x
 _atom_site_fract_y
 _atom_site_fract_z
 _atom_site_occupancy
  Al  Al0  1  0.11157937  0.09575909  0.39975278  1
  Al  Al1  1  0.21037482  0.20718630  0.14457429  1
  Al  Al2  1  0.88604770  0.19069978  0.65069668  1
  Al  Al3  1  0.45192846  0.09003096  0.31872287  1
  Al  Al4  1  0.56861944  0.19507454  0.08139544  1
  Al  Al5  1  0.09615428  0.09160681  0.90751984  1
  Al  Al6  1  0.21329037  0.20820640  0.65508711  1
  Al  Al7  1  0.77984622  0.09642837  0.33414942  1
  Al  Al8  1  0.45045749  0.09580959  0.84196171  1
  Al  Al9  1  0.56408916  0.18788616  0.57592172  1
  Al  Al10  1  0.11088804  0.42592734  0.40003113  1
  Al  Al11  1  0.22165123  0.53937653  0.15258022  1
  Al  Al12  1  0.77798713  0.41728033  0.90439660  1
  Al  Al13  1  0.88916312  0.54344746  0.65764936  1
  Al  Al14  1  0.44110380  0.43306383  0.40163427  1
  Al  Al15  1  0.56082469  0.53437307  0.15262073  1
  Al  Al16  1  0.10100087  0.43372371  0.90291309  1
  Al  Al17  1  0.21611303  0.54089331  0.65031530  1
  Al  Al18  1  0.78102231  0.42579149  0.40023372  1
  Al  Al19  1  0.88077136  0.54101191  0.14646462  1
  Al  Al20  1  0.44203393  0.43384414  0.89854372  1
  Al  Al21  1  0.55786341  0.53734516  0.65333082  1
  Al  Al22  1  0.10640512  0.76344159  0.39655648  1
  Al  Al23  1  0.22021152  0.87707663  0.15362281  1
  Al  Al24  1  0.44869112  0.76086778  0.39762638  1
  Al  Al25  1  0.09828876  0.76658888  0.90167236  1
  Al  Al26  1  0.21953872  0.87325776  0.65119738  1
  Al  Al27  1  0.78040934  0.76161976  0.39122615  1
  Al  Al28  1  0.88578640  0.87741029  0.13147938  1
  Al  Al29  1  0.45170656  0.76372954  0.90776805  1
  Al  Al30  1  0.57411522  0.86449505  0.65699660  1
  B  B31  1  0.77254573  0.08345868  0.87176284  1
  B  B32  1  0.88788522  0.20997780  0.15866276  1
  B  B33  1  0.74691534  0.80437664  0.92458446  1
  B  B34  1  0.88910357  0.87327620  0.59930464  1
  B  B35  1  0.55686879  0.86496586  0.14872462  1
  N  N36  1  0.22158712  0.20622385  0.33644528  1
  N  N37  1  0.08158407  0.10581275  0.09725660  1
  N  N38  1  0.87009469  0.18023666  0.84284742  1
  N  N39  1  0.79790059  0.05615859  0.59453558  1
  N  N40  1  0.55579662  0.19984271  0.38603629  1
  N  N41  1  0.45575486  0.07198403  0.12460364  1
  N  N42  1  0.21048414  0.20625411  0.84913506  1
  N  N43  1  0.10853722  0.09411490  0.58923311  1
  N  N44  1  0.89754038  0.21288441  0.32443600  1
  N  N45  1  0.78491113  0.11409223  0.14033582  1
  N  N46  1  0.58288052  0.19181631  0.88788842  1
  N  N47  1  0.44553854  0.09522041  0.64763037  1
  N  N48  1  0.22204979  0.53938447  0.34122651  1
  N  N49  1  0.10707241  0.43220686  0.09036360  1
  N  N50  1  0.87967619  0.54494564  0.84572367  1
  N  N51  1  0.78140276  0.42113017  0.59196595  1
  N  N52  1  0.55767634  0.53670873  0.34030992  1
  N  N53  1  0.44106732  0.43108198  0.08895527  1
  N  N54  1  0.21746672  0.54102566  0.83810135  1
  N  N55  1  0.10902442  0.42672220  0.58919650  1
  N  N56  1  0.88913119  0.53951859  0.33663897  1
  N  N57  1  0.78962412  0.40179113  0.09616634  1
  N  N58  1  0.55573185  0.54193918  0.84246338  1
  N  N59  1  0.44281819  0.43002793  0.59298669  1
  N  N60  1  0.22404297  0.87159430  0.34275843  1
  N  N61  1  0.11645395  0.75915007  0.08888237  1
  N  N62  1  0.85325638  0.89595131  0.89079069  1
  N  N63  1  0.79420451  0.77226950  0.58460947  1
  N  N64  1  0.56569991  0.85730201  0.31589164  1
  N  N65  1  0.45512524  0.77307219  0.09798375  1
  N  N66  1  0.22371047  0.87020678  0.84176688  1
  N  N67  1  0.08467137  0.77317395  0.59167525  1
  N  N68  1  0.89371453  0.86374178  0.32500535  1
  N  N69  1  0.74636841  0.77625470  0.08093919  1
  N  N70  1  0.58312831  0.85979149  0.85025977  1
  N  N71  1  0.45054235  0.76272358  0.59008705  1
