# generated using pymatgen
data_Al31B5N36
_symmetry_space_group_name_H-M   'P 1'
_cell_length_a   9.15106280
_cell_length_b   9.13181865
_cell_length_c   10.22588592
_cell_angle_alpha   90.20855009
_cell_angle_beta   89.44851973
_cell_angle_gamma   60.01523432
_symmetry_Int_Tables_number   1
_chemical_formula_structural   Al31B5N36
_chemical_formula_sum   'Al31 B5 N36'
_cell_volume   740.09291980
_cell_formula_units_Z   1
loop_
 _symmetry_equiv_pos_site_id
 _symmetry_equiv_pos_as_xyz
  1  'x, y, z'
loop_
 _atom_site_type_symbol
 _atom_site_label
 _atom_site_symmetry_multiplicity
 _atom_site_fract_x
 _atom_site_fract_y
 _atom_site_fract_z
 _atom_site_occupancy
  Al  Al0  1  0.11524482  0.09306660  0.40159726  1
  Al  Al1  1  0.21150667  0.20568406  0.13711469  1
  Al  Al2  1  0.88759505  0.20015079  0.61869023  1
  Al  Al3  1  0.45429080  0.08264184  0.31856712  1
  Al  Al4  1  0.57618277  0.18505762  0.06137719  1
  Al  Al5  1  0.09754315  0.09542965  0.88818862  1
  Al  Al6  1  0.21291966  0.21366923  0.64998403  1
  Al  Al7  1  0.77965009  0.10576672  0.31950998  1
  Al  Al8  1  0.46145449  0.08672927  0.81840470  1
  Al  Al9  1  0.56465899  0.19164144  0.56950015  1
  Al  Al10  1  0.11152693  0.42470905  0.39368003  1
  Al  Al11  1  0.22304876  0.53709187  0.14546166  1
  Al  Al12  1  0.77923001  0.42154753  0.88411311  1
  Al  Al13  1  0.88735098  0.55434101  0.64707076  1
  Al  Al14  1  0.44210409  0.43252833  0.39320804  1
  Al  Al15  1  0.56170768  0.53182099  0.14069701  1
  Al  Al16  1  0.10399171  0.43841784  0.89669541  1
  Al  Al17  1  0.21719961  0.54326489  0.64277184  1
  Al  Al18  1  0.77539587  0.43142177  0.40482145  1
  Al  Al19  1  0.88030547  0.53720732  0.14607909  1
  Al  Al20  1  0.44559167  0.42794813  0.88922097  1
  Al  Al21  1  0.55221146  0.54178962  0.65076306  1
  Al  Al22  1  0.10258961  0.76815439  0.39267198  1
  Al  Al23  1  0.21732989  0.87725853  0.14231607  1
  Al  Al24  1  0.43922973  0.75758981  0.39616198  1
  Al  Al25  1  0.09885301  0.76574796  0.89313579  1
  Al  Al26  1  0.21474732  0.87478554  0.65075620  1
  Al  Al27  1  0.78272233  0.76212011  0.38504166  1
  Al  Al28  1  0.88512503  0.86795591  0.13379333  1
  Al  Al29  1  0.45502377  0.76462429  0.89203728  1
  Al  Al30  1  0.55540997  0.87598151  0.58893290  1
  B  B31  1  0.77490369  0.07863775  0.80777495  1
  B  B32  1  0.88710867  0.20494312  0.09792759  1
  B  B33  1  0.77261116  0.77596231  0.85062997  1
  B  B34  1  0.88750708  0.86976034  0.61405576  1
  B  B35  1  0.56101822  0.86539632  0.10557827  1
  N  N36  1  0.21806398  0.20547588  0.32412307  1
  N  N37  1  0.07900704  0.10756059  0.08131601  1
  N  N38  1  0.87729029  0.19013911  0.82261762  1
  N  N39  1  0.78437775  0.06140236  0.64461155  1
  N  N40  1  0.55945219  0.19713105  0.38062404  1
  N  N41  1  0.46395571  0.06112398  0.12313480  1
  N  N42  1  0.21355058  0.21043756  0.84033013  1
  N  N43  1  0.12097527  0.09074816  0.58745076  1
  N  N44  1  0.88480783  0.20174928  0.39872696  1
  N  N45  1  0.79326337  0.11319855  0.12824463  1
  N  N46  1  0.58768868  0.18601367  0.87300427  1
  N  N47  1  0.44279299  0.10111687  0.63477028  1
  N  N48  1  0.22098350  0.54060500  0.33316300  1
  N  N49  1  0.10620543  0.43164737  0.08235192  1
  N  N50  1  0.87632651  0.57117848  0.83703698  1
  N  N51  1  0.77374986  0.44277687  0.59288736  1
  N  N52  1  0.55891689  0.53618715  0.32689969  1
  N  N53  1  0.44368218  0.42476758  0.07856346  1
  N  N54  1  0.22236090  0.53962940  0.82851816  1
  N  N55  1  0.10896768  0.43005924  0.58100444  1
  N  N56  1  0.88932605  0.53444868  0.33285723  1
  N  N57  1  0.79276373  0.39702884  0.07807722  1
  N  N58  1  0.55520117  0.54034436  0.83571565  1
  N  N59  1  0.44350825  0.43189297  0.58234148  1
  N  N60  1  0.22066539  0.87306932  0.32908353  1
  N  N61  1  0.11282301  0.75806288  0.07932817  1
  N  N62  1  0.86436029  0.87642719  0.85183604  1
  N  N63  1  0.79861338  0.77511895  0.57917474  1
  N  N64  1  0.55179135  0.87551156  0.39373516  1
  N  N65  1  0.45641930  0.77464202  0.08454989  1
  N  N66  1  0.22459857  0.86953327  0.83703413  1
  N  N67  1  0.08021032  0.77963246  0.58648032  1
  N  N68  1  0.89076235  0.87094581  0.32143041  1
  N  N69  1  0.74360595  0.77135357  0.11221464  1
  N  N70  1  0.58848565  0.85369666  0.83383415  1
  N  N71  1  0.43389293  0.75725290  0.58474695  1
