# generated using pymatgen
data_Al31B5N36
_symmetry_space_group_name_H-M   'P 1'
_cell_length_a   9.20125809
_cell_length_b   9.18196803
_cell_length_c   9.93517570
_cell_angle_alpha   89.77092259
_cell_angle_beta   89.38602080
_cell_angle_gamma   59.89962452
_symmetry_Int_Tables_number   1
_chemical_formula_structural   Al31B5N36
_chemical_formula_sum   'Al31 B5 N36'
_cell_volume   726.14529989
_cell_formula_units_Z   1
loop_
 _symmetry_equiv_pos_site_id
 _symmetry_equiv_pos_as_xyz
  1  'x, y, z'
loop_
 _atom_site_type_symbol
 _atom_site_label
 _atom_site_symmetry_multiplicity
 _atom_site_fract_x
 _atom_site_fract_y
 _atom_site_fract_z
 _atom_site_occupancy
  Al  Al0  1  0.11162511  0.08716391  0.38688863  1
  Al  Al1  1  0.22285868  0.20521042  0.06240126  1
  Al  Al2  1  0.88575376  0.19782796  0.59625108  1
  Al  Al3  1  0.44880934  0.08889024  0.30540076  1
  Al  Al4  1  0.56993083  0.20109048  0.05457232  1
  Al  Al5  1  0.09007267  0.09541243  0.87565934  1
  Al  Al6  1  0.22913283  0.20769714  0.56352181  1
  Al  Al7  1  0.78195761  0.09270629  0.32107894  1
  Al  Al8  1  0.45430151  0.08710140  0.81755236  1
  Al  Al9  1  0.56035338  0.19748867  0.56312605  1
  Al  Al10  1  0.11003777  0.42903598  0.31159559  1
  Al  Al11  1  0.22257592  0.53800088  0.05873051  1
  Al  Al12  1  0.77586172  0.42719177  0.80781854  1
  Al  Al13  1  0.88738553  0.54854065  0.56672192  1
  Al  Al14  1  0.44445480  0.42706154  0.31168252  1
  Al  Al15  1  0.56327656  0.53403128  0.06255614  1
  Al  Al16  1  0.10743336  0.42963348  0.81030194  1
  Al  Al17  1  0.21594724  0.54641005  0.56183238  1
  Al  Al18  1  0.78337739  0.42127686  0.31887594  1
  Al  Al19  1  0.88403038  0.54329957  0.05811761  1
  Al  Al20  1  0.45204495  0.42218759  0.80871717  1
  Al  Al21  1  0.55543010  0.54231887  0.55820684  1
  Al  Al22  1  0.10144648  0.76271328  0.31426025  1
  Al  Al23  1  0.21643442  0.88166232  0.11720328  1
  Al  Al24  1  0.45392621  0.76330288  0.30507072  1
  Al  Al25  1  0.09282894  0.76073085  0.81742254  1
  Al  Al26  1  0.21768625  0.87492464  0.63929487  1
  Al  Al27  1  0.77441771  0.76663847  0.31300130  1
  Al  Al28  1  0.87849768  0.88251133  0.05573292  1
  Al  Al29  1  0.45757630  0.75710903  0.82502159  1
  Al  Al30  1  0.56116030  0.87255232  0.56908388  1
  B  B31  1  0.77346978  0.08522923  0.79876020  1
  B  B32  1  0.88806507  0.20634022  0.10098042  1
  B  B33  1  0.77433003  0.77373616  0.81500258  1
  B  B34  1  0.88273571  0.87174695  0.58644028  1
  B  B35  1  0.56752730  0.86727453  0.05503847  1
  N  N36  1  0.22686406  0.20644567  0.36659798  1
  N  N37  1  0.07464055  0.11265608  0.07524940  1
  N  N38  1  0.87189236  0.18793954  0.81786336  1
  N  N39  1  0.78265917  0.06196377  0.63314428  1
  N  N40  1  0.55531126  0.20324983  0.37067157  1
  N  N41  1  0.46156203  0.06955636  0.10845688  1
  N  N42  1  0.22132793  0.20407363  0.87101039  1
  N  N43  1  0.11892870  0.08780000  0.57948114  1
  N  N44  1  0.88017991  0.20740238  0.38733605  1
  N  N45  1  0.79412899  0.10905501  0.12300672  1
  N  N46  1  0.58218988  0.19124570  0.86170882  1
  N  N47  1  0.44512366  0.09371169  0.62822707  1
  N  N48  1  0.22132562  0.54094412  0.37179819  1
  N  N49  1  0.10847490  0.42926952  0.12067754  1
  N  N50  1  0.87670424  0.56426827  0.86599609  1
  N  N51  1  0.77512207  0.43578083  0.61920500  1
  N  N52  1  0.55461774  0.54203240  0.36587751  1
  N  N53  1  0.44518395  0.42550977  0.11986300  1
  N  N54  1  0.22533513  0.53407119  0.86930251  1
  N  N55  1  0.11064462  0.42906841  0.62140834  1
  N  N56  1  0.88669623  0.54322184  0.37248957  1
  N  N57  1  0.79484025  0.39867475  0.11920863  1
  N  N58  1  0.55868818  0.53363256  0.87571550  1
  N  N59  1  0.44506616  0.42817483  0.61809571  1
  N  N60  1  0.22160586  0.87595946  0.31336697  1
  N  N61  1  0.10051984  0.76068853  0.11548645  1
  N  N62  1  0.86081058  0.88444826  0.86494362  1
  N  N63  1  0.78604068  0.77415521  0.64250442  1
  N  N64  1  0.55585919  0.87305399  0.37935281  1
  N  N65  1  0.46498855  0.77222994  0.10658655  1
  N  N66  1  0.22011921  0.86849048  0.83867847  1
  N  N67  1  0.07956089  0.77360149  0.62246099  1
  N  N68  1  0.88440546  0.87223375  0.38976705  1
  N  N69  1  0.75431942  0.77568299  0.11814408  1
  N  N70  1  0.58283310  0.86022873  0.88351572  1
  N  N71  1  0.45194858  0.75851812  0.62957274  1
