# generated using pymatgen
data_Al31B5N36
_symmetry_space_group_name_H-M   'P 1'
_cell_length_a   9.15867914
_cell_length_b   9.22658606
_cell_length_c   10.27500859
_cell_angle_alpha   90.38618524
_cell_angle_beta   89.70140589
_cell_angle_gamma   59.82099096
_symmetry_Int_Tables_number   1
_chemical_formula_structural   Al31B5N36
_chemical_formula_sum   'Al31 B5 N36'
_cell_volume   750.53186199
_cell_formula_units_Z   1
loop_
 _symmetry_equiv_pos_site_id
 _symmetry_equiv_pos_as_xyz
  1  'x, y, z'
loop_
 _atom_site_type_symbol
 _atom_site_label
 _atom_site_symmetry_multiplicity
 _atom_site_fract_x
 _atom_site_fract_y
 _atom_site_fract_z
 _atom_site_occupancy
  Al  Al0  1  0.11607115  0.09425354  0.39779951  1
  Al  Al1  1  0.21756967  0.20225018  0.13015019  1
  Al  Al2  1  0.88532252  0.20216191  0.59190002  1
  Al  Al3  1  0.45389790  0.08602826  0.31806789  1
  Al  Al4  1  0.57614224  0.19484396  0.05920391  1
  Al  Al5  1  0.09327021  0.09974817  0.89025668  1
  Al  Al6  1  0.21867872  0.20325200  0.64955465  1
  Al  Al7  1  0.78170742  0.09615214  0.31896727  1
  Al  Al8  1  0.47128415  0.07800141  0.81924888  1
  Al  Al9  1  0.55751139  0.19865808  0.56905674  1
  Al  Al10  1  0.10661445  0.43608105  0.31759157  1
  Al  Al11  1  0.22746007  0.53471897  0.06380734  1
  Al  Al12  1  0.76915743  0.43804892  0.81496584  1
  Al  Al13  1  0.88907635  0.54961244  0.56750332  1
  Al  Al14  1  0.44349408  0.42428643  0.31923829  1
  Al  Al15  1  0.56405854  0.52723618  0.07444371  1
  Al  Al16  1  0.10080557  0.44029821  0.82444953  1
  Al  Al17  1  0.21069083  0.54932690  0.57323334  1
  Al  Al18  1  0.78179872  0.41898779  0.32531909  1
  Al  Al19  1  0.88192798  0.53716324  0.07118878  1
  Al  Al20  1  0.44821971  0.42751758  0.81634629  1
  Al  Al21  1  0.55729315  0.53213192  0.56693079  1
  Al  Al22  1  0.10903369  0.75759605  0.31174149  1
  Al  Al23  1  0.22353606  0.88289768  0.13837659  1
  Al  Al24  1  0.43246686  0.76685478  0.39364798  1
  Al  Al25  1  0.09265666  0.76194133  0.83727820  1
  Al  Al26  1  0.21806075  0.87595775  0.65248992  1
  Al  Al27  1  0.77006570  0.76096842  0.32309678  1
  Al  Al28  1  0.88686597  0.86988864  0.09142338  1
  Al  Al29  1  0.44974840  0.76915036  0.89327955  1
  Al  Al30  1  0.56492396  0.87457361  0.57602311  1
  B  B31  1  0.75811277  0.13376403  0.80019083  1
  B  B32  1  0.88821473  0.20529631  0.10600624  1
  B  B33  1  0.77628383  0.75981182  0.87378080  1
  B  B34  1  0.88325210  0.86924408  0.62721575  1
  B  B35  1  0.55939324  0.86679129  0.10427245  1
  N  N36  1  0.21928426  0.20301041  0.32079053  1
  N  N37  1  0.07908905  0.11109034  0.07968465  1
  N  N38  1  0.86957586  0.20099902  0.83403485  1
  N  N39  1  0.78198392  0.07111318  0.65189714  1
  N  N40  1  0.55620992  0.20333904  0.38209256  1
  N  N41  1  0.47035447  0.06134309  0.12042810  1
  N  N42  1  0.22104506  0.20198785  0.84330475  1
  N  N43  1  0.12037545  0.08920796  0.58298337  1
  N  N44  1  0.87992836  0.20665275  0.39719162  1
  N  N45  1  0.79631589  0.11157896  0.12624828  1
  N  N46  1  0.58546199  0.19601219  0.86938813  1
  N  N47  1  0.44897571  0.09343083  0.63465181  1
  N  N48  1  0.21965967  0.54270370  0.38562715  1
  N  N49  1  0.10547318  0.43783435  0.12758201  1
  N  N50  1  0.87212321  0.55846559  0.88502191  1
  N  N51  1  0.77497677  0.43847498  0.63059555  1
  N  N52  1  0.55568379  0.53363787  0.37644423  1
  N  N53  1  0.44845281  0.41659808  0.13089927  1
  N  N54  1  0.22836935  0.53270085  0.88062237  1
  N  N55  1  0.10558671  0.43487491  0.63615245  1
  N  N56  1  0.88659377  0.53719094  0.38005130  1
  N  N57  1  0.79557354  0.39562038  0.13174308  1
  N  N58  1  0.55440823  0.53575916  0.88885362  1
  N  N59  1  0.44311148  0.42704619  0.63069316  1
  N  N60  1  0.22027472  0.88051791  0.32433606  1
  N  N61  1  0.12348795  0.75280767  0.12154328  1
  N  N62  1  0.87736459  0.84040440  0.90493657  1
  N  N63  1  0.79633798  0.77883656  0.60393457  1
  N  N64  1  0.55248270  0.87690682  0.38750380  1
  N  N65  1  0.45635833  0.77947685  0.08696638  1
  N  N66  1  0.22216382  0.87365346  0.84000992  1
  N  N67  1  0.07626344  0.77743265  0.64259552  1
  N  N68  1  0.88409218  0.87240794  0.32687998  1
  N  N69  1  0.74386101  0.76375048  0.13275308  1
  N  N70  1  0.59249227  0.85134459  0.85686189  1
  N  N71  1  0.43563130  0.76278256  0.58439011  1
