# generated using pymatgen
data_Al31B5N36
_symmetry_space_group_name_H-M   'P 1'
_cell_length_a   9.16273852
_cell_length_b   9.13847892
_cell_length_c   10.14358483
_cell_angle_alpha   90.19135781
_cell_angle_beta   89.73999868
_cell_angle_gamma   60.08444879
_symmetry_Int_Tables_number   1
_chemical_formula_structural   Al31B5N36
_chemical_formula_sum   'Al31 B5 N36'
_cell_volume   736.16759834
_cell_formula_units_Z   1
loop_
 _symmetry_equiv_pos_site_id
 _symmetry_equiv_pos_as_xyz
  1  'x, y, z'
loop_
 _atom_site_type_symbol
 _atom_site_label
 _atom_site_symmetry_multiplicity
 _atom_site_fract_x
 _atom_site_fract_y
 _atom_site_fract_z
 _atom_site_occupancy
  Al  Al0  1  0.11122505  0.09726386  0.39985057  1
  Al  Al1  1  0.21158215  0.20595462  0.14820843  1
  Al  Al2  1  0.88486409  0.19259904  0.65100550  1
  Al  Al3  1  0.45484389  0.08178715  0.32848051  1
  Al  Al4  1  0.57162686  0.19118613  0.08266398  1
  Al  Al5  1  0.09626820  0.09243604  0.90819482  1
  Al  Al6  1  0.21060736  0.21105418  0.65506365  1
  Al  Al7  1  0.77954235  0.09801119  0.33228722  1
  Al  Al8  1  0.45836718  0.08685164  0.82984381  1
  Al  Al9  1  0.56425040  0.18981079  0.57124238  1
  Al  Al10  1  0.11011882  0.42782263  0.40178928  1
  Al  Al11  1  0.22212471  0.53924782  0.15419610  1
  Al  Al12  1  0.77753648  0.41841181  0.90673978  1
  Al  Al13  1  0.88639952  0.55070075  0.66068826  1
  Al  Al14  1  0.44041890  0.43546566  0.40025126  1
  Al  Al15  1  0.56207726  0.53495407  0.15206107  1
  Al  Al16  1  0.10325547  0.43486060  0.90492320  1
  Al  Al17  1  0.21697222  0.54131571  0.65035716  1
  Al  Al18  1  0.77934496  0.42901365  0.40194852  1
  Al  Al19  1  0.88057628  0.54128431  0.14975451  1
  Al  Al20  1  0.44399864  0.42868593  0.90057335  1
  Al  Al21  1  0.55585321  0.53535061  0.65674881  1
  Al  Al22  1  0.10432630  0.76651894  0.39734762  1
  Al  Al23  1  0.22027442  0.87776238  0.15210109  1
  Al  Al24  1  0.44102014  0.75998781  0.40845758  1
  Al  Al25  1  0.09986938  0.76540484  0.90182202  1
  Al  Al26  1  0.21358297  0.87495166  0.65484226  1
  Al  Al27  1  0.78450741  0.76223694  0.40106220  1
  Al  Al28  1  0.88518829  0.87485592  0.13168441  1
  Al  Al29  1  0.45232047  0.76286082  0.89646895  1
  Al  Al30  1  0.56138987  0.87321101  0.61008727  1
  B  B31  1  0.77468790  0.07723956  0.87055934  1
  B  B32  1  0.88931507  0.20964111  0.15840893  1
  B  B33  1  0.76187590  0.77688693  0.90181297  1
  B  B34  1  0.89007693  0.87353433  0.60368446  1
  B  B35  1  0.55662382  0.86943162  0.10341871  1
  N  N36  1  0.22162373  0.20770543  0.33582157  1
  N  N37  1  0.08286486  0.10634730  0.09707963  1
  N  N38  1  0.87071664  0.18044300  0.84272974  1
  N  N39  1  0.79709883  0.05842024  0.59375278  1
  N  N40  1  0.55516898  0.20311470  0.38175257  1
  N  N41  1  0.46445654  0.05876177  0.13188518  1
  N  N42  1  0.20934144  0.20740626  0.84769587  1
  N  N43  1  0.10768121  0.09525162  0.58851649  1
  N  N44  1  0.89702512  0.21497862  0.32395132  1
  N  N45  1  0.78788483  0.11223435  0.13964085  1
  N  N46  1  0.58418436  0.18547373  0.89089106  1
  N  N47  1  0.44218552  0.10221178  0.64420673  1
  N  N48  1  0.22065567  0.54116778  0.34149627  1
  N  N49  1  0.10832416  0.43106635  0.09125327  1
  N  N50  1  0.87400590  0.56490784  0.85216592  1
  N  N51  1  0.78017438  0.42560567  0.59438760  1
  N  N52  1  0.55652329  0.54062583  0.33858335  1
  N  N53  1  0.44237496  0.42933794  0.09014879  1
  N  N54  1  0.22069404  0.53859712  0.83782104  1
  N  N55  1  0.10631282  0.42948695  0.59047669  1
  N  N56  1  0.88742763  0.54215826  0.33800737  1
  N  N57  1  0.79108374  0.40165086  0.09631467  1
  N  N58  1  0.55767092  0.53589407  0.84398694  1
  N  N59  1  0.44283271  0.42960279  0.59049356  1
  N  N60  1  0.22303002  0.87254121  0.33966096  1
  N  N61  1  0.11677730  0.75839529  0.08826722  1
  N  N62  1  0.85884749  0.88874257  0.88270313  1
  N  N63  1  0.80217560  0.77105964  0.59218775  1
  N  N64  1  0.55513843  0.87541031  0.40327856  1
  N  N65  1  0.45792183  0.77533674  0.09192130  1
  N  N66  1  0.22176205  0.87094130  0.84332248  1
  N  N67  1  0.08522185  0.77435795  0.59155578  1
  N  N68  1  0.89186943  0.86402817  0.32400648  1
  N  N69  1  0.74718222  0.77276891  0.07977641  1
  N  N70  1  0.58477943  0.85451816  0.84385790  1
  N  N71  1  0.43762487  0.75646364  0.59775647  1
