# generated using pymatgen
data_Al31B5N36
_symmetry_space_group_name_H-M   'P 1'
_cell_length_a   9.19869577
_cell_length_b   9.23551291
_cell_length_c   10.08924086
_cell_angle_alpha   90.09984251
_cell_angle_beta   89.49876803
_cell_angle_gamma   59.72298937
_symmetry_Int_Tables_number   1
_chemical_formula_structural   Al31B5N36
_chemical_formula_sum   'Al31 B5 N36'
_cell_volume   740.16698341
_cell_formula_units_Z   1
loop_
 _symmetry_equiv_pos_site_id
 _symmetry_equiv_pos_as_xyz
  1  'x, y, z'
loop_
 _atom_site_type_symbol
 _atom_site_label
 _atom_site_symmetry_multiplicity
 _atom_site_fract_x
 _atom_site_fract_y
 _atom_site_fract_z
 _atom_site_occupancy
  Al  Al0  1  0.11494333  0.08716725  0.39730283  1
  Al  Al1  1  0.22564747  0.20459871  0.07326961  1
  Al  Al2  1  0.88431321  0.20273471  0.59496384  1
  Al  Al3  1  0.44971867  0.08843284  0.31402918  1
  Al  Al4  1  0.57498451  0.19988651  0.06257532  1
  Al  Al5  1  0.08934795  0.09803668  0.88843540  1
  Al  Al6  1  0.22774877  0.20663747  0.58593920  1
  Al  Al7  1  0.78110452  0.09622980  0.32131007  1
  Al  Al8  1  0.46343771  0.08199399  0.82988842  1
  Al  Al9  1  0.55814065  0.19802338  0.57143628  1
  Al  Al10  1  0.11122116  0.42772943  0.31973122  1
  Al  Al11  1  0.22793470  0.53424222  0.06660978  1
  Al  Al12  1  0.77085659  0.43583127  0.81552559  1
  Al  Al13  1  0.88818252  0.55030343  0.56951713  1
  Al  Al14  1  0.44384974  0.42611678  0.32242643  1
  Al  Al15  1  0.56102778  0.53495515  0.07251034  1
  Al  Al16  1  0.10618745  0.43103831  0.82426975  1
  Al  Al17  1  0.21063349  0.54909527  0.57344180  1
  Al  Al18  1  0.78247762  0.41950736  0.32791282  1
  Al  Al19  1  0.88434244  0.53584387  0.07604317  1
  Al  Al20  1  0.44844366  0.42732060  0.81630749  1
  Al  Al21  1  0.55260588  0.54539105  0.56748662  1
  Al  Al22  1  0.10803876  0.75766651  0.31368868  1
  Al  Al23  1  0.21680458  0.88478780  0.12974635  1
  Al  Al24  1  0.45195994  0.76271424  0.31527796  1
  Al  Al25  1  0.09122027  0.75923676  0.84054175  1
  Al  Al26  1  0.21271632  0.87690470  0.65376086  1
  Al  Al27  1  0.77087032  0.76235335  0.32192379  1
  Al  Al28  1  0.88364854  0.87205563  0.09218387  1
  Al  Al29  1  0.45447641  0.75934924  0.83495640  1
  Al  Al30  1  0.56131134  0.87362611  0.57392545  1
  B  B31  1  0.75648721  0.13227446  0.80040068  1
  B  B32  1  0.88706551  0.20725788  0.10841326  1
  B  B33  1  0.77908255  0.75704534  0.88306898  1
  B  B34  1  0.88009593  0.86907073  0.62815068  1
  B  B35  1  0.56495097  0.86266265  0.07216709  1
  N  N36  1  0.22651849  0.20618159  0.37254327  1
  N  N37  1  0.07551500  0.11416089  0.08304202  1
  N  N38  1  0.86783136  0.20067537  0.83187142  1
  N  N39  1  0.78141050  0.06914544  0.65132813  1
  N  N40  1  0.55621340  0.20273804  0.38190711  1
  N  N41  1  0.46569352  0.06854241  0.11801574  1
  N  N42  1  0.22493482  0.20284300  0.88136837  1
  N  N43  1  0.11799544  0.08727450  0.58872488  1
  N  N44  1  0.87995373  0.20621961  0.39763831  1
  N  N45  1  0.79541777  0.11276100  0.12707740  1
  N  N46  1  0.58481919  0.19650027  0.86996364  1
  N  N47  1  0.44817740  0.09185997  0.64227494  1
  N  N48  1  0.21939720  0.54179036  0.38454351  1
  N  N49  1  0.11094499  0.42951481  0.12993554  1
  N  N50  1  0.87303145  0.55845467  0.88454748  1
  N  N51  1  0.77420725  0.43898369  0.62865452  1
  N  N52  1  0.55309295  0.54212534  0.37727340  1
  N  N53  1  0.44858641  0.42170324  0.13148690  1
  N  N54  1  0.22847469  0.52995298  0.88005075  1
  N  N55  1  0.10787080  0.43034822  0.63651959  1
  N  N56  1  0.88790672  0.53791554  0.37924275  1
  N  N57  1  0.79331355  0.39759366  0.13156163  1
  N  N58  1  0.55460861  0.53723642  0.88636111  1
  N  N59  1  0.44342356  0.42988185  0.62798155  1
  N  N60  1  0.21989958  0.87755714  0.32388025  1
  N  N61  1  0.11805352  0.75363550  0.11944396  1
  N  N62  1  0.87362451  0.84313045  0.90267760  1
  N  N63  1  0.79062547  0.77899202  0.61295063  1
  N  N64  1  0.55049628  0.87476334  0.38731857  1
  N  N65  1  0.46115535  0.77252498  0.11933281  1
  N  N66  1  0.21558494  0.87268735  0.84728816  1
  N  N67  1  0.07370129  0.77631721  0.64169912  1
  N  N68  1  0.88416304  0.87305768  0.33432743  1
  N  N69  1  0.74811321  0.76417160  0.13127200  1
  N  N70  1  0.58295359  0.85589065  0.90335977  1
  N  N71  1  0.45050170  0.76123766  0.64113311  1
