# generated using pymatgen
data_Al31B5N36
_symmetry_space_group_name_H-M   'P 1'
_cell_length_a   9.16717435
_cell_length_b   9.17773843
_cell_length_c   9.86521691
_cell_angle_alpha   89.92275824
_cell_angle_beta   90.27451241
_cell_angle_gamma   60.11350033
_symmetry_Int_Tables_number   1
_chemical_formula_structural   Al31B5N36
_chemical_formula_sum   'Al31 B5 N36'
_cell_volume   719.60635761
_cell_formula_units_Z   1
loop_
 _symmetry_equiv_pos_site_id
 _symmetry_equiv_pos_as_xyz
  1  'x, y, z'
loop_
 _atom_site_type_symbol
 _atom_site_label
 _atom_site_symmetry_multiplicity
 _atom_site_fract_x
 _atom_site_fract_y
 _atom_site_fract_z
 _atom_site_occupancy
  Al  Al0  1  0.10594592  0.09628652  0.39748560  1
  Al  Al1  1  0.21828593  0.20274073  0.15286522  1
  Al  Al2  1  0.88873928  0.19256085  0.65668850  1
  Al  Al3  1  0.44657439  0.09023615  0.39759014  1
  Al  Al4  1  0.56063313  0.20206159  0.15005988  1
  Al  Al5  1  0.10063439  0.09311108  0.90783141  1
  Al  Al6  1  0.22305111  0.20238280  0.65411914  1
  Al  Al7  1  0.78151062  0.08937648  0.38927886  1
  Al  Al8  1  0.45375452  0.08679145  0.90967314  1
  Al  Al9  1  0.56797517  0.19187661  0.65916652  1
  Al  Al10  1  0.10877600  0.42710714  0.40321271  1
  Al  Al11  1  0.22221354  0.53876787  0.15503549  1
  Al  Al12  1  0.77937234  0.41936648  0.90613844  1
  Al  Al13  1  0.88886573  0.54502148  0.65925882  1
  Al  Al14  1  0.44616620  0.42480643  0.40548324  1
  Al  Al15  1  0.55961720  0.53694084  0.15342486  1
  Al  Al16  1  0.10575879  0.43169955  0.90348701  1
  Al  Al17  1  0.21693801  0.54059377  0.65234775  1
  Al  Al18  1  0.78013404  0.42309621  0.39797297  1
  Al  Al19  1  0.88197852  0.54015671  0.14579435  1
  Al  Al20  1  0.44644093  0.42571184  0.90348312  1
  Al  Al21  1  0.55865932  0.53735103  0.65531672  1
  Al  Al22  1  0.10517753  0.76327253  0.39436958  1
  Al  Al23  1  0.21960679  0.87739384  0.15413855  1
  Al  Al24  1  0.44754267  0.76156849  0.39835629  1
  Al  Al25  1  0.09718988  0.76639574  0.90336353  1
  Al  Al26  1  0.21876117  0.87348258  0.65221922  1
  Al  Al27  1  0.77771432  0.76375078  0.38872576  1
  Al  Al28  1  0.88200294  0.87985530  0.12507875  1
  Al  Al29  1  0.45145134  0.76254109  0.90779681  1
  Al  Al30  1  0.56932970  0.87046404  0.65747761  1
  B  B31  1  0.77417142  0.09482666  0.91682237  1
  B  B32  1  0.88434902  0.20780980  0.14957510  1
  B  B33  1  0.75393991  0.79469256  0.92269547  1
  B  B34  1  0.88940124  0.87033372  0.60522844  1
  B  B35  1  0.55279223  0.87162199  0.15219787  1
  N  N36  1  0.22147526  0.20504111  0.34385245  1
  N  N37  1  0.08335290  0.10740362  0.10023380  1
  N  N38  1  0.87382752  0.18628524  0.84766098  1
  N  N39  1  0.79407478  0.06160258  0.58751773  1
  N  N40  1  0.55618618  0.20463572  0.34187111  1
  N  N41  1  0.45405077  0.07024439  0.10183370  1
  N  N42  1  0.22334919  0.20098541  0.84810108  1
  N  N43  1  0.10748784  0.09498000  0.59092216  1
  N  N44  1  0.88650492  0.20468665  0.32011736  1
  N  N45  1  0.78427867  0.11516918  0.08517479  1
  N  N46  1  0.57896348  0.19266215  0.85552386  1
  N  N47  1  0.44751946  0.09059892  0.59331149  1
  N  N48  1  0.22244672  0.53781987  0.34755951  1
  N  N49  1  0.11021044  0.42822073  0.09431724  1
  N  N50  1  0.87814517  0.55288278  0.85158086  1
  N  N51  1  0.78240408  0.42097029  0.59377505  1
  N  N52  1  0.55515639  0.53786249  0.34447039  1
  N  N53  1  0.44302574  0.42778278  0.09415455  1
  N  N54  1  0.21977259  0.54092745  0.84206482  1
  N  N55  1  0.10943303  0.42585086  0.59484028  1
  N  N56  1  0.88698084  0.53962079  0.33926896  1
  N  N57  1  0.78895304  0.40271822  0.09901696  1
  N  N58  1  0.55572797  0.54028932  0.84701615  1
  N  N59  1  0.44759159  0.42215744  0.59859654  1
  N  N60  1  0.22222644  0.87172723  0.34581806  1
  N  N61  1  0.11699190  0.75840233  0.09441158  1
  N  N62  1  0.85644978  0.88912524  0.89508603  1
  N  N63  1  0.79397634  0.77395723  0.58789825  1
  N  N64  1  0.55646099  0.87100114  0.32086312  1
  N  N65  1  0.45360099  0.77464667  0.10139960  1
  N  N66  1  0.22266030  0.87042255  0.84466973  1
  N  N67  1  0.08203462  0.77477084  0.59431342  1
  N  N68  1  0.88776010  0.87196995  0.32389754  1
  N  N69  1  0.74446524  0.77382566  0.08574617  1
  N  N70  1  0.58004222  0.86274854  0.84939238  1
  N  N71  1  0.44934352  0.76227232  0.59357232  1
