# generated using pymatgen
data_Al31B5N36
_symmetry_space_group_name_H-M   'P 1'
_cell_length_a   9.11253752
_cell_length_b   9.20459937
_cell_length_c   10.43048965
_cell_angle_alpha   90.79187865
_cell_angle_beta   89.89909691
_cell_angle_gamma   59.96766952
_symmetry_Int_Tables_number   1
_chemical_formula_structural   Al31B5N36
_chemical_formula_sum   'Al31 B5 N36'
_cell_volume   757.31170033
_cell_formula_units_Z   1
loop_
 _symmetry_equiv_pos_site_id
 _symmetry_equiv_pos_as_xyz
  1  'x, y, z'
loop_
 _atom_site_type_symbol
 _atom_site_label
 _atom_site_symmetry_multiplicity
 _atom_site_fract_x
 _atom_site_fract_y
 _atom_site_fract_z
 _atom_site_occupancy
  Al  Al0  1  0.11851913  0.09115501  0.39618938  1
  Al  Al1  1  0.21127444  0.20735528  0.13603002  1
  Al  Al2  1  0.88576533  0.20098115  0.58390066  1
  Al  Al3  1  0.45122883  0.08928537  0.31662699  1
  Al  Al4  1  0.57266700  0.19517028  0.05865676  1
  Al  Al5  1  0.09529964  0.09493230  0.89035124  1
  Al  Al6  1  0.21256044  0.21159282  0.64761538  1
  Al  Al7  1  0.78135411  0.09632455  0.31852295  1
  Al  Al8  1  0.46978532  0.07750541  0.81363181  1
  Al  Al9  1  0.55587168  0.20068217  0.56709343  1
  Al  Al10  1  0.10490833  0.42710426  0.39423184  1
  Al  Al11  1  0.23045985  0.53801311  0.06299969  1
  Al  Al12  1  0.77059461  0.42879234  0.81448531  1
  Al  Al13  1  0.88830569  0.55884072  0.64364065  1
  Al  Al14  1  0.44156830  0.42649937  0.31733346  1
  Al  Al15  1  0.56878970  0.52516649  0.07146867  1
  Al  Al16  1  0.10247096  0.42725980  0.89096775  1
  Al  Al17  1  0.21459274  0.55461084  0.57065719  1
  Al  Al18  1  0.77943989  0.41722198  0.32511380  1
  Al  Al19  1  0.88947282  0.53602576  0.14161896  1
  Al  Al20  1  0.44931417  0.42601958  0.81475519  1
  Al  Al21  1  0.55881239  0.53184709  0.56568791  1
  Al  Al22  1  0.10551765  0.75906121  0.31236287  1
  Al  Al23  1  0.22396835  0.88051186  0.13830150  1
  Al  Al24  1  0.43305047  0.76586295  0.39337891  1
  Al  Al25  1  0.09557693  0.75627575  0.82973064  1
  Al  Al26  1  0.21930497  0.87737047  0.65220025  1
  Al  Al27  1  0.77078588  0.77184012  0.33043119  1
  Al  Al28  1  0.88417538  0.87093269  0.07439633  1
  Al  Al29  1  0.45281795  0.76710188  0.89353214  1
  Al  Al30  1  0.56157618  0.87782143  0.57277235  1
  B  B31  1  0.75841797  0.13129891  0.79995305  1
  B  B32  1  0.88837074  0.20120835  0.10453735  1
  B  B33  1  0.77801678  0.75859930  0.86020825  1
  B  B34  1  0.88192047  0.87318537  0.62232473  1
  B  B35  1  0.55869642  0.87006667  0.10552773  1
  N  N36  1  0.21380693  0.21121595  0.32007108  1
  N  N37  1  0.08077282  0.10676365  0.07876574  1
  N  N38  1  0.87061910  0.19552162  0.83953951  1
  N  N39  1  0.78168855  0.07363742  0.65001102  1
  N  N40  1  0.55402999  0.20662140  0.38132642  1
  N  N41  1  0.46448790  0.06469529  0.12250384  1
  N  N42  1  0.21587752  0.20302490  0.83340523  1
  N  N43  1  0.12147336  0.08754290  0.57969081  1
  N  N44  1  0.88164552  0.20781285  0.39515910  1
  N  N45  1  0.79541478  0.10630151  0.12630680  1
  N  N46  1  0.58426037  0.19451550  0.86854775  1
  N  N47  1  0.44614974  0.09657535  0.63276290  1
  N  N48  1  0.22246534  0.54765308  0.38550005  1
  N  N49  1  0.10696285  0.42491303  0.07413895  1
  N  N50  1  0.87776035  0.56296199  0.83307198  1
  N  N51  1  0.77475556  0.43235283  0.63125441  1
  N  N52  1  0.55678490  0.53296966  0.37838255  1
  N  N53  1  0.44859400  0.41841579  0.13091920  1
  N  N54  1  0.23165656  0.53285767  0.87927388  1
  N  N55  1  0.10689499  0.42573151  0.57893610  1
  N  N56  1  0.89065883  0.53907183  0.32570641  1
  N  N57  1  0.79477437  0.38981090  0.13199677  1
  N  N58  1  0.55802026  0.53299763  0.88965071  1
  N  N59  1  0.44300770  0.42843028  0.63155029  1
  N  N60  1  0.22316139  0.87937011  0.32035048  1
  N  N61  1  0.11448479  0.75411331  0.12494540  1
  N  N62  1  0.87841794  0.84003063  0.89592851  1
  N  N63  1  0.79275890  0.78227262  0.60279261  1
  N  N64  1  0.54977153  0.88079718  0.38731195  1
  N  N65  1  0.45891289  0.77786451  0.08527524  1
  N  N66  1  0.22541674  0.87001596  0.83741872  1
  N  N67  1  0.07565847  0.77729493  0.64218338  1
  N  N68  1  0.88656278  0.87899165  0.35424265  1
  N  N69  1  0.74394694  0.77530184  0.13194209  1
  N  N70  1  0.59175449  0.85164105  0.85255188  1
  N  N71  1  0.43545718  0.76288227  0.58119264  1
