# generated using pymatgen
data_Al31B5N36
_symmetry_space_group_name_H-M   'P 1'
_cell_length_a   9.16799147
_cell_length_b   9.16385128
_cell_length_c   9.83468330
_cell_angle_alpha   90.04547069
_cell_angle_beta   90.12035553
_cell_angle_gamma   60.07921008
_symmetry_Int_Tables_number   1
_chemical_formula_structural   Al31B5N36
_chemical_formula_sum   'Al31 B5 N36'
_cell_volume   716.12421002
_cell_formula_units_Z   1
loop_
 _symmetry_equiv_pos_site_id
 _symmetry_equiv_pos_as_xyz
  1  'x, y, z'
loop_
 _atom_site_type_symbol
 _atom_site_label
 _atom_site_symmetry_multiplicity
 _atom_site_fract_x
 _atom_site_fract_y
 _atom_site_fract_z
 _atom_site_occupancy
  Al  Al0  1  0.10564911  0.09579013  0.39695030  1
  Al  Al1  1  0.21885431  0.20218827  0.15265109  1
  Al  Al2  1  0.88774372  0.19439299  0.65636643  1
  Al  Al3  1  0.44649467  0.09039550  0.39689842  1
  Al  Al4  1  0.56257165  0.20025225  0.14864958  1
  Al  Al5  1  0.10082808  0.09362247  0.90778221  1
  Al  Al6  1  0.22187633  0.20330461  0.65381066  1
  Al  Al7  1  0.78092003  0.08906982  0.39470273  1
  Al  Al8  1  0.45563237  0.08461133  0.90873574  1
  Al  Al9  1  0.56624886  0.19345362  0.65892442  1
  Al  Al10  1  0.10823449  0.42769781  0.40363078  1
  Al  Al11  1  0.22116221  0.54007245  0.15503392  1
  Al  Al12  1  0.77842856  0.42128572  0.90632888  1
  Al  Al13  1  0.88661110  0.54834857  0.65896431  1
  Al  Al14  1  0.44553058  0.42506765  0.40461786  1
  Al  Al15  1  0.56046661  0.53621147  0.15360560  1
  Al  Al16  1  0.10592085  0.43363723  0.90432274  1
  Al  Al17  1  0.21702072  0.54110988  0.65328860  1
  Al  Al18  1  0.78017787  0.42296032  0.39772618  1
  Al  Al19  1  0.88216814  0.54102560  0.14650046  1
  Al  Al20  1  0.44758118  0.42472704  0.90383817  1
  Al  Al21  1  0.55747284  0.53823809  0.65434311  1
  Al  Al22  1  0.10343431  0.76426790  0.40210078  1
  Al  Al23  1  0.21892944  0.87600199  0.15327725  1
  Al  Al24  1  0.44692948  0.76199571  0.39689845  1
  Al  Al25  1  0.09794079  0.76675187  0.89894576  1
  Al  Al26  1  0.21834082  0.87398736  0.65289097  1
  Al  Al27  1  0.77750614  0.76438100  0.39430250  1
  Al  Al28  1  0.88247078  0.87808358  0.13500502  1
  Al  Al29  1  0.45168241  0.76242319  0.90760958  1
  Al  Al30  1  0.56624155  0.87101081  0.65650657  1
  B  B31  1  0.77608452  0.09269379  0.91006351  1
  B  B32  1  0.88662831  0.20515100  0.14880056  1
  B  B33  1  0.76268844  0.77919054  0.91104250  1
  B  B34  1  0.88491853  0.87348415  0.63092823  1
  B  B35  1  0.55444879  0.87211431  0.15068160  1
  N  N36  1  0.22124339  0.20499207  0.34389403  1
  N  N37  1  0.08381985  0.10658800  0.10051976  1
  N  N38  1  0.87472318  0.18861014  0.84704471  1
  N  N39  1  0.79182639  0.06458588  0.59153239  1
  N  N40  1  0.55716639  0.20391816  0.34127712  1
  N  N41  1  0.45450146  0.06948690  0.10127017  1
  N  N42  1  0.22207896  0.20278469  0.84846373  1
  N  N43  1  0.10684530  0.09549457  0.59067582  1
  N  N44  1  0.88586876  0.20327038  0.31989870  1
  N  N45  1  0.78694881  0.10784518  0.08036575  1
  N  N46  1  0.57946804  0.19207353  0.85503201  1
  N  N47  1  0.44610729  0.09165468  0.59293030  1
  N  N48  1  0.22119285  0.53952902  0.34833358  1
  N  N49  1  0.11044897  0.42782473  0.09501353  1
  N  N50  1  0.87392333  0.56457748  0.85420889  1
  N  N51  1  0.78210326  0.42267352  0.59439819  1
  N  N52  1  0.55563381  0.53735847  0.34453586  1
  N  N53  1  0.44341459  0.42752613  0.09495912  1
  N  N54  1  0.22233056  0.53903079  0.84301142  1
  N  N55  1  0.10797044  0.42727221  0.59610025  1
  N  N56  1  0.88644302  0.54047691  0.34021977  1
  N  N57  1  0.79006712  0.40142747  0.09895128  1
  N  N58  1  0.55613496  0.53986111  0.84672298  1
  N  N59  1  0.44676467  0.42290254  0.59802608  1
  N  N60  1  0.22123959  0.87042264  0.34548225  1
  N  N61  1  0.11261205  0.75984813  0.09093220  1
  N  N62  1  0.86021246  0.88641876  0.86409137  1
  N  N63  1  0.79131691  0.77521774  0.59163110  1
  N  N64  1  0.55822776  0.87033707  0.32025587  1
  N  N65  1  0.45521558  0.77356127  0.10150499  1
  N  N66  1  0.22440333  0.87108574  0.84546503  1
  N  N67  1  0.08130582  0.77559463  0.60083204  1
  N  N68  1  0.88794628  0.87159542  0.32847485  1
  N  N69  1  0.74985555  0.77416101  0.08117156  1
  N  N70  1  0.57958977  0.86062729  0.84750154  1
  N  N71  1  0.44759714  0.76268612  0.59215553  1
