# generated using pymatgen
data_Al31B5N36
_symmetry_space_group_name_H-M   'P 1'
_cell_length_a   9.16674704
_cell_length_b   9.15339912
_cell_length_c   10.24516079
_cell_angle_alpha   90.11430924
_cell_angle_beta   89.46963165
_cell_angle_gamma   60.05539165
_symmetry_Int_Tables_number   1
_chemical_formula_structural   Al31B5N36
_chemical_formula_sum   'Al31 B5 N36'
_cell_volume   744.83131581
_cell_formula_units_Z   1
loop_
 _symmetry_equiv_pos_site_id
 _symmetry_equiv_pos_as_xyz
  1  'x, y, z'
loop_
 _atom_site_type_symbol
 _atom_site_label
 _atom_site_symmetry_multiplicity
 _atom_site_fract_x
 _atom_site_fract_y
 _atom_site_fract_z
 _atom_site_occupancy
  Al  Al0  1  0.11619072  0.09391041  0.39789892  1
  Al  Al1  1  0.21276330  0.20559962  0.13414543  1
  Al  Al2  1  0.88716964  0.20016951  0.61441417  1
  Al  Al3  1  0.45618462  0.08150381  0.31518505  1
  Al  Al4  1  0.57381607  0.19252696  0.05672159  1
  Al  Al5  1  0.09673357  0.09483570  0.88484004  1
  Al  Al6  1  0.21390843  0.21118871  0.64681899  1
  Al  Al7  1  0.78087229  0.10578234  0.31637023  1
  Al  Al8  1  0.46167739  0.08336873  0.81421296  1
  Al  Al9  1  0.56084347  0.19787944  0.56409474  1
  Al  Al10  1  0.11134936  0.42321849  0.39207774  1
  Al  Al11  1  0.22701416  0.53659819  0.07685077  1
  Al  Al12  1  0.77760310  0.42060414  0.88215406  1
  Al  Al13  1  0.88744292  0.55477968  0.64431834  1
  Al  Al14  1  0.44233317  0.42295952  0.31686117  1
  Al  Al15  1  0.56611444  0.53862942  0.13527626  1
  Al  Al16  1  0.09958197  0.43377554  0.88882266  1
  Al  Al17  1  0.22175093  0.54315487  0.58957497  1
  Al  Al18  1  0.77549473  0.43160100  0.40077677  1
  Al  Al19  1  0.88176420  0.53757887  0.14347626  1
  Al  Al20  1  0.44899585  0.41446652  0.81745952  1
  Al  Al21  1  0.55726279  0.54637326  0.64832667  1
  Al  Al22  1  0.10102363  0.77367541  0.38980758  1
  Al  Al23  1  0.21654261  0.87956335  0.13943945  1
  Al  Al24  1  0.43952268  0.75564824  0.39224180  1
  Al  Al25  1  0.09509135  0.77038030  0.88504252  1
  Al  Al26  1  0.21431673  0.87570835  0.64758134  1
  Al  Al27  1  0.78424572  0.76119221  0.38197665  1
  Al  Al28  1  0.88354123  0.86985652  0.13122779  1
  Al  Al29  1  0.45348077  0.76382688  0.88931150  1
  Al  Al30  1  0.55548349  0.87659901  0.58262873  1
  B  B31  1  0.77374299  0.07802586  0.80264290  1
  B  B32  1  0.88755935  0.20512983  0.09476502  1
  B  B33  1  0.77103826  0.77517808  0.84598573  1
  B  B34  1  0.88548530  0.87167473  0.61302841  1
  B  B35  1  0.56128413  0.86753546  0.10138787  1
  N  N36  1  0.22006188  0.20597895  0.32057093  1
  N  N37  1  0.07920863  0.10866274  0.07794073  1
  N  N38  1  0.87627150  0.18967436  0.81895352  1
  N  N39  1  0.78134682  0.06361692  0.64048388  1
  N  N40  1  0.55846008  0.20142223  0.37737025  1
  N  N41  1  0.46532964  0.06216841  0.11948888  1
  N  N42  1  0.21445191  0.20676647  0.83562650  1
  N  N43  1  0.12057871  0.09054213  0.58327498  1
  N  N44  1  0.88604660  0.20208457  0.39426063  1
  N  N45  1  0.79314704  0.11399970  0.12415458  1
  N  N46  1  0.58514916  0.18630872  0.87025507  1
  N  N47  1  0.44357467  0.09996485  0.62969480  1
  N  N48  1  0.22544503  0.54226866  0.37810996  1
  N  N49  1  0.10333633  0.42859801  0.07683122  1
  N  N50  1  0.87381541  0.57103010  0.83261150  1
  N  N51  1  0.77500842  0.44273065  0.58796998  1
  N  N52  1  0.56301459  0.53888188  0.32211746  1
  N  N53  1  0.44756737  0.41675098  0.12443482  1
  N  N54  1  0.22327291  0.53759611  0.85946209  1
  N  N55  1  0.10620978  0.42633773  0.58139649  1
  N  N56  1  0.89126369  0.53416670  0.32937351  1
  N  N57  1  0.79386849  0.39717852  0.07426790  1
  N  N58  1  0.55547711  0.54092737  0.83640826  1
  N  N59  1  0.45023818  0.41966050  0.62950931  1
  N  N60  1  0.22097901  0.87476963  0.32500640  1
  N  N61  1  0.10816835  0.76733470  0.07422658  1
  N  N62  1  0.86192829  0.87656960  0.84488529  1
  N  N63  1  0.79886369  0.77501625  0.57561642  1
  N  N64  1  0.55281649  0.87438754  0.38953356  1
  N  N65  1  0.45510640  0.77776966  0.08058416  1
  N  N66  1  0.22415129  0.87024478  0.83249232  1
  N  N67  1  0.07649623  0.78570347  0.58626210  1
  N  N68  1  0.89035139  0.87184852  0.31794966  1
  N  N69  1  0.74373928  0.77146164  0.10874094  1
  N  N70  1  0.58744202  0.85232249  0.83084421  1
  N  N71  1  0.43266779  0.75723856  0.57986708  1
