# generated using pymatgen
data_Al31B5N36
_symmetry_space_group_name_H-M   'P 1'
_cell_length_a   9.17685755
_cell_length_b   9.17709988
_cell_length_c   9.79396313
_cell_angle_alpha   90.07298180
_cell_angle_beta   90.06283980
_cell_angle_gamma   60.03989112
_symmetry_Int_Tables_number   1
_chemical_formula_structural   Al31B5N36
_chemical_formula_sum   'Al31 B5 N36'
_cell_volume   714.59926416
_cell_formula_units_Z   1
loop_
 _symmetry_equiv_pos_site_id
 _symmetry_equiv_pos_as_xyz
  1  'x, y, z'
loop_
 _atom_site_type_symbol
 _atom_site_label
 _atom_site_symmetry_multiplicity
 _atom_site_fract_x
 _atom_site_fract_y
 _atom_site_fract_z
 _atom_site_occupancy
  Al  Al0  1  0.10546590  0.09535163  0.40442288  1
  Al  Al1  1  0.21908437  0.20193946  0.16019016  1
  Al  Al2  1  0.88672091  0.19538327  0.66330836  1
  Al  Al3  1  0.44662126  0.09026467  0.40434085  1
  Al  Al4  1  0.56330801  0.19955184  0.15573082  1
  Al  Al5  1  0.10107109  0.09403608  0.91530005  1
  Al  Al6  1  0.22147042  0.20338639  0.66112449  1
  Al  Al7  1  0.78091649  0.08803093  0.40621446  1
  Al  Al8  1  0.45693705  0.08347710  0.91597993  1
  Al  Al9  1  0.56527231  0.19464088  0.66578336  1
  Al  Al10  1  0.10797582  0.42791775  0.41125942  1
  Al  Al11  1  0.22007323  0.54103800  0.16234946  1
  Al  Al12  1  0.77770031  0.42201653  0.91403629  1
  Al  Al13  1  0.88548433  0.54873793  0.66562385  1
  Al  Al14  1  0.44496895  0.42519273  0.41167432  1
  Al  Al15  1  0.56043559  0.53597758  0.16133643  1
  Al  Al16  1  0.10631184  0.43325685  0.91197374  1
  Al  Al17  1  0.21688697  0.54146796  0.66090559  1
  Al  Al18  1  0.77992464  0.42288862  0.40498685  1
  Al  Al19  1  0.88240158  0.54115101  0.15442149  1
  Al  Al20  1  0.44767509  0.42447979  0.91149789  1
  Al  Al21  1  0.55676882  0.53851103  0.66113718  1
  Al  Al22  1  0.10181043  0.76495506  0.41463088  1
  Al  Al23  1  0.21777155  0.87560937  0.16040472  1
  Al  Al24  1  0.44638964  0.76208256  0.40382394  1
  Al  Al25  1  0.09998047  0.76585735  0.90292214  1
  Al  Al26  1  0.21813548  0.87371705  0.66045356  1
  Al  Al27  1  0.77780137  0.76484385  0.40585061  1
  Al  Al28  1  0.88220355  0.87772686  0.14551540  1
  Al  Al29  1  0.45127328  0.76235466  0.91526386  1
  Al  Al30  1  0.56512116  0.87043719  0.66337585  1
  B  B31  1  0.77563018  0.09841768  0.91428868  1
  B  B32  1  0.88792009  0.20459102  0.15685032  1
  B  B33  1  0.76316538  0.77060543  0.91476299  1
  B  B34  1  0.88020409  0.87606940  0.66396084  1
  B  B35  1  0.55390107  0.87274868  0.15841778  1
  N  N36  1  0.22110559  0.20480094  0.35187413  1
  N  N37  1  0.08381692  0.10651984  0.10854474  1
  N  N38  1  0.87464045  0.19098016  0.85467388  1
  N  N39  1  0.79029969  0.06634383  0.60270550  1
  N  N40  1  0.55782665  0.20336970  0.34902109  1
  N  N41  1  0.45484030  0.06893576  0.10900294  1
  N  N42  1  0.22254427  0.20262006  0.85659302  1
  N  N43  1  0.10647884  0.09564128  0.59869188  1
  N  N44  1  0.88524246  0.20244046  0.32760391  1
  N  N45  1  0.78787126  0.10478081  0.08421822  1
  N  N46  1  0.58020434  0.19199028  0.86270855  1
  N  N47  1  0.44569772  0.09167786  0.60098012  1
  N  N48  1  0.22011582  0.54070716  0.35635019  1
  N  N49  1  0.11053957  0.42742881  0.10312661  1
  N  N50  1  0.87299886  0.56485653  0.86225279  1
  N  N51  1  0.78165820  0.42298607  0.60195751  1
  N  N52  1  0.55541958  0.53725939  0.35240700  1
  N  N53  1  0.44333446  0.42742919  0.10323662  1
  N  N54  1  0.22344900  0.53723300  0.85135677  1
  N  N55  1  0.10762351  0.42733322  0.60442939  1
  N  N56  1  0.88577650  0.54125183  0.34853338  1
  N  N57  1  0.79030192  0.40100497  0.10705220  1
  N  N58  1  0.55577532  0.53989417  0.85458155  1
  N  N59  1  0.44624016  0.42317369  0.60556600  1
  N  N60  1  0.22025055  0.86976380  0.35318863  1
  N  N61  1  0.10990540  0.76082762  0.09577408  1
  N  N62  1  0.86523439  0.88401882  0.84866720  1
  N  N63  1  0.78979483  0.77501049  0.60272121  1
  N  N64  1  0.55917675  0.86979780  0.32778801  1
  N  N65  1  0.45546483  0.77332233  0.10958747  1
  N  N66  1  0.22525207  0.87188858  0.85384433  1
  N  N67  1  0.08247101  0.77507167  0.61300612  1
  N  N68  1  0.88765287  0.87153840  0.33776969  1
  N  N69  1  0.75274044  0.77365368  0.08525215  1
  N  N70  1  0.57966000  0.85916352  0.85488874  1
  N  N71  1  0.44686103  0.76275817  0.59942054  1
