# generated using pymatgen
data_Al31B5N36
_symmetry_space_group_name_H-M   'P 1'
_cell_length_a   9.17559717
_cell_length_b   9.23827916
_cell_length_c   10.26682554
_cell_angle_alpha   90.50609985
_cell_angle_beta   89.78399407
_cell_angle_gamma   59.81659043
_symmetry_Int_Tables_number   1
_chemical_formula_structural   Al31B5N36
_chemical_formula_sum   'Al31 B5 N36'
_cell_volume   752.22901645
_cell_formula_units_Z   1
loop_
 _symmetry_equiv_pos_site_id
 _symmetry_equiv_pos_as_xyz
  1  'x, y, z'
loop_
 _atom_site_type_symbol
 _atom_site_label
 _atom_site_symmetry_multiplicity
 _atom_site_fract_x
 _atom_site_fract_y
 _atom_site_fract_z
 _atom_site_occupancy
  Al  Al0  1  0.11601063  0.09267881  0.39814014  1
  Al  Al1  1  0.21343437  0.20663075  0.13269686  1
  Al  Al2  1  0.88563311  0.20237797  0.59128562  1
  Al  Al3  1  0.45455205  0.08612149  0.31684587  1
  Al  Al4  1  0.57533732  0.19467171  0.05919604  1
  Al  Al5  1  0.09276358  0.09739301  0.89014757  1
  Al  Al6  1  0.21584833  0.20849715  0.64958500  1
  Al  Al7  1  0.78181347  0.09622512  0.31894810  1
  Al  Al8  1  0.47215056  0.07698433  0.81747269  1
  Al  Al9  1  0.55660937  0.19948306  0.56843144  1
  Al  Al10  1  0.11294943  0.42661888  0.36951855  1
  Al  Al11  1  0.23045635  0.53620509  0.06374082  1
  Al  Al12  1  0.76904408  0.43745670  0.81435394  1
  Al  Al13  1  0.88402224  0.55336039  0.57067774  1
  Al  Al14  1  0.44475699  0.42505659  0.31813297  1
  Al  Al15  1  0.56467943  0.52697831  0.07386024  1
  Al  Al16  1  0.10637475  0.42924098  0.87077121  1
  Al  Al17  1  0.21360660  0.55218369  0.57538117  1
  Al  Al18  1  0.78214740  0.41926950  0.32443056  1
  Al  Al19  1  0.87786838  0.53893237  0.07268106  1
  Al  Al20  1  0.45011411  0.42689309  0.81513715  1
  Al  Al21  1  0.55772690  0.53277252  0.56604326  1
  Al  Al22  1  0.10816814  0.75829938  0.31101217  1
  Al  Al23  1  0.22349462  0.88281209  0.13769436  1
  Al  Al24  1  0.43307179  0.76696855  0.39269305  1
  Al  Al25  1  0.09201089  0.76029628  0.83428576  1
  Al  Al26  1  0.21794523  0.87703126  0.65226985  1
  Al  Al27  1  0.77047373  0.76244793  0.32271316  1
  Al  Al28  1  0.88666417  0.86978336  0.08802103  1
  Al  Al29  1  0.44971581  0.76871309  0.89282429  1
  Al  Al30  1  0.56316723  0.87662735  0.57565593  1
  B  B31  1  0.75749176  0.13429006  0.79938812  1
  B  B32  1  0.88825664  0.20433711  0.10570108  1
  B  B33  1  0.77565171  0.75864483  0.87151910  1
  B  B34  1  0.88200407  0.87068006  0.62661242  1
  B  B35  1  0.55842050  0.86777816  0.10427525  1
  N  N36  1  0.21804204  0.20505105  0.32062334  1
  N  N37  1  0.07893094  0.11024444  0.08007049  1
  N  N38  1  0.86920406  0.20063099  0.83418449  1
  N  N39  1  0.78132810  0.07224823  0.65097265  1
  N  N40  1  0.55559764  0.20438711  0.38114300  1
  N  N41  1  0.46850509  0.06200840  0.12098017  1
  N  N42  1  0.22067993  0.19895533  0.83975639  1
  N  N43  1  0.12039431  0.08949633  0.58324214  1
  N  N44  1  0.88033850  0.20722462  0.39638599  1
  N  N45  1  0.79603125  0.11078735  0.12575304  1
  N  N46  1  0.58539171  0.19555492  0.86902138  1
  N  N47  1  0.44767361  0.09509156  0.63405863  1
  N  N48  1  0.22400877  0.54639754  0.38537554  1
  N  N49  1  0.10923850  0.42908067  0.09066397  1
  N  N50  1  0.86804284  0.55998751  0.88285865  1
  N  N51  1  0.77446300  0.43833920  0.63066930  1
  N  N52  1  0.55677564  0.53399309  0.37570115  1
  N  N53  1  0.44953565  0.41678739  0.13049612  1
  N  N54  1  0.23156690  0.53387700  0.87734667  1
  N  N55  1  0.11085812  0.42794950  0.60229856  1
  N  N56  1  0.88222701  0.54065779  0.37902722  1
  N  N57  1  0.79529295  0.39496812  0.13168620  1
  N  N58  1  0.55500392  0.53541835  0.88860128  1
  N  N59  1  0.44518672  0.42724875  0.63032197  1
  N  N60  1  0.22089704  0.88053503  0.32347234  1
  N  N61  1  0.12198364  0.75340579  0.12166961  1
  N  N62  1  0.87779950  0.83817153  0.90324566  1
  N  N63  1  0.79403011  0.78094208  0.60602879  1
  N  N64  1  0.55224593  0.87786144  0.38696963  1
  N  N65  1  0.45672344  0.77908412  0.08690330  1
  N  N66  1  0.22203699  0.87223906  0.83994818  1
  N  N67  1  0.07507797  0.77905981  0.64194531  1
  N  N68  1  0.88437622  0.87339945  0.33123999  1
  N  N69  1  0.74331886  0.76569649  0.13271107  1
  N  N70  1  0.59148403  0.85162168  0.85647469  1
  N  N71  1  0.43536307  0.76334721  0.58374936  1
