# generated using pymatgen
data_Al31B5N36
_symmetry_space_group_name_H-M   'P 1'
_cell_length_a   9.20845222
_cell_length_b   9.21111256
_cell_length_c   9.80167208
_cell_angle_alpha   89.44524152
_cell_angle_beta   89.28047665
_cell_angle_gamma   59.73941428
_symmetry_Int_Tables_number   1
_chemical_formula_structural   Al31B5N36
_chemical_formula_sum   'Al31 B5 N36'
_cell_volume   718.03501574
_cell_formula_units_Z   1
loop_
 _symmetry_equiv_pos_site_id
 _symmetry_equiv_pos_as_xyz
  1  'x, y, z'
loop_
 _atom_site_type_symbol
 _atom_site_label
 _atom_site_symmetry_multiplicity
 _atom_site_fract_x
 _atom_site_fract_y
 _atom_site_fract_z
 _atom_site_occupancy
  Al  Al0  1  0.10424191  0.09764697  0.29980159  1
  Al  Al1  1  0.22213703  0.20320472  0.05123959  1
  Al  Al2  1  0.88566398  0.19849226  0.56360736  1
  Al  Al3  1  0.44879659  0.08779515  0.29458963  1
  Al  Al4  1  0.57344889  0.19698520  0.04421119  1
  Al  Al5  1  0.10644906  0.09909139  0.80996488  1
  Al  Al6  1  0.22095737  0.20309215  0.55158725  1
  Al  Al7  1  0.78217084  0.09302485  0.30283883  1
  Al  Al8  1  0.45313764  0.08481154  0.80636434  1
  Al  Al9  1  0.55659215  0.19802999  0.55200127  1
  Al  Al10  1  0.10918672  0.42887181  0.30054514  1
  Al  Al11  1  0.22185225  0.54119332  0.04872864  1
  Al  Al12  1  0.78056048  0.43018222  0.80994512  1
  Al  Al13  1  0.88645621  0.54394880  0.55818840  1
  Al  Al14  1  0.44524907  0.42571347  0.29923177  1
  Al  Al15  1  0.56326055  0.53650250  0.05208978  1
  Al  Al16  1  0.10847810  0.43359276  0.80098700  1
  Al  Al17  1  0.21667034  0.54181702  0.55062290  1
  Al  Al18  1  0.78166243  0.42260255  0.30027232  1
  Al  Al19  1  0.88221865  0.54702301  0.04776794  1
  Al  Al20  1  0.45345843  0.42215688  0.79822805  1
  Al  Al21  1  0.55631639  0.53909059  0.55016023  1
  Al  Al22  1  0.10430002  0.76432565  0.30761849  1
  Al  Al23  1  0.21838895  0.87909064  0.05219172  1
  Al  Al24  1  0.44732898  0.76477013  0.29632869  1
  Al  Al25  1  0.09843377  0.76904731  0.79663572  1
  Al  Al26  1  0.21679021  0.87397984  0.55230982  1
  Al  Al27  1  0.77377273  0.76595749  0.30451942  1
  Al  Al28  1  0.87912674  0.88389553  0.04412497  1
  Al  Al29  1  0.44903268  0.76038007  0.80854444  1
  Al  Al30  1  0.55962016  0.87101748  0.55740863  1
  B  B31  1  0.75630542  0.05718796  0.78114947  1
  B  B32  1  0.89425334  0.21021118  0.04517261  1
  B  B33  1  0.77664070  0.76625831  0.80042875  1
  B  B34  1  0.88688315  0.86817117  0.55948256  1
  B  B35  1  0.56569293  0.86941993  0.04531087  1
  N  N36  1  0.22335193  0.20297194  0.35583079  1
  N  N37  1  0.08900573  0.10785711  0.10657095  1
  N  N38  1  0.89606456  0.21739083  0.88770399  1
  N  N39  1  0.78428831  0.06388734  0.62633621  1
  N  N40  1  0.55656003  0.20152640  0.35852982  1
  N  N41  1  0.46241808  0.06935377  0.09649819  1
  N  N42  1  0.22763216  0.20713768  0.86055891  1
  N  N43  1  0.10807909  0.09436810  0.61648963  1
  N  N44  1  0.88591353  0.20417625  0.37191848  1
  N  N45  1  0.79510702  0.10556758  0.10775660  1
  N  N46  1  0.58751133  0.18421535  0.84622396  1
  N  N47  1  0.44215051  0.09236474  0.61438684  1
  N  N48  1  0.22153566  0.53856999  0.35868518  1
  N  N49  1  0.10882468  0.43065735  0.10733833  1
  N  N50  1  0.87610927  0.57328173  0.85274966  1
  N  N51  1  0.77730356  0.42559684  0.61641351  1
  N  N52  1  0.55509118  0.53982090  0.35533140  1
  N  N53  1  0.44684952  0.42347260  0.10514849  1
  N  N54  1  0.22423541  0.54140616  0.85570747  1
  N  N55  1  0.11065023  0.42618706  0.60951537  1
  N  N56  1  0.88543916  0.54153823  0.36261595  1
  N  N57  1  0.79246775  0.40751866  0.10583494  1
  N  N58  1  0.55599312  0.53717869  0.86227431  1
  N  N59  1  0.44475594  0.42574668  0.60645468  1
  N  N60  1  0.22216317  0.87225241  0.35746480  1
  N  N61  1  0.10350393  0.76499126  0.11097700  1
  N  N62  1  0.86082222  0.88230444  0.84865103  1
  N  N63  1  0.78561825  0.77207936  0.62689989  1
  N  N64  1  0.55474408  0.87181114  0.36699675  1
  N  N65  1  0.45864027  0.77523461  0.09978702  1
  N  N66  1  0.21922999  0.87152857  0.86041929  1
  N  N67  1  0.08353891  0.77357444  0.60341607  1
  N  N68  1  0.88275362  0.87371311  0.38779704  1
  N  N69  1  0.75480442  0.77805199  0.10805905  1
  N  N70  1  0.58101189  0.85821988  0.87041103  1
  N  N71  1  0.44283953  0.76094492  0.61422721  1
