# generated using pymatgen
data_Al31B5N36
_symmetry_space_group_name_H-M   'P 1'
_cell_length_a   9.14589248
_cell_length_b   9.11935952
_cell_length_c   10.22355503
_cell_angle_alpha   90.14797964
_cell_angle_beta   89.62397964
_cell_angle_gamma   60.15057231
_symmetry_Int_Tables_number   1
_chemical_formula_structural   Al31B5N36
_chemical_formula_sum   'Al31 B5 N36'
_cell_volume   739.53837247
_cell_formula_units_Z   1
loop_
 _symmetry_equiv_pos_site_id
 _symmetry_equiv_pos_as_xyz
  1  'x, y, z'
loop_
 _atom_site_type_symbol
 _atom_site_label
 _atom_site_symmetry_multiplicity
 _atom_site_fract_x
 _atom_site_fract_y
 _atom_site_fract_z
 _atom_site_occupancy
  Al  Al0  1  0.11137321  0.09702108  0.39799813  1
  Al  Al1  1  0.21109873  0.20628539  0.14701407  1
  Al  Al2  1  0.88559804  0.19161213  0.64983469  1
  Al  Al3  1  0.45429088  0.08359727  0.32525162  1
  Al  Al4  1  0.57159387  0.18909429  0.08027407  1
  Al  Al5  1  0.09656062  0.09210660  0.90739530  1
  Al  Al6  1  0.21052843  0.21082764  0.65368916  1
  Al  Al7  1  0.77897795  0.09977299  0.33083263  1
  Al  Al8  1  0.45760092  0.08768784  0.82719548  1
  Al  Al9  1  0.56426099  0.19050817  0.56968635  1
  Al  Al10  1  0.11248483  0.42659239  0.40151649  1
  Al  Al11  1  0.22142827  0.53910429  0.15241626  1
  Al  Al12  1  0.77692128  0.41993046  0.90537147  1
  Al  Al13  1  0.88743516  0.54918628  0.65245184  1
  Al  Al14  1  0.44074244  0.43590734  0.39919236  1
  Al  Al15  1  0.56166058  0.53544169  0.15057837  1
  Al  Al16  1  0.10207693  0.43744923  0.90367351  1
  Al  Al17  1  0.21773664  0.54138935  0.65005727  1
  Al  Al18  1  0.77998435  0.42728367  0.40129863  1
  Al  Al19  1  0.87958262  0.54055596  0.15454388  1
  Al  Al20  1  0.44448881  0.42919899  0.90004681  1
  Al  Al21  1  0.55583137  0.53609265  0.65545346  1
  Al  Al22  1  0.10711463  0.76566805  0.39864663  1
  Al  Al23  1  0.21953813  0.87712664  0.15048597  1
  Al  Al24  1  0.44090820  0.75973155  0.40577096  1
  Al  Al25  1  0.09915435  0.76556938  0.90088707  1
  Al  Al26  1  0.21436076  0.87453858  0.65415495  1
  Al  Al27  1  0.78343348  0.76260854  0.39379176  1
  Al  Al28  1  0.88367128  0.87125413  0.14111428  1
  Al  Al29  1  0.45418189  0.76290243  0.89760508  1
  Al  Al30  1  0.55886797  0.87602077  0.59880690  1
  B  B31  1  0.77318323  0.07764355  0.86515664  1
  B  B32  1  0.88970066  0.20813715  0.15568987  1
  B  B33  1  0.76832345  0.77729707  0.86142853  1
  B  B34  1  0.88966400  0.87320160  0.60049683  1
  B  B35  1  0.56007372  0.86658397  0.11238632  1
  N  N36  1  0.22111356  0.20807992  0.33384448  1
  N  N37  1  0.08249857  0.10595377  0.09514144  1
  N  N38  1  0.87105873  0.17964229  0.84106923  1
  N  N39  1  0.79640548  0.05858946  0.59463447  1
  N  N40  1  0.55546731  0.20332960  0.38198688  1
  N  N41  1  0.46117270  0.06158198  0.13159438  1
  N  N42  1  0.20716526  0.20938884  0.84525959  1
  N  N43  1  0.10820094  0.09466387  0.58634874  1
  N  N44  1  0.89746219  0.21484738  0.32127121  1
  N  N45  1  0.78785645  0.10978476  0.13843052  1
  N  N46  1  0.58439717  0.18507031  0.88901251  1
  N  N47  1  0.44244304  0.10227921  0.64344497  1
  N  N48  1  0.22155752  0.54112881  0.33915063  1
  N  N49  1  0.10589561  0.43201310  0.08919333  1
  N  N50  1  0.87366888  0.57182133  0.84401757  1
  N  N51  1  0.78027241  0.42403523  0.59263355  1
  N  N52  1  0.55780015  0.54019004  0.33642425  1
  N  N53  1  0.44233073  0.42885893  0.08791221  1
  N  N54  1  0.22182818  0.53868997  0.83653609  1
  N  N55  1  0.10891576  0.42844408  0.58863743  1
  N  N56  1  0.89071885  0.53815207  0.34126773  1
  N  N57  1  0.79130526  0.40121328  0.09379570  1
  N  N58  1  0.55834005  0.53642579  0.84179334  1
  N  N59  1  0.44286288  0.43045216  0.58862478  1
  N  N60  1  0.22374723  0.87236780  0.33727554  1
  N  N61  1  0.11250825  0.75953788  0.08641561  1
  N  N62  1  0.85785816  0.88484183  0.86996316  1
  N  N63  1  0.80097555  0.77110414  0.58731917  1
  N  N64  1  0.55285854  0.87836231  0.40296201  1
  N  N65  1  0.45656134  0.77467220  0.09019285  1
  N  N66  1  0.22288895  0.87068819  0.84201572  1
  N  N67  1  0.08582986  0.77384990  0.59080609  1
  N  N68  1  0.89527373  0.86670421  0.32935680  1
  N  N69  1  0.74267868  0.77376772  0.11815596  1
  N  N70  1  0.58622033  0.85465760  0.84102279  1
  N  N71  1  0.43768366  0.75628161  0.59452024  1
