# generated using pymatgen
data_Al31B5N36
_symmetry_space_group_name_H-M   'P 1'
_cell_length_a   9.16636897
_cell_length_b   9.18507898
_cell_length_c   9.86558684
_cell_angle_alpha   89.86527573
_cell_angle_beta   90.27982515
_cell_angle_gamma   60.14343541
_symmetry_Int_Tables_number   1
_chemical_formula_structural   Al31B5N36
_chemical_formula_sum   'Al31 B5 N36'
_cell_volume   720.35719247
_cell_formula_units_Z   1
loop_
 _symmetry_equiv_pos_site_id
 _symmetry_equiv_pos_as_xyz
  1  'x, y, z'
loop_
 _atom_site_type_symbol
 _atom_site_label
 _atom_site_symmetry_multiplicity
 _atom_site_fract_x
 _atom_site_fract_y
 _atom_site_fract_z
 _atom_site_occupancy
  Al  Al0  1  0.10598550  0.09624959  0.39755544  1
  Al  Al1  1  0.21802792  0.20297879  0.15288700  1
  Al  Al2  1  0.88873228  0.19230679  0.65656515  1
  Al  Al3  1  0.44660892  0.09026305  0.39767794  1
  Al  Al4  1  0.56040499  0.20250049  0.15018366  1
  Al  Al5  1  0.10071091  0.09295473  0.90769138  1
  Al  Al6  1  0.22334879  0.20208796  0.65394594  1
  Al  Al7  1  0.78149334  0.08946819  0.38940878  1
  Al  Al8  1  0.45302909  0.08779182  0.90982294  1
  Al  Al9  1  0.56797534  0.19191356  0.65914340  1
  Al  Al10  1  0.10880443  0.42706008  0.40273553  1
  Al  Al11  1  0.22212899  0.53881355  0.15486409  1
  Al  Al12  1  0.77985659  0.41798685  0.90578054  1
  Al  Al13  1  0.88966652  0.54293970  0.65902648  1
  Al  Al14  1  0.44611287  0.42487580  0.40549898  1
  Al  Al15  1  0.55951292  0.53706518  0.15332350  1
  Al  Al16  1  0.10615557  0.43018349  0.90296767  1
  Al  Al17  1  0.21678508  0.54039077  0.65222963  1
  Al  Al18  1  0.78006925  0.42307826  0.39744133  1
  Al  Al19  1  0.88190935  0.54038362  0.14475614  1
  Al  Al20  1  0.44602123  0.42617337  0.90333453  1
  Al  Al21  1  0.55894073  0.53707466  0.65524037  1
  Al  Al22  1  0.10540137  0.76313102  0.39432771  1
  Al  Al23  1  0.21965258  0.87758676  0.15416229  1
  Al  Al24  1  0.44765011  0.76150947  0.39854843  1
  Al  Al25  1  0.09691838  0.76620129  0.90357819  1
  Al  Al26  1  0.21892678  0.87330174  0.65234880  1
  Al  Al27  1  0.77786151  0.76350625  0.38873532  1
  Al  Al28  1  0.88233848  0.88069646  0.12584039  1
  Al  Al29  1  0.45175965  0.76238764  0.90790032  1
  Al  Al30  1  0.57013006  0.87021839  0.65771126  1
  B  B31  1  0.77397855  0.09609146  0.91695535  1
  B  B32  1  0.88418717  0.20814321  0.14972995  1
  B  B33  1  0.74977947  0.80314316  0.92575175  1
  B  B34  1  0.88961966  0.86983401  0.60474452  1
  B  B35  1  0.55209138  0.87229483  0.15270020  1
  N  N36  1  0.22148861  0.20501794  0.34381045  1
  N  N37  1  0.08330522  0.10750843  0.10014934  1
  N  N38  1  0.87364626  0.18540885  0.84769223  1
  N  N39  1  0.79420927  0.06107165  0.58756822  1
  N  N40  1  0.55612443  0.20483463  0.34198532  1
  N  N41  1  0.45382469  0.07060157  0.10204406  1
  N  N42  1  0.22446883  0.19971518  0.84790442  1
  N  N43  1  0.10761061  0.09471337  0.59103926  1
  N  N44  1  0.88655267  0.20469900  0.32003971  1
  N  N45  1  0.78406298  0.11576939  0.08543216  1
  N  N46  1  0.57863723  0.19323866  0.85562653  1
  N  N47  1  0.44794324  0.09018545  0.59335493  1
  N  N48  1  0.22241047  0.53797957  0.34734771  1
  N  N49  1  0.11031372  0.42819559  0.09407537  1
  N  N50  1  0.88150576  0.54447011  0.84949489  1
  N  N51  1  0.78220233  0.42018443  0.59280932  1
  N  N52  1  0.55488042  0.53815303  0.34434255  1
  N  N53  1  0.44286050  0.42800967  0.09405289  1
  N  N54  1  0.21918173  0.54105947  0.84203438  1
  N  N55  1  0.11006126  0.42523989  0.59408866  1
  N  N56  1  0.88684627  0.53987212  0.33854837  1
  N  N57  1  0.78869196  0.40289375  0.09899486  1
  N  N58  1  0.55568387  0.54041504  0.84700911  1
  N  N59  1  0.44752000  0.42214236  0.59863120  1
  N  N60  1  0.22227459  0.87184902  0.34591224  1
  N  N61  1  0.11695182  0.75855861  0.09456566  1
  N  N62  1  0.85545973  0.89051118  0.89625237  1
  N  N63  1  0.79452044  0.77313730  0.58801347  1
  N  N64  1  0.55638944  0.87117802  0.32095879  1
  N  N65  1  0.45362063  0.77490139  0.10147626  1
  N  N66  1  0.22258695  0.87020316  0.84484990  1
  N  N67  1  0.08218591  0.77458527  0.59427322  1
  N  N68  1  0.88773333  0.87218742  0.32416816  1
  N  N69  1  0.74392305  0.77545244  0.08586598  1
  N  N70  1  0.58038949  0.86357751  0.85012429  1
  N  N71  1  0.44974273  0.76221397  0.59395806  1
