# generated using pymatgen
data_Al31B5N36
_symmetry_space_group_name_H-M   'P 1'
_cell_length_a   9.17685949
_cell_length_b   9.17710474
_cell_length_c   9.79395597
_cell_angle_alpha   90.07293871
_cell_angle_beta   90.06282298
_cell_angle_gamma   60.03990245
_symmetry_Int_Tables_number   1
_chemical_formula_structural   Al31B5N36
_chemical_formula_sum   'Al31 B5 N36'
_cell_volume   714.59935278
_cell_formula_units_Z   1
loop_
 _symmetry_equiv_pos_site_id
 _symmetry_equiv_pos_as_xyz
  1  'x, y, z'
loop_
 _atom_site_type_symbol
 _atom_site_label
 _atom_site_symmetry_multiplicity
 _atom_site_fract_x
 _atom_site_fract_y
 _atom_site_fract_z
 _atom_site_occupancy
  Al  Al0  1  0.10550951  0.09538029  0.40177025  1
  Al  Al1  1  0.21912805  0.20196946  0.15754318  1
  Al  Al2  1  0.88676552  0.19541206  0.66065734  1
  Al  Al3  1  0.44666616  0.09029398  0.40169034  1
  Al  Al4  1  0.56335255  0.19958137  0.15308084  1
  Al  Al5  1  0.10111547  0.09406537  0.91265316  1
  Al  Al6  1  0.22151427  0.20341521  0.65847100  1
  Al  Al7  1  0.78096013  0.08805941  0.40356817  1
  Al  Al8  1  0.45698001  0.08350582  0.91333412  1
  Al  Al9  1  0.56531568  0.19466995  0.66313825  1
  Al  Al10  1  0.10801884  0.42794860  0.40860732  1
  Al  Al11  1  0.22011668  0.54106791  0.15969517  1
  Al  Al12  1  0.77774382  0.42204495  0.91138567  1
  Al  Al13  1  0.88552853  0.54876693  0.66297827  1
  Al  Al14  1  0.44501255  0.42522155  0.40902138  1
  Al  Al15  1  0.56048038  0.53600575  0.15868601  1
  Al  Al16  1  0.10635717  0.43328380  0.90932139  1
  Al  Al17  1  0.21693203  0.54149584  0.65825584  1
  Al  Al18  1  0.77996927  0.42291834  0.40233706  1
  Al  Al19  1  0.88244564  0.54118041  0.15176772  1
  Al  Al20  1  0.44771937  0.42450961  0.90884658  1
  Al  Al21  1  0.55681221  0.53854084  0.65848433  1
  Al  Al22  1  0.10185429  0.76498373  0.41198454  1
  Al  Al23  1  0.21781470  0.87563758  0.15775557  1
  Al  Al24  1  0.44643358  0.76211143  0.40117053  1
  Al  Al25  1  0.10002477  0.76588659  0.90026897  1
  Al  Al26  1  0.21818053  0.87374682  0.65780389  1
  Al  Al27  1  0.77784687  0.76487196  0.40320305  1
  Al  Al28  1  0.88224818  0.87775584  0.14286452  1
  Al  Al29  1  0.45131759  0.76238366  0.91261694  1
  Al  Al30  1  0.56516411  0.87046647  0.66072497  1
  B  B31  1  0.77567430  0.09844832  0.91164124  1
  B  B32  1  0.88796338  0.20462032  0.15420229  1
  B  B33  1  0.76320822  0.77063619  0.91211448  1
  B  B34  1  0.88024678  0.87609860  0.66131547  1
  B  B35  1  0.55394572  0.87277789  0.15577077  1
  N  N36  1  0.22114965  0.20483055  0.34922622  1
  N  N37  1  0.08386120  0.10654906  0.10589814  1
  N  N38  1  0.87468519  0.19100865  0.85202435  1
  N  N39  1  0.79034280  0.06637256  0.60005923  1
  N  N40  1  0.55787158  0.20339846  0.34637089  1
  N  N41  1  0.45488377  0.06896497  0.10635670  1
  N  N42  1  0.22258866  0.20264807  0.85394153  1
  N  N43  1  0.10652256  0.09566994  0.59603985  1
  N  N44  1  0.88528518  0.20246993  0.32495545  1
  N  N45  1  0.78791596  0.10481020  0.08156965  1
  N  N46  1  0.58024813  0.19201914  0.86006280  1
  N  N47  1  0.44574250  0.09170722  0.59833037  1
  N  N48  1  0.22015931  0.54073733  0.35369769  1
  N  N49  1  0.11058439  0.42745676  0.10047479  1
  N  N50  1  0.87304290  0.56488514  0.85960603  1
  N  N51  1  0.78170284  0.42301555  0.59930865  1
  N  N52  1  0.55546438  0.53728771  0.34975658  1
  N  N53  1  0.44337887  0.42745856  0.10058556  1
  N  N54  1  0.22349353  0.53726136  0.84870696  1
  N  N55  1  0.10766649  0.42736350  0.60177875  1
  N  N56  1  0.88582021  0.54128150  0.34588099  1
  N  N57  1  0.79034598  0.40103350  0.10440200  1
  N  N58  1  0.55581900  0.53992426  0.85193026  1
  N  N59  1  0.44628457  0.42320178  0.60291497  1
  N  N60  1  0.22029384  0.86979211  0.35053886  1
  N  N61  1  0.10994887  0.76085741  0.09312140  1
  N  N62  1  0.86527779  0.88404703  0.84601816  1
  N  N63  1  0.78983925  0.77503883  0.60007416  1
  N  N64  1  0.55922206  0.86982667  0.32513955  1
  N  N65  1  0.45550900  0.77335127  0.10694064  1
  N  N66  1  0.22529681  0.87191843  0.85119526  1
  N  N67  1  0.08251553  0.77510053  0.61035998  1
  N  N68  1  0.88769741  0.87156753  0.33512064  1
  N  N69  1  0.75278372  0.77368416  0.08260307  1
  N  N70  1  0.57970317  0.85919323  0.85223971  1
  N  N71  1  0.44690479  0.76278765  0.59676824  1
