# generated using pymatgen
data_Al31B5N36
_symmetry_space_group_name_H-M   'P 1'
_cell_length_a   9.17142409
_cell_length_b   9.14733929
_cell_length_c   10.21151828
_cell_angle_alpha   90.08771543
_cell_angle_beta   89.46122486
_cell_angle_gamma   60.00964744
_symmetry_Int_Tables_number   1
_chemical_formula_structural   Al31B5N36
_chemical_formula_sum   'Al31 B5 N36'
_cell_volume   741.93230877
_cell_formula_units_Z   1
loop_
 _symmetry_equiv_pos_site_id
 _symmetry_equiv_pos_as_xyz
  1  'x, y, z'
loop_
 _atom_site_type_symbol
 _atom_site_label
 _atom_site_symmetry_multiplicity
 _atom_site_fract_x
 _atom_site_fract_y
 _atom_site_fract_z
 _atom_site_occupancy
  Al  Al0  1  0.11560781  0.09327741  0.39722918  1
  Al  Al1  1  0.21222710  0.20573657  0.13265838  1
  Al  Al2  1  0.88748138  0.19965383  0.61460412  1
  Al  Al3  1  0.45502365  0.08181581  0.31449591  1
  Al  Al4  1  0.57193197  0.19451622  0.05653431  1
  Al  Al5  1  0.09727177  0.09527337  0.88375463  1
  Al  Al6  1  0.21388909  0.21285523  0.64536719  1
  Al  Al7  1  0.78144988  0.10449893  0.31559093  1
  Al  Al8  1  0.46142028  0.08385931  0.81439747  1
  Al  Al9  1  0.56106957  0.19782055  0.56529191  1
  Al  Al10  1  0.11185195  0.42466131  0.38998902  1
  Al  Al11  1  0.21518159  0.54181662  0.13906475  1
  Al  Al12  1  0.77950604  0.42096490  0.88121136  1
  Al  Al13  1  0.88866760  0.55408439  0.64304182  1
  Al  Al14  1  0.44820548  0.42036268  0.32223900  1
  Al  Al15  1  0.56431889  0.53735024  0.13346079  1
  Al  Al16  1  0.10324259  0.43793804  0.89252442  1
  Al  Al17  1  0.21312414  0.54598434  0.63760705  1
  Al  Al18  1  0.77618159  0.43122440  0.40060950  1
  Al  Al19  1  0.88027040  0.53754596  0.14216957  1
  Al  Al20  1  0.45175594  0.41487205  0.82200514  1
  Al  Al21  1  0.55733533  0.54576248  0.64679105  1
  Al  Al22  1  0.10239006  0.76883587  0.38865290  1
  Al  Al23  1  0.21656166  0.87836643  0.13837705  1
  Al  Al24  1  0.43935299  0.75702233  0.39234716  1
  Al  Al25  1  0.09869133  0.76591653  0.88920057  1
  Al  Al26  1  0.21485631  0.87499240  0.64655286  1
  Al  Al27  1  0.78324256  0.76148779  0.37987350  1
  Al  Al28  1  0.88251632  0.87066380  0.12787526  1
  Al  Al29  1  0.45415034  0.76448717  0.88872740  1
  Al  Al30  1  0.55636732  0.87641945  0.58377519  1
  B  B31  1  0.77592940  0.07612696  0.80315938  1
  B  B32  1  0.88710394  0.20508820  0.09391964  1
  B  B33  1  0.77256107  0.77505125  0.84670232  1
  B  B34  1  0.88687667  0.87038215  0.60909618  1
  B  B35  1  0.56050828  0.86764452  0.10107135  1
  N  N36  1  0.21915248  0.20554539  0.32016324  1
  N  N37  1  0.07889046  0.10823383  0.07727884  1
  N  N38  1  0.87664359  0.18970483  0.81839742  1
  N  N39  1  0.78382041  0.06102645  0.63997041  1
  N  N40  1  0.55906071  0.19945033  0.37809414  1
  N  N41  1  0.46449815  0.06248918  0.11853993  1
  N  N42  1  0.21385408  0.20981237  0.83610043  1
  N  N43  1  0.12072806  0.09097545  0.58342195  1
  N  N44  1  0.88540614  0.20168054  0.39414263  1
  N  N45  1  0.79280510  0.11406155  0.12311357  1
  N  N46  1  0.58596839  0.18567050  0.86948128  1
  N  N47  1  0.44338245  0.10026660  0.62972182  1
  N  N48  1  0.21556079  0.54410404  0.33059006  1
  N  N49  1  0.10482391  0.43162645  0.07767358  1
  N  N50  1  0.87600502  0.57068819  0.83288938  1
  N  N51  1  0.77631481  0.44230625  0.58822746  1
  N  N52  1  0.56275156  0.53942924  0.32294401  1
  N  N53  1  0.44738277  0.41776451  0.11868182  1
  N  N54  1  0.21609696  0.54262322  0.82650196  1
  N  N55  1  0.10957232  0.42942817  0.57678970  1
  N  N56  1  0.89026262  0.53400358  0.32875158  1
  N  N57  1  0.79379501  0.39711253  0.07380016  1
  N  N58  1  0.55667484  0.54140978  0.83592736  1
  N  N59  1  0.45027003  0.42120006  0.62443766  1
  N  N60  1  0.22078853  0.87330197  0.32519235  1
  N  N61  1  0.11103348  0.76078262  0.07492645  1
  N  N62  1  0.86352927  0.87649445  0.84856248  1
  N  N63  1  0.79950268  0.77460491  0.57473025  1
  N  N64  1  0.55252930  0.87503176  0.38927545  1
  N  N65  1  0.45502613  0.77771535  0.08035025  1
  N  N66  1  0.22432023  0.86961621  0.83281257  1
  N  N67  1  0.07981876  0.78077324  0.58211211  1
  N  N68  1  0.89036738  0.87135003  0.31674073  1
  N  N69  1  0.74288649  0.77163244  0.10810752  1
  N  N70  1  0.58879474  0.85220422  0.82964479  1
  N  N71  1  0.43363945  0.75800323  0.58026401  1
