# generated using pymatgen
data_Al31B5N36
_symmetry_space_group_name_H-M   'P 1'
_cell_length_a   9.15303764
_cell_length_b   9.12639032
_cell_length_c   10.19006475
_cell_angle_alpha   90.18122708
_cell_angle_beta   89.68785678
_cell_angle_gamma   60.11260276
_symmetry_Int_Tables_number   1
_chemical_formula_structural   Al31B5N36
_chemical_formula_sum   'Al31 B5 N36'
_cell_volume   737.98425530
_cell_formula_units_Z   1
loop_
 _symmetry_equiv_pos_site_id
 _symmetry_equiv_pos_as_xyz
  1  'x, y, z'
loop_
 _atom_site_type_symbol
 _atom_site_label
 _atom_site_symmetry_multiplicity
 _atom_site_fract_x
 _atom_site_fract_y
 _atom_site_fract_z
 _atom_site_occupancy
  Al  Al0  1  0.11126855  0.09713215  0.39962757  1
  Al  Al1  1  0.21156366  0.20611564  0.14845139  1
  Al  Al2  1  0.88516510  0.19194513  0.65130790  1
  Al  Al3  1  0.45469566  0.08246512  0.32737646  1
  Al  Al4  1  0.57136386  0.19003453  0.08260293  1
  Al  Al5  1  0.09636131  0.09217521  0.90884179  1
  Al  Al6  1  0.21042895  0.21092341  0.65504585  1
  Al  Al7  1  0.77933677  0.09883826  0.33202146  1
  Al  Al8  1  0.45743325  0.08784347  0.82930802  1
  Al  Al9  1  0.56423028  0.18999919  0.57101329  1
  Al  Al10  1  0.11140895  0.42705334  0.40249628  1
  Al  Al11  1  0.22167383  0.53930660  0.15413768  1
  Al  Al12  1  0.77676063  0.41934149  0.90729002  1
  Al  Al13  1  0.88709169  0.54965522  0.65650301  1
  Al  Al14  1  0.44065896  0.43561893  0.40040146  1
  Al  Al15  1  0.56176916  0.53570344  0.15213290  1
  Al  Al16  1  0.10259282  0.43665852  0.90544791  1
  Al  Al17  1  0.21746955  0.54128558  0.65094027  1
  Al  Al18  1  0.77973616  0.42804201  0.40247760  1
  Al  Al19  1  0.87956036  0.54166516  0.15377040  1
  Al  Al20  1  0.44422014  0.42902848  0.90134317  1
  Al  Al21  1  0.55572133  0.53563130  0.65689358  1
  Al  Al22  1  0.10591174  0.76610715  0.39886889  1
  Al  Al23  1  0.22014770  0.87738214  0.15198550  1
  Al  Al24  1  0.44099004  0.75990800  0.40803746  1
  Al  Al25  1  0.09965577  0.76528821  0.90234046  1
  Al  Al26  1  0.21390528  0.87470223  0.65528618  1
  Al  Al27  1  0.78395786  0.76242827  0.39798545  1
  Al  Al28  1  0.88380067  0.87220991  0.13826249  1
  Al  Al29  1  0.45344836  0.76281023  0.89814446  1
  Al  Al30  1  0.55983552  0.87475898  0.60480124  1
  B  B31  1  0.77326741  0.07758971  0.86865299  1
  B  B32  1  0.88965438  0.20875258  0.15768047  1
  B  B33  1  0.76685694  0.77683851  0.87242035  1
  B  B34  1  0.88994998  0.87326368  0.60271795  1
  B  B35  1  0.56034031  0.86687922  0.11060564  1
  N  N36  1  0.22141470  0.20779585  0.33572949  1
  N  N37  1  0.08270360  0.10622072  0.09694165  1
  N  N38  1  0.87075020  0.17965678  0.84295110  1
  N  N39  1  0.79660465  0.05843777  0.59542856  1
  N  N40  1  0.55549044  0.20308964  0.38259276  1
  N  N41  1  0.46221977  0.06078822  0.13255264  1
  N  N42  1  0.20749514  0.20889230  0.84716644  1
  N  N43  1  0.10778374  0.09494524  0.58819812  1
  N  N44  1  0.89715889  0.21486375  0.32331548  1
  N  N45  1  0.78814556  0.11058559  0.13937195  1
  N  N46  1  0.58413644  0.18520738  0.89087608  1
  N  N47  1  0.44212666  0.10249326  0.64483206  1
  N  N48  1  0.22115143  0.54109563  0.34109313  1
  N  N49  1  0.10685325  0.43173300  0.09107350  1
  N  N50  1  0.87323459  0.57072764  0.84846516  1
  N  N51  1  0.78023138  0.42469172  0.59457774  1
  N  N52  1  0.55722745  0.54044773  0.33833828  1
  N  N53  1  0.44237270  0.42923069  0.08983883  1
  N  N54  1  0.22137670  0.53857862  0.83790670  1
  N  N55  1  0.10774658  0.42888257  0.59041047  1
  N  N56  1  0.88944564  0.53963219  0.34121581  1
  N  N57  1  0.79132744  0.40143848  0.09582825  1
  N  N58  1  0.55806606  0.53609710  0.84359193  1
  N  N59  1  0.44288935  0.42988400  0.59023413  1
  N  N60  1  0.22356409  0.87239396  0.33919320  1
  N  N61  1  0.11416892  0.75926638  0.08803650  1
  N  N62  1  0.85761941  0.88554729  0.87596542  1
  N  N63  1  0.80158171  0.77101762  0.59057514  1
  N  N64  1  0.55384371  0.87718493  0.40479321  1
  N  N65  1  0.45711979  0.77497169  0.09134333  1
  N  N66  1  0.22227986  0.87082630  0.84339407  1
  N  N67  1  0.08560159  0.77400982  0.59200894  1
  N  N68  1  0.89397974  0.86556565  0.32824054  1
  N  N69  1  0.74434948  0.77333279  0.10765098  1
  N  N70  1  0.58571335  0.85444698  0.84153424  1
  N  N71  1  0.43754816  0.75625462  0.59701870  1
