# generated using pymatgen
data_Al31B5N36
_symmetry_space_group_name_H-M   'P 1'
_cell_length_a   9.16310057
_cell_length_b   9.23059592
_cell_length_c   10.25004645
_cell_angle_alpha   90.34705349
_cell_angle_beta   89.64775583
_cell_angle_gamma   59.81382067
_symmetry_Int_Tables_number   1
_chemical_formula_structural   Al31B5N36
_chemical_formula_sum   'Al31 B5 N36'
_cell_volume   749.33893603
_cell_formula_units_Z   1
loop_
 _symmetry_equiv_pos_site_id
 _symmetry_equiv_pos_as_xyz
  1  'x, y, z'
loop_
 _atom_site_type_symbol
 _atom_site_label
 _atom_site_symmetry_multiplicity
 _atom_site_fract_x
 _atom_site_fract_y
 _atom_site_fract_z
 _atom_site_occupancy
  Al  Al0  1  0.11636128  0.09445554  0.39737560  1
  Al  Al1  1  0.21828915  0.20242161  0.12754392  1
  Al  Al2  1  0.88572459  0.20186385  0.59206734  1
  Al  Al3  1  0.45495945  0.08445322  0.31300022  1
  Al  Al4  1  0.57600428  0.19649331  0.05938392  1
  Al  Al5  1  0.09252832  0.09955501  0.89038687  1
  Al  Al6  1  0.21967662  0.20215169  0.65081256  1
  Al  Al7  1  0.78163459  0.09550331  0.31968216  1
  Al  Al8  1  0.47035149  0.07909398  0.82425284  1
  Al  Al9  1  0.55714225  0.19732228  0.56956013  1
  Al  Al10  1  0.10685023  0.43518174  0.31724515  1
  Al  Al11  1  0.22767955  0.53525964  0.06417791  1
  Al  Al12  1  0.76940005  0.43818584  0.81462243  1
  Al  Al13  1  0.88863944  0.54995664  0.56785000  1
  Al  Al14  1  0.44358094  0.42356920  0.31945175  1
  Al  Al15  1  0.56376559  0.52852707  0.07502162  1
  Al  Al16  1  0.10086076  0.44073530  0.82476181  1
  Al  Al17  1  0.21076334  0.54849815  0.57289462  1
  Al  Al18  1  0.78212192  0.41869339  0.32545207  1
  Al  Al19  1  0.88249645  0.53716755  0.07145675  1
  Al  Al20  1  0.44867516  0.42741080  0.81593959  1
  Al  Al21  1  0.55750465  0.53178873  0.56671242  1
  Al  Al22  1  0.10803171  0.75748482  0.31253834  1
  Al  Al23  1  0.22426395  0.88241358  0.13953421  1
  Al  Al24  1  0.43301704  0.76610254  0.39190383  1
  Al  Al25  1  0.09365935  0.76137349  0.83652946  1
  Al  Al26  1  0.21794589  0.87570755  0.65098332  1
  Al  Al27  1  0.76864662  0.76076020  0.31840998  1
  Al  Al28  1  0.88737932  0.87020518  0.09132537  1
  Al  Al29  1  0.44604314  0.76829331  0.89553696  1
  Al  Al30  1  0.56452460  0.87530136  0.57198071  1
  B  B31  1  0.75782762  0.13448479  0.79977256  1
  B  B32  1  0.88853385  0.20513187  0.10643954  1
  B  B33  1  0.77878354  0.75987778  0.87863108  1
  B  B34  1  0.88198225  0.86911064  0.62835739  1
  B  B35  1  0.56267142  0.86757849  0.08317307  1
  N  N36  1  0.21997441  0.20210220  0.31930258  1
  N  N37  1  0.07914127  0.11062586  0.07981656  1
  N  N38  1  0.86970163  0.20130071  0.83308731  1
  N  N39  1  0.78207701  0.07067538  0.65169120  1
  N  N40  1  0.55550480  0.20217105  0.38197169  1
  N  N41  1  0.47002016  0.06420854  0.11634876  1
  N  N42  1  0.22009289  0.20272487  0.84499588  1
  N  N43  1  0.12084259  0.08943685  0.58303748  1
  N  N44  1  0.88011341  0.20628165  0.39719359  1
  N  N45  1  0.79639289  0.11171692  0.12662204  1
  N  N46  1  0.58601885  0.19681527  0.86935265  1
  N  N47  1  0.45101369  0.09012293  0.63890089  1
  N  N48  1  0.21963914  0.54198990  0.38538106  1
  N  N49  1  0.10578255  0.43785360  0.12670108  1
  N  N50  1  0.87140599  0.56023922  0.88428496  1
  N  N51  1  0.77513570  0.43815534  0.63015837  1
  N  N52  1  0.55585080  0.53299148  0.37629122  1
  N  N53  1  0.44853966  0.41767017  0.13094312  1
  N  N54  1  0.22891307  0.53271697  0.88038356  1
  N  N55  1  0.10596000  0.43390301  0.63607789  1
  N  N56  1  0.88621863  0.53792869  0.37973703  1
  N  N57  1  0.79589677  0.39562667  0.13141047  1
  N  N58  1  0.55484846  0.53570225  0.88773062  1
  N  N59  1  0.44314630  0.42635100  0.63011304  1
  N  N60  1  0.21944455  0.88001686  0.32576158  1
  N  N61  1  0.12312972  0.75322749  0.12197463  1
  N  N62  1  0.87898640  0.84093756  0.90439588  1
  N  N63  1  0.79348982  0.77866209  0.60970830  1
  N  N64  1  0.55230862  0.87687784  0.38576964  1
  N  N65  1  0.45469346  0.77839757  0.08641789  1
  N  N66  1  0.22130471  0.87412917  0.83862080  1
  N  N67  1  0.07537787  0.77711920  0.64173953  1
  N  N68  1  0.88315682  0.87182412  0.32889268  1
  N  N69  1  0.74516775  0.76398829  0.13019194  1
  N  N70  1  0.58970083  0.85735003  0.88325526  1
  N  N71  1  0.43677810  0.76253567  0.58470808  1
