# generated using pymatgen
data_Al31B5N36
_symmetry_space_group_name_H-M   'P 1'
_cell_length_a   9.16584545
_cell_length_b   9.19312880
_cell_length_c   9.86614766
_cell_angle_alpha   89.80192925
_cell_angle_beta   90.28424754
_cell_angle_gamma   60.17333342
_symmetry_Int_Tables_number   1
_chemical_formula_structural   Al31B5N36
_chemical_formula_sum   'Al31 B5 N36'
_cell_volume   721.19805603
_cell_formula_units_Z   1
loop_
 _symmetry_equiv_pos_site_id
 _symmetry_equiv_pos_as_xyz
  1  'x, y, z'
loop_
 _atom_site_type_symbol
 _atom_site_label
 _atom_site_symmetry_multiplicity
 _atom_site_fract_x
 _atom_site_fract_y
 _atom_site_fract_z
 _atom_site_occupancy
  Al  Al0  1  0.10603131  0.09620239  0.39763216  1
  Al  Al1  1  0.21775131  0.20322808  0.15290581  1
  Al  Al2  1  0.88873516  0.19202920  0.65643557  1
  Al  Al3  1  0.44664414  0.09030974  0.39777839  1
  Al  Al4  1  0.56015991  0.20300799  0.15032978  1
  Al  Al5  1  0.10078364  0.09281767  0.90752695  1
  Al  Al6  1  0.22367866  0.20174586  0.65375400  1
  Al  Al7  1  0.78146136  0.08957690  0.38961104  1
  Al  Al8  1  0.45237033  0.08878191  0.91000244  1
  Al  Al9  1  0.56796035  0.19195795  0.65913637  1
  Al  Al10  1  0.10883401  0.42701291  0.40218445  1
  Al  Al11  1  0.22200697  0.53890952  0.15467984  1
  Al  Al12  1  0.78020290  0.41638839  0.90549534  1
  Al  Al13  1  0.89049517  0.54068924  0.65859797  1
  Al  Al14  1  0.44603076  0.42497823  0.40551911  1
  Al  Al15  1  0.55935205  0.53725610  0.15321893  1
  Al  Al16  1  0.10665743  0.42858339  0.90245641  1
  Al  Al17  1  0.21659755  0.54018578  0.65210485  1
  Al  Al18  1  0.77997753  0.42306081  0.39679998  1
  Al  Al19  1  0.88180699  0.54066483  0.14367026  1
  Al  Al20  1  0.44552164  0.42669630  0.90317502  1
  Al  Al21  1  0.55921933  0.53679222  0.65514149  1
  Al  Al22  1  0.10564025  0.76299938  0.39434542  1
  Al  Al23  1  0.21970225  0.87779634  0.15418327  1
  Al  Al24  1  0.44775690  0.76147376  0.39876244  1
  Al  Al25  1  0.09659494  0.76609142  0.90379632  1
  Al  Al26  1  0.21912731  0.87309451  0.65251845  1
  Al  Al27  1  0.77801803  0.76326162  0.38875104  1
  Al  Al28  1  0.88268167  0.88160100  0.12671305  1
  Al  Al29  1  0.45210398  0.76227094  0.90801307  1
  Al  Al30  1  0.57098627  0.86995181  0.65798470  1
  B  B31  1  0.77380476  0.09725452  0.91707160  1
  B  B32  1  0.88402204  0.20846038  0.14990436  1
  B  B33  1  0.74580887  0.81119637  0.92866633  1
  B  B34  1  0.88985834  0.86929030  0.60436180  1
  B  B35  1  0.55140779  0.87300031  0.15324558  1
  N  N36  1  0.22149463  0.20499764  0.34375853  1
  N  N37  1  0.08324812  0.10763294  0.10005087  1
  N  N38  1  0.87347742  0.18451384  0.84770070  1
  N  N39  1  0.79434600  0.06050435  0.58766932  1
  N  N40  1  0.55605072  0.20507755  0.34212575  1
  N  N41  1  0.45357947  0.07102514  0.10228910  1
  N  N42  1  0.22562783  0.19840291  0.84768373  1
  N  N43  1  0.10774936  0.09441429  0.59116395  1
  N  N44  1  0.88660413  0.20469961  0.31995734  1
  N  N45  1  0.78383041  0.11640927  0.08573044  1
  N  N46  1  0.57825166  0.19390204  0.85574209  1
  N  N47  1  0.44840182  0.08974343  0.59340131  1
  N  N48  1  0.22234824  0.53817574  0.34711681  1
  N  N49  1  0.11039999  0.42818514  0.09380477  1
  N  N50  1  0.88492241  0.53592572  0.84729205  1
  N  N51  1  0.78195080  0.41934240  0.59173887  1
  N  N52  1  0.55455633  0.53849047  0.34419467  1
  N  N53  1  0.44265481  0.42829923  0.09394206  1
  N  N54  1  0.21850565  0.54123643  0.84200132  1
  N  N55  1  0.11073694  0.42457539  0.59327753  1
  N  N56  1  0.88669574  0.54014359  0.33778112  1
  N  N57  1  0.78839914  0.40309315  0.09898636  1
  N  N58  1  0.55561397  0.54056133  0.84699654  1
  N  N59  1  0.44741620  0.42214472  0.59867435  1
  N  N60  1  0.22232417  0.87198060  0.34601142  1
  N  N61  1  0.11687823  0.75875698  0.09472964  1
  N  N62  1  0.85448080  0.89209479  0.89733080  1
  N  N63  1  0.79511248  0.77224442  0.58814123  1
  N  N64  1  0.55630531  0.87139334  0.32109566  1
  N  N65  1  0.45365498  0.77519742  0.10156585  1
  N  N66  1  0.22253898  0.86998527  0.84506317  1
  N  N67  1  0.08236569  0.77437811  0.59426889  1
  N  N68  1  0.88771631  0.87244003  0.32453351  1
  N  N69  1  0.74339254  0.77718745  0.08607545  1
  N  N70  1  0.58079096  0.86440139  0.85087872  1
  N  N71  1  0.45017210  0.76214618  0.59436175  1
