# generated using pymatgen
data_Al31B5N36
_symmetry_space_group_name_H-M   'P 1'
_cell_length_a   9.18352231
_cell_length_b   9.17673242
_cell_length_c   9.79154760
_cell_angle_alpha   89.86719852
_cell_angle_beta   89.65352411
_cell_angle_gamma   59.99369805
_symmetry_Int_Tables_number   1
_chemical_formula_structural   Al31B5N36
_chemical_formula_sum   'Al31 B5 N36'
_cell_volume   714.56815444
_cell_formula_units_Z   1
loop_
 _symmetry_equiv_pos_site_id
 _symmetry_equiv_pos_as_xyz
  1  'x, y, z'
loop_
 _atom_site_type_symbol
 _atom_site_label
 _atom_site_symmetry_multiplicity
 _atom_site_fract_x
 _atom_site_fract_y
 _atom_site_fract_z
 _atom_site_occupancy
  Al  Al0  1  0.10397225  0.09698189  0.30855714  1
  Al  Al1  1  0.21987792  0.20251832  0.06230699  1
  Al  Al2  1  0.88780151  0.19903262  0.57198715  1
  Al  Al3  1  0.44861718  0.08805027  0.30687102  1
  Al  Al4  1  0.56947156  0.19842613  0.05660907  1
  Al  Al5  1  0.10533763  0.09440049  0.81922105  1
  Al  Al6  1  0.22222891  0.20334460  0.56241023  1
  Al  Al7  1  0.78129533  0.09290872  0.31598424  1
  Al  Al8  1  0.45379969  0.08679303  0.81869652  1
  Al  Al9  1  0.56082213  0.19735503  0.56718627  1
  Al  Al10  1  0.10872290  0.42888970  0.31242547  1
  Al  Al11  1  0.22076809  0.54038899  0.06116120  1
  Al  Al12  1  0.77905351  0.42571793  0.82028000  1
  Al  Al13  1  0.88595864  0.54596044  0.57002785  1
  Al  Al14  1  0.44475763  0.42571704  0.31213919  1
  Al  Al15  1  0.56155212  0.53628284  0.06283760  1
  Al  Al16  1  0.10753792  0.43322928  0.81174820  1
  Al  Al17  1  0.21687389  0.54250923  0.56272193  1
  Al  Al18  1  0.78205805  0.42177954  0.30837794  1
  Al  Al19  1  0.88181615  0.54572835  0.05825235  1
  Al  Al20  1  0.45144176  0.42305202  0.81065357  1
  Al  Al21  1  0.55722768  0.53904413  0.56117346  1
  Al  Al22  1  0.10379975  0.76436898  0.31997537  1
  Al  Al23  1  0.21932712  0.87617723  0.06276977  1
  Al  Al24  1  0.44763967  0.76453632  0.30776521  1
  Al  Al25  1  0.09836370  0.76793585  0.80923205  1
  Al  Al26  1  0.21790364  0.87374263  0.56338567  1
  Al  Al27  1  0.77359469  0.76626903  0.31673054  1
  Al  Al28  1  0.87952298  0.88096030  0.05663705  1
  Al  Al29  1  0.45093398  0.76019407  0.81925893  1
  Al  Al30  1  0.56028496  0.87250324  0.56963548  1
  B  B31  1  0.77167001  0.07608035  0.80638614  1
  B  B32  1  0.88779222  0.20005029  0.05612550  1
  B  B33  1  0.77649319  0.77166413  0.81232541  1
  B  B34  1  0.88636009  0.87273115  0.57479941  1
  B  B35  1  0.56517613  0.86927972  0.05657120  1
  N  N36  1  0.22318773  0.20278600  0.36606205  1
  N  N37  1  0.08486730  0.10642098  0.11326079  1
  N  N38  1  0.88155530  0.19471527  0.88719570  1
  N  N39  1  0.78847278  0.06921659  0.64004340  1
  N  N40  1  0.55681992  0.20197385  0.37190425  1
  N  N41  1  0.46027399  0.06922466  0.10848189  1
  N  N42  1  0.22246119  0.20674860  0.87156089  1
  N  N43  1  0.10979362  0.09431258  0.62644013  1
  N  N44  1  0.88709692  0.20493883  0.38055071  1
  N  N45  1  0.79271372  0.10430650  0.12034225  1
  N  N46  1  0.58396192  0.18942799  0.86126356  1
  N  N47  1  0.44265591  0.09388666  0.62672677  1
  N  N48  1  0.22136800  0.53903438  0.37095604  1
  N  N49  1  0.10762209  0.42966595  0.11934594  1
  N  N50  1  0.87639186  0.56998729  0.86413639  1
  N  N51  1  0.77815553  0.42587754  0.62706954  1
  N  N52  1  0.55661538  0.53953510  0.36583518  1
  N  N53  1  0.44517892  0.42425062  0.11843342  1
  N  N54  1  0.22345160  0.54078089  0.86827016  1
  N  N55  1  0.11042980  0.42681430  0.62035668  1
  N  N56  1  0.88499916  0.54179884  0.37339184  1
  N  N57  1  0.79282761  0.40229446  0.11094879  1
  N  N58  1  0.55601242  0.53749679  0.87335078  1
  N  N59  1  0.44454743  0.42709044  0.61849435  1
  N  N60  1  0.22268449  0.87261376  0.36814823  1
  N  N61  1  0.10325945  0.76413075  0.12364468  1
  N  N62  1  0.86354358  0.88398676  0.86315040  1
  N  N63  1  0.78591956  0.77519451  0.64011068  1
  N  N64  1  0.55504477  0.87242301  0.37905767  1
  N  N65  1  0.45852557  0.77448483  0.11113054  1
  N  N66  1  0.22187359  0.86892036  0.87132623  1
  N  N67  1  0.08418307  0.77431348  0.61588964  1
  N  N68  1  0.88268210  0.87502241  0.40020155  1
  N  N69  1  0.75401591  0.77675621  0.12016795  1
  N  N70  1  0.58143948  0.85973391  0.88251471  1
  N  N71  1  0.44414528  0.76123912  0.62513400  1
