# generated using pymatgen
data_Al31B5N36
_symmetry_space_group_name_H-M   'P 1'
_cell_length_a   9.19748790
_cell_length_b   9.17872244
_cell_length_c   9.96615700
_cell_angle_alpha   89.77736050
_cell_angle_beta   89.40374618
_cell_angle_gamma   59.88721579
_symmetry_Int_Tables_number   1
_chemical_formula_structural   Al31B5N36
_chemical_formula_sum   'Al31 B5 N36'
_cell_volume   727.76487552
_cell_formula_units_Z   1
loop_
 _symmetry_equiv_pos_site_id
 _symmetry_equiv_pos_as_xyz
  1  'x, y, z'
loop_
 _atom_site_type_symbol
 _atom_site_label
 _atom_site_symmetry_multiplicity
 _atom_site_fract_x
 _atom_site_fract_y
 _atom_site_fract_z
 _atom_site_occupancy
  Al  Al0  1  0.11147423  0.08678335  0.38680064  1
  Al  Al1  1  0.22310144  0.20538038  0.06219261  1
  Al  Al2  1  0.88575100  0.19773214  0.59556140  1
  Al  Al3  1  0.44900471  0.08883868  0.30543042  1
  Al  Al4  1  0.56978081  0.20125952  0.05442053  1
  Al  Al5  1  0.09000411  0.09570691  0.87617253  1
  Al  Al6  1  0.22910328  0.20764863  0.56304860  1
  Al  Al7  1  0.78198978  0.09282367  0.31892187  1
  Al  Al8  1  0.45432745  0.08705742  0.81725908  1
  Al  Al9  1  0.56050438  0.19715720  0.56258474  1
  Al  Al10  1  0.10992090  0.42927755  0.31159894  1
  Al  Al11  1  0.22341793  0.53721772  0.05821387  1
  Al  Al12  1  0.77576501  0.42734034  0.80764110  1
  Al  Al13  1  0.88750787  0.54849534  0.56619095  1
  Al  Al14  1  0.44440304  0.42716374  0.31167231  1
  Al  Al15  1  0.56328047  0.53407780  0.06235179  1
  Al  Al16  1  0.10743305  0.42963729  0.80992095  1
  Al  Al17  1  0.21530567  0.54682320  0.56154485  1
  Al  Al18  1  0.78335145  0.42120393  0.31876794  1
  Al  Al19  1  0.88415295  0.54288617  0.05803780  1
  Al  Al20  1  0.45215439  0.42215703  0.80830264  1
  Al  Al21  1  0.55536378  0.54236056  0.55787884  1
  Al  Al22  1  0.10160043  0.76241019  0.31086732  1
  Al  Al23  1  0.21703166  0.88207397  0.11702645  1
  Al  Al24  1  0.45396516  0.76327217  0.30483756  1
  Al  Al25  1  0.09356775  0.76055834  0.82035271  1
  Al  Al26  1  0.21718081  0.87535943  0.64023944  1
  Al  Al27  1  0.77429785  0.76642771  0.31102508  1
  Al  Al28  1  0.87861761  0.88230408  0.05738285  1
  Al  Al29  1  0.45776952  0.75698989  0.82471701  1
  Al  Al30  1  0.56115312  0.87266630  0.56865980  1
  B  B31  1  0.77272637  0.08659009  0.80076491  1
  B  B32  1  0.88779432  0.20683014  0.10024354  1
  B  B33  1  0.77388429  0.77300553  0.81749563  1
  B  B34  1  0.88266245  0.87095096  0.59946597  1
  B  B35  1  0.56760445  0.86662095  0.05506653  1
  N  N36  1  0.22679912  0.20647825  0.36685064  1
  N  N37  1  0.07475873  0.11300058  0.07470850  1
  N  N38  1  0.87173514  0.18823721  0.81840029  1
  N  N39  1  0.78268543  0.06159992  0.63488299  1
  N  N40  1  0.55538508  0.20342398  0.37080869  1
  N  N41  1  0.46166705  0.06957430  0.10865737  1
  N  N42  1  0.22143749  0.20422888  0.87107910  1
  N  N43  1  0.11888689  0.08752334  0.57900871  1
  N  N44  1  0.87965077  0.20742898  0.38763077  1
  N  N45  1  0.79383699  0.11029917  0.12149727  1
  N  N46  1  0.58193573  0.19147796  0.86196704  1
  N  N47  1  0.44516410  0.09368811  0.62826015  1
  N  N48  1  0.22115872  0.54153999  0.37195683  1
  N  N49  1  0.10865583  0.42940677  0.12092707  1
  N  N50  1  0.87671416  0.56420330  0.86632507  1
  N  N51  1  0.77509245  0.43586733  0.61948616  1
  N  N52  1  0.55455122  0.54211497  0.36609746  1
  N  N53  1  0.44547605  0.42540753  0.12015802  1
  N  N54  1  0.22592522  0.53319318  0.86928503  1
  N  N55  1  0.11057406  0.42905540  0.62144455  1
  N  N56  1  0.88648589  0.54316125  0.37269136  1
  N  N57  1  0.79482555  0.39903479  0.11940232  1
  N  N58  1  0.55862938  0.53362538  0.87580154  1
  N  N59  1  0.44496265  0.42822066  0.61808838  1
  N  N60  1  0.22164991  0.87608745  0.31240885  1
  N  N61  1  0.10273380  0.76015813  0.11264415  1
  N  N62  1  0.86075428  0.88426423  0.86649711  1
  N  N63  1  0.78614573  0.77415411  0.64435187  1
  N  N64  1  0.55599863  0.87279843  0.37941804  1
  N  N65  1  0.46502697  0.77216470  0.10652363  1
  N  N66  1  0.22031174  0.86895035  0.83821440  1
  N  N67  1  0.07789697  0.77397234  0.62483218  1
  N  N68  1  0.88461832  0.87223643  0.37734548  1
  N  N69  1  0.75373354  0.77469066  0.11701838  1
  N  N70  1  0.58258597  0.86020050  0.88373821  1
  N  N71  1  0.45186895  0.75853142  0.62966354  1
