# generated using pymatgen
data_Al31B5N36
_symmetry_space_group_name_H-M   'P 1'
_cell_length_a   9.17591348
_cell_length_b   9.21740273
_cell_length_c   9.94375059
_cell_angle_alpha   89.41109281
_cell_angle_beta   89.82747828
_cell_angle_gamma   60.24160606
_symmetry_Int_Tables_number   1
_chemical_formula_structural   Al31B5N36
_chemical_formula_sum   'Al31 B5 N36'
_cell_volume   730.07371690
_cell_formula_units_Z   1
loop_
 _symmetry_equiv_pos_site_id
 _symmetry_equiv_pos_as_xyz
  1  'x, y, z'
loop_
 _atom_site_type_symbol
 _atom_site_label
 _atom_site_symmetry_multiplicity
 _atom_site_fract_x
 _atom_site_fract_y
 _atom_site_fract_z
 _atom_site_occupancy
  Al  Al0  1  0.11012447  0.09631629  0.40001591  1
  Al  Al1  1  0.21513176  0.20474922  0.14961505  1
  Al  Al2  1  0.88770369  0.18983109  0.64847338  1
  Al  Al3  1  0.44332352  0.08719437  0.38841685  1
  Al  Al4  1  0.55964224  0.20523114  0.13271277  1
  Al  Al5  1  0.09771233  0.09118973  0.90437499  1
  Al  Al6  1  0.22483588  0.20066327  0.65164832  1
  Al  Al7  1  0.78597385  0.09307760  0.34363191  1
  Al  Al8  1  0.45022649  0.08955811  0.90681879  1
  Al  Al9  1  0.56735362  0.19310398  0.58681529  1
  Al  Al10  1  0.10877484  0.42782999  0.39768093  1
  Al  Al11  1  0.21904826  0.54148549  0.15041597  1
  Al  Al12  1  0.77911166  0.40945131  0.90283763  1
  Al  Al13  1  0.89226828  0.53544078  0.65503755  1
  Al  Al14  1  0.44052271  0.43570754  0.39750472  1
  Al  Al15  1  0.56017058  0.53855927  0.15005450  1
  Al  Al16  1  0.10705381  0.42431809  0.89886308  1
  Al  Al17  1  0.21566164  0.53950278  0.64938246  1
  Al  Al18  1  0.78011303  0.42721410  0.39654383  1
  Al  Al19  1  0.88120959  0.54141098  0.13963790  1
  Al  Al20  1  0.44509603  0.42642069  0.89900909  1
  Al  Al21  1  0.55926559  0.53633756  0.65267365  1
  Al  Al22  1  0.10693679  0.76299000  0.39499853  1
  Al  Al23  1  0.21918687  0.87901179  0.15160143  1
  Al  Al24  1  0.44824226  0.76228550  0.39679727  1
  Al  Al25  1  0.09701848  0.76584821  0.90034137  1
  Al  Al26  1  0.22066862  0.87165385  0.65075791  1
  Al  Al27  1  0.77876850  0.76242044  0.38828679  1
  Al  Al28  1  0.88497653  0.88229723  0.13017252  1
  Al  Al29  1  0.45285184  0.76128166  0.90532981  1
  Al  Al30  1  0.57357037  0.86974582  0.65569178  1
  B  B31  1  0.76538696  0.08943528  0.87141223  1
  B  B32  1  0.88781204  0.21094547  0.15874046  1
  B  B33  1  0.73760050  0.82554500  0.92975026  1
  B  B34  1  0.89053849  0.86994421  0.59610950  1
  B  B35  1  0.55026898  0.87416062  0.15041193  1
  N  N36  1  0.22101808  0.20675140  0.33832119  1
  N  N37  1  0.08284172  0.10824956  0.09649577  1
  N  N38  1  0.86930213  0.17793534  0.84115438  1
  N  N39  1  0.80019782  0.05549710  0.58246878  1
  N  N40  1  0.55315294  0.20843166  0.36079868  1
  N  N41  1  0.45205379  0.07201082  0.10098986  1
  N  N42  1  0.22697134  0.19466884  0.84452435  1
  N  N43  1  0.11010460  0.09287086  0.59094235  1
  N  N44  1  0.89745120  0.21420933  0.32475998  1
  N  N45  1  0.78796260  0.11490423  0.13929294  1
  N  N46  1  0.57874989  0.19292510  0.87066428  1
  N  N47  1  0.44548098  0.08417234  0.58454123  1
  N  N48  1  0.22001821  0.54125676  0.34077542  1
  N  N49  1  0.10992821  0.42900175  0.08927394  1
  N  N50  1  0.89154102  0.51606170  0.83976912  1
  N  N51  1  0.78054188  0.41869731  0.58813883  1
  N  N52  1  0.55598839  0.54133109  0.33928289  1
  N  N53  1  0.44044530  0.43292325  0.09139961  1
  N  N54  1  0.21711421  0.54035555  0.83869921  1
  N  N55  1  0.11278946  0.42252429  0.58800111  1
  N  N56  1  0.88668825  0.54233537  0.33302731  1
  N  N57  1  0.78843230  0.40280323  0.09611018  1
  N  N58  1  0.55514518  0.54024455  0.84354192  1
  N  N59  1  0.44354348  0.42899447  0.59088286  1
  N  N60  1  0.22274657  0.87318107  0.34319003  1
  N  N61  1  0.11533317  0.76095116  0.08901428  1
  N  N62  1  0.84922222  0.90076134  0.89225198  1
  N  N63  1  0.79669792  0.76951480  0.58538162  1
  N  N64  1  0.55808045  0.87004131  0.31576460  1
  N  N65  1  0.45408947  0.77613236  0.09768025  1
  N  N66  1  0.22325887  0.86883667  0.84230690  1
  N  N67  1  0.08492305  0.77241519  0.59197752  1
  N  N68  1  0.89360700  0.86354959  0.32514025  1
  N  N69  1  0.74396154  0.78211074  0.08128100  1
  N  N70  1  0.58183419  0.86538103  0.84901470  1
  N  N71  1  0.45210478  0.76142228  0.59206257  1
