# generated using pymatgen
data_Al31B5N36
_symmetry_space_group_name_H-M   'P 1'
_cell_length_a   9.10281981
_cell_length_b   9.12322124
_cell_length_c   10.54650415
_cell_angle_alpha   90.81354779
_cell_angle_beta   90.12133004
_cell_angle_gamma   60.00416995
_symmetry_Int_Tables_number   1
_chemical_formula_structural   Al31B5N36
_chemical_formula_sum   'Al31 B5 N36'
_cell_volume   758.45635436
_cell_formula_units_Z   1
loop_
 _symmetry_equiv_pos_site_id
 _symmetry_equiv_pos_as_xyz
  1  'x, y, z'
loop_
 _atom_site_type_symbol
 _atom_site_label
 _atom_site_symmetry_multiplicity
 _atom_site_fract_x
 _atom_site_fract_y
 _atom_site_fract_z
 _atom_site_occupancy
  Al  Al0  1  0.12278255  0.08969515  0.39398755  1
  Al  Al1  1  0.20903931  0.21110980  0.13830970  1
  Al  Al2  1  0.88765849  0.19436517  0.57364288  1
  Al  Al3  1  0.45469173  0.08307672  0.31455719  1
  Al  Al4  1  0.56434690  0.19863004  0.06906854  1
  Al  Al5  1  0.09497385  0.09137774  0.89415251  1
  Al  Al6  1  0.21016997  0.21192107  0.64679309  1
  Al  Al7  1  0.77835315  0.10083228  0.32325418  1
  Al  Al8  1  0.45908466  0.08579410  0.81556787  1
  Al  Al9  1  0.55970973  0.19512210  0.56176618  1
  Al  Al10  1  0.10706097  0.42493420  0.39417764  1
  Al  Al11  1  0.23056597  0.54112070  0.06058526  1
  Al  Al12  1  0.77442351  0.41553060  0.81654590  1
  Al  Al13  1  0.89140460  0.55550414  0.64615923  1
  Al  Al14  1  0.44132186  0.42845133  0.31740544  1
  Al  Al15  1  0.56977713  0.52731303  0.06972648  1
  Al  Al16  1  0.09757491  0.43333981  0.89281508  1
  Al  Al17  1  0.21964284  0.55010158  0.57135971  1
  Al  Al18  1  0.78023630  0.42026816  0.32214659  1
  Al  Al19  1  0.88578075  0.54766849  0.14412848  1
  Al  Al20  1  0.45190773  0.42079249  0.81711721  1
  Al  Al21  1  0.56381393  0.52560617  0.56924526  1
  Al  Al22  1  0.11148007  0.75506466  0.30705334  1
  Al  Al23  1  0.22714431  0.88187809  0.13750862  1
  Al  Al24  1  0.43583592  0.76345656  0.39748856  1
  Al  Al25  1  0.08998793  0.76447310  0.82608162  1
  Al  Al26  1  0.21956505  0.87563443  0.65109132  1
  Al  Al27  1  0.78469058  0.76488900  0.38985149  1
  Al  Al28  1  0.87862536  0.87658241  0.11546945  1
  Al  Al29  1  0.45452530  0.76510651  0.88928862  1
  Al  Al30  1  0.55587588  0.87877701  0.58249147  1
  B  B31  1  0.77268866  0.08500111  0.86454204  1
  B  B32  1  0.88647907  0.20643308  0.10736028  1
  B  B33  1  0.76759474  0.77831099  0.85911678  1
  B  B34  1  0.88592586  0.87565025  0.60448172  1
  B  B35  1  0.56028043  0.86883241  0.10108534  1
  N  N36  1  0.21641784  0.21049005  0.31936027  1
  N  N37  1  0.07996299  0.10930228  0.08058142  1
  N  N38  1  0.86719084  0.17817638  0.85322510  1
  N  N39  1  0.79210452  0.05792488  0.59621410  1
  N  N40  1  0.55062554  0.20758068  0.37752997  1
  N  N41  1  0.46243164  0.06433584  0.12546668  1
  N  N42  1  0.20484065  0.20917846  0.83152050  1
  N  N43  1  0.12385923  0.08477718  0.57601641  1
  N  N44  1  0.88748409  0.20863765  0.38904817  1
  N  N45  1  0.78953154  0.11623664  0.13093038  1
  N  N46  1  0.57668347  0.19131498  0.88471152  1
  N  N47  1  0.44430579  0.10070424  0.63655971  1
  N  N48  1  0.22282643  0.54879294  0.38733809  1
  N  N49  1  0.10475005  0.42948641  0.07447669  1
  N  N50  1  0.87676969  0.57894824  0.83077552  1
  N  N51  1  0.78181439  0.42256082  0.63664655  1
  N  N52  1  0.56108823  0.52911727  0.38314753  1
  N  N53  1  0.44571323  0.42548285  0.13323331  1
  N  N54  1  0.22822859  0.53868688  0.87877308  1
  N  N55  1  0.10712875  0.42488382  0.57688935  1
  N  N56  1  0.89095963  0.54385444  0.32664210  1
  N  N57  1  0.79443594  0.39638896  0.13308021  1
  N  N58  1  0.56191305  0.52898260  0.88934004  1
  N  N59  1  0.44732408  0.42219494  0.63413073  1
  N  N60  1  0.22800919  0.87581863  0.31899947  1
  N  N61  1  0.11684932  0.75687854  0.12103163  1
  N  N62  1  0.85620079  0.88841399  0.87851370  1
  N  N63  1  0.79935927  0.77175359  0.57661503  1
  N  N64  1  0.55035248  0.88032459  0.39362619  1
  N  N65  1  0.45714810  0.77961785  0.07916364  1
  N  N66  1  0.22748665  0.86951968  0.83374358  1
  N  N67  1  0.07722095  0.77374579  0.63895945  1
  N  N68  1  0.88216387  0.87275748  0.31443378  1
  N  N69  1  0.74340630  0.77347476  0.10077623  1
  N  N70  1  0.58599422  0.85529985  0.83671951  1
  N  N71  1  0.43649609  0.75820231  0.58350905  1
