# generated using pymatgen
data_Al31B5N36
_symmetry_space_group_name_H-M   'P 1'
_cell_length_a   9.16555059
_cell_length_b   9.20602673
_cell_length_c   9.86770666
_cell_angle_alpha   89.65871412
_cell_angle_beta   90.30180775
_cell_angle_gamma   60.20812677
_symmetry_Int_Tables_number   1
_chemical_formula_structural   Al31B5N36
_chemical_formula_sum   'Al31 B5 N36'
_cell_volume   722.53257063
_cell_formula_units_Z   1
loop_
 _symmetry_equiv_pos_site_id
 _symmetry_equiv_pos_as_xyz
  1  'x, y, z'
loop_
 _atom_site_type_symbol
 _atom_site_label
 _atom_site_symmetry_multiplicity
 _atom_site_fract_x
 _atom_site_fract_y
 _atom_site_fract_z
 _atom_site_occupancy
  Al  Al0  1  0.10617933  0.09612324  0.39646731  1
  Al  Al1  1  0.21727807  0.20376242  0.15159494  1
  Al  Al2  1  0.88890615  0.19125829  0.65493574  1
  Al  Al3  1  0.44679431  0.09043228  0.39671429  1
  Al  Al4  1  0.55963636  0.20417357  0.14938181  1
  Al  Al5  1  0.10088374  0.09266153  0.90594168  1
  Al  Al6  1  0.22446293  0.20085172  0.65212045  1
  Al  Al7  1  0.78144038  0.08977778  0.38874539  1
  Al  Al8  1  0.45169525  0.09013254  0.90910443  1
  Al  Al9  1  0.56804166  0.19189325  0.65794518  1
  Al  Al10  1  0.10896154  0.42688251  0.39987457  1
  Al  Al11  1  0.22162436  0.53933068  0.15302863  1
  Al  Al12  1  0.78028328  0.41388077  0.90395888  1
  Al  Al13  1  0.89183032  0.53686328  0.65602820  1
  Al  Al14  1  0.44583259  0.42528298  0.40430254  1
  Al  Al15  1  0.55880437  0.53797140  0.15173336  1
  Al  Al16  1  0.10740643  0.42626127  0.90035043  1
  Al  Al17  1  0.21625800  0.53976898  0.65056037  1
  Al  Al18  1  0.77978134  0.42301611  0.39426536  1
  Al  Al19  1  0.88147888  0.54132913  0.14082411  1
  Al  Al20  1  0.44444551  0.42776195  0.90159718  1
  Al  Al21  1  0.55971025  0.53622547  0.65367177  1
  Al  Al22  1  0.10610466  0.76284556  0.39300273  1
  Al  Al23  1  0.21976482  0.87834386  0.15294668  1
  Al  Al24  1  0.44800418  0.76152445  0.39788981  1
  Al  Al25  1  0.09593239  0.76625493  0.90289175  1
  Al  Al26  1  0.21968549  0.87250110  0.65152534  1
  Al  Al27  1  0.77836906  0.76289978  0.38735714  1
  Al  Al28  1  0.88302992  0.88325791  0.12667257  1
  Al  Al29  1  0.45262891  0.76232240  0.90687676  1
  Al  Al30  1  0.57265092  0.86927123  0.65725895  1
  B  B31  1  0.77341855  0.09886253  0.91611470  1
  B  B32  1  0.88365049  0.20910904  0.14891651  1
  B  B33  1  0.74109773  0.82090180  0.93116295  1
  B  B34  1  0.89049720  0.86811265  0.60245405  1
  B  B35  1  0.55049211  0.87425100  0.15286839  1
  N  N36  1  0.22154966  0.20498564  0.34233827  1
  N  N37  1  0.08304785  0.10809542  0.09855347  1
  N  N38  1  0.87319093  0.18331300  0.84638694  1
  N  N39  1  0.79469347  0.05935708  0.58665562  1
  N  N40  1  0.55590137  0.20566800  0.34117364  1
  N  N41  1  0.45318327  0.07200238  0.10148313  1
  N  N42  1  0.22727922  0.19654453  0.84601116  1
  N  N43  1  0.10810853  0.09374763  0.59005912  1
  N  N44  1  0.88670396  0.20473931  0.31852228  1
  N  N45  1  0.78327446  0.11777189  0.08504919  1
  N  N46  1  0.57749687  0.19518775  0.85470311  1
  N  N47  1  0.44934497  0.08886909  0.59223199  1
  N  N48  1  0.22218218  0.53855429  0.34537494  1
  N  N49  1  0.11030707  0.42843583  0.09195744  1
  N  N50  1  0.88938183  0.52425444  0.84260491  1
  N  N51  1  0.78157244  0.41775165  0.58864511  1
  N  N52  1  0.55391772  0.53920273  0.34262360  1
  N  N53  1  0.44209941  0.42914415  0.09242488  1
  N  N54  1  0.21710631  0.54177609  0.84059431  1
  N  N55  1  0.11193901  0.42325931  0.59064551  1
  N  N56  1  0.88646966  0.54055354  0.33530507  1
  N  N57  1  0.78774982  0.40369691  0.09771097  1
  N  N58  1  0.55532872  0.54095215  0.84566330  1
  N  N59  1  0.44722194  0.42212283  0.59750253  1
  N  N60  1  0.22247306  0.87227239  0.34488441  1
  N  N61  1  0.11669260  0.75938260  0.09378030  1
  N  N62  1  0.85309526  0.89471710  0.89790966  1
  N  N63  1  0.79630340  0.77053536  0.58694637  1
  N  N64  1  0.55617408  0.87188521  0.32013861  1
  N  N65  1  0.45362030  0.77601462  0.10040733  1
  N  N66  1  0.22246491  0.86973683  0.84411679  1
  N  N67  1  0.08288594  0.77384233  0.59284485  1
  N  N68  1  0.88770277  0.87299638  0.32388342  1
  N  N69  1  0.74263028  0.77982522  0.08547023  1
  N  N70  1  0.58143466  0.86562924  0.85073487  1
  N  N71  1  0.45105554  0.76191357  0.59371457  1
