# generated using pymatgen
data_Al31B5N36
_symmetry_space_group_name_H-M   'P 1'
_cell_length_a   9.16827298
_cell_length_b   9.14799290
_cell_length_c   10.22953022
_cell_angle_alpha   90.10581468
_cell_angle_beta   89.45746198
_cell_angle_gamma   60.04608593
_symmetry_Int_Tables_number   1
_chemical_formula_structural   Al31B5N36
_chemical_formula_sum   'Al31 B5 N36'
_cell_volume   743.30866577
_cell_formula_units_Z   1
loop_
 _symmetry_equiv_pos_site_id
 _symmetry_equiv_pos_as_xyz
  1  'x, y, z'
loop_
 _atom_site_type_symbol
 _atom_site_label
 _atom_site_symmetry_multiplicity
 _atom_site_fract_x
 _atom_site_fract_y
 _atom_site_fract_z
 _atom_site_occupancy
  Al  Al0  1  0.11603210  0.09377658  0.39752680  1
  Al  Al1  1  0.21300869  0.20542149  0.13344320  1
  Al  Al2  1  0.88703612  0.20009041  0.61425091  1
  Al  Al3  1  0.45581333  0.08145580  0.31497158  1
  Al  Al4  1  0.57340146  0.19315789  0.05641734  1
  Al  Al5  1  0.09669350  0.09507864  0.88441010  1
  Al  Al6  1  0.21382972  0.21188229  0.64601400  1
  Al  Al7  1  0.78152315  0.10504155  0.31636347  1
  Al  Al8  1  0.46138681  0.08338254  0.81417215  1
  Al  Al9  1  0.56060542  0.19822770  0.56402049  1
  Al  Al10  1  0.11273935  0.42460577  0.39129139  1
  Al  Al11  1  0.21811068  0.54098319  0.12616180  1
  Al  Al12  1  0.77824628  0.42076819  0.88186198  1
  Al  Al13  1  0.88763826  0.55438598  0.64359133  1
  Al  Al14  1  0.44712658  0.42046519  0.31777782  1
  Al  Al15  1  0.56600361  0.53835560  0.13429826  1
  Al  Al16  1  0.10200674  0.43668065  0.88985937  1
  Al  Al17  1  0.21434153  0.54559255  0.63147499  1
  Al  Al18  1  0.77603750  0.43155424  0.40063574  1
  Al  Al19  1  0.88146611  0.53746586  0.14299082  1
  Al  Al20  1  0.45108762  0.41370829  0.81859491  1
  Al  Al21  1  0.55734233  0.54622373  0.64757565  1
  Al  Al22  1  0.10262204  0.76992851  0.39005037  1
  Al  Al23  1  0.21668372  0.87909926  0.13896762  1
  Al  Al24  1  0.43945130  0.75604162  0.39222281  1
  Al  Al25  1  0.09705385  0.76690740  0.88623095  1
  Al  Al26  1  0.21456403  0.87559600  0.64707921  1
  Al  Al27  1  0.78424160  0.76114273  0.38136935  1
  Al  Al28  1  0.88322635  0.87031243  0.13029741  1
  Al  Al29  1  0.45333872  0.76409799  0.88922548  1
  Al  Al30  1  0.55564290  0.87664674  0.58277677  1
  B  B31  1  0.77441202  0.07739743  0.80250108  1
  B  B32  1  0.88762579  0.20506070  0.09459535  1
  B  B33  1  0.77130065  0.77502058  0.84599533  1
  B  B34  1  0.88574806  0.87119232  0.61204942  1
  B  B35  1  0.56121426  0.86761578  0.10128280  1
  N  N36  1  0.21979209  0.20586131  0.32037969  1
  N  N37  1  0.07928762  0.10846361  0.07779057  1
  N  N38  1  0.87611298  0.18974499  0.81880890  1
  N  N39  1  0.78207596  0.06282121  0.64013963  1
  N  N40  1  0.55892910  0.20041759  0.37741849  1
  N  N41  1  0.46531406  0.06223232  0.11917465  1
  N  N42  1  0.21397238  0.20823024  0.83577040  1
  N  N43  1  0.12042821  0.09086506  0.58331199  1
  N  N44  1  0.88586237  0.20206463  0.39436213  1
  N  N45  1  0.79348235  0.11373884  0.12380158  1
  N  N46  1  0.58522598  0.18586103  0.86993110  1
  N  N47  1  0.44343912  0.10017753  0.62959211  1
  N  N48  1  0.21825234  0.54415331  0.34013669  1
  N  N49  1  0.10510729  0.43028370  0.07572755  1
  N  N50  1  0.87431262  0.57069354  0.83271379  1
  N  N51  1  0.77556328  0.44262149  0.58802597  1
  N  N52  1  0.56340274  0.53908289  0.32229764  1
  N  N53  1  0.44955335  0.41625329  0.12123413  1
  N  N54  1  0.21630253  0.54179008  0.82806448  1
  N  N55  1  0.10833223  0.42827620  0.57839964  1
  N  N56  1  0.89128146  0.53387113  0.32919220  1
  N  N57  1  0.79445933  0.39707969  0.07416931  1
  N  N58  1  0.55554048  0.54102305  0.83655298  1
  N  N59  1  0.45144198  0.41980000  0.62645447  1
  N  N60  1  0.22082338  0.87418919  0.32516728  1
  N  N61  1  0.11012562  0.76315501  0.07290385  1
  N  N62  1  0.86250724  0.87636672  0.84527683  1
  N  N63  1  0.79890485  0.77490980  0.57549460  1
  N  N64  1  0.55296130  0.87437703  0.38939886  1
  N  N65  1  0.45520613  0.77787983  0.08056336  1
  N  N66  1  0.22394409  0.87004162  0.83267866  1
  N  N67  1  0.07846400  0.78270365  0.58400980  1
  N  N68  1  0.89071145  0.87171076  0.31781130  1
  N  N69  1  0.74369920  0.77148133  0.10852023  1
  N  N70  1  0.58764006  0.85222915  0.83067260  1
  N  N71  1  0.43301819  0.75766866  0.58002503  1
