# generated using pymatgen
data_Al31B5N36
_symmetry_space_group_name_H-M   'P 1'
_cell_length_a   9.10730508
_cell_length_b   9.12991458
_cell_length_c   10.53878037
_cell_angle_alpha   90.64481179
_cell_angle_beta   89.92746185
_cell_angle_gamma   59.96872129
_symmetry_Int_Tables_number   1
_chemical_formula_structural   Al31B5N36
_chemical_formula_sum   'Al31 B5 N36'
_cell_volume   758.57639396
_cell_formula_units_Z   1
loop_
 _symmetry_equiv_pos_site_id
 _symmetry_equiv_pos_as_xyz
  1  'x, y, z'
loop_
 _atom_site_type_symbol
 _atom_site_label
 _atom_site_symmetry_multiplicity
 _atom_site_fract_x
 _atom_site_fract_y
 _atom_site_fract_z
 _atom_site_occupancy
  Al  Al0  1  0.12199772  0.09060928  0.39538391  1
  Al  Al1  1  0.20915077  0.21074955  0.13784432  1
  Al  Al2  1  0.88751523  0.19447931  0.57738008  1
  Al  Al3  1  0.45428737  0.08350338  0.31460885  1
  Al  Al4  1  0.56608335  0.19723574  0.06784369  1
  Al  Al5  1  0.09394479  0.09144234  0.89324860  1
  Al  Al6  1  0.21018449  0.21208758  0.64723680  1
  Al  Al7  1  0.77794638  0.10203849  0.32676820  1
  Al  Al8  1  0.45857766  0.08602047  0.81544697  1
  Al  Al9  1  0.55925307  0.19542468  0.56213060  1
  Al  Al10  1  0.10748074  0.42463682  0.39411066  1
  Al  Al11  1  0.23002703  0.54124416  0.06078653  1
  Al  Al12  1  0.77417600  0.41645969  0.81579978  1
  Al  Al13  1  0.89184477  0.55541854  0.64540906  1
  Al  Al14  1  0.44168563  0.42811227  0.31670135  1
  Al  Al15  1  0.56977022  0.52686669  0.07001808  1
  Al  Al16  1  0.09715009  0.43387170  0.89263830  1
  Al  Al17  1  0.22024452  0.54966275  0.57124673  1
  Al  Al18  1  0.78029642  0.42037319  0.32322013  1
  Al  Al19  1  0.88557520  0.54697321  0.14401222  1
  Al  Al20  1  0.45204472  0.42095414  0.81714887  1
  Al  Al21  1  0.56355471  0.52597347  0.56868737  1
  Al  Al22  1  0.11337274  0.75483588  0.30918127  1
  Al  Al23  1  0.22676240  0.88199458  0.13759824  1
  Al  Al24  1  0.43596558  0.76431868  0.39744232  1
  Al  Al25  1  0.08978978  0.76423477  0.82498584  1
  Al  Al26  1  0.22012827  0.87543358  0.65119515  1
  Al  Al27  1  0.78458343  0.76440077  0.39020979  1
  Al  Al28  1  0.87813886  0.87592454  0.12649750  1
  Al  Al29  1  0.45449901  0.76494685  0.88926353  1
  Al  Al30  1  0.55631986  0.87849620  0.58362439  1
  B  B31  1  0.77286334  0.08349593  0.85960695  1
  B  B32  1  0.88674571  0.20577482  0.10879615  1
  B  B33  1  0.76758835  0.77943706  0.85472065  1
  B  B34  1  0.88634221  0.87549261  0.60460789  1
  B  B35  1  0.56051304  0.86877688  0.10148287  1
  N  N36  1  0.21606694  0.21044026  0.31927394  1
  N  N37  1  0.07949810  0.10932923  0.08030118  1
  N  N38  1  0.86766905  0.17730112  0.84799001  1
  N  N39  1  0.79161934  0.05780188  0.59580715  1
  N  N40  1  0.54982487  0.20788989  0.37800040  1
  N  N41  1  0.46259618  0.06426524  0.12516475  1
  N  N42  1  0.20461290  0.20943110  0.83196798  1
  N  N43  1  0.12368845  0.08530188  0.57733453  1
  N  N44  1  0.88692752  0.20946765  0.39128636  1
  N  N45  1  0.78990665  0.11560096  0.13217033  1
  N  N46  1  0.57708781  0.19087972  0.88323774  1
  N  N47  1  0.44393918  0.10079933  0.63634037  1
  N  N48  1  0.22350964  0.54794640  0.38730863  1
  N  N49  1  0.10445356  0.42940674  0.07441103  1
  N  N50  1  0.87684982  0.57899167  0.82972940  1
  N  N51  1  0.78104363  0.42432127  0.63590921  1
  N  N52  1  0.56015819  0.52991862  0.38241067  1
  N  N53  1  0.44588703  0.42433546  0.13246244  1
  N  N54  1  0.22798500  0.53901134  0.87871126  1
  N  N55  1  0.10776610  0.42465134  0.57684788  1
  N  N56  1  0.89122783  0.54367531  0.32691987  1
  N  N57  1  0.79434807  0.39587084  0.13369968  1
  N  N58  1  0.56203082  0.52877945  0.88952354  1
  N  N59  1  0.44757708  0.42227613  0.63408578  1
  N  N60  1  0.22760164  0.87705196  0.31977787  1
  N  N61  1  0.11674632  0.75650681  0.12276960  1
  N  N62  1  0.85461496  0.88853081  0.86967231  1
  N  N63  1  0.80004163  0.77170634  0.57622068  1
  N  N64  1  0.55067410  0.88066521  0.39373660  1
  N  N65  1  0.45741470  0.77946303  0.07929896  1
  N  N66  1  0.22734843  0.86907143  0.83402095  1
  N  N67  1  0.07826175  0.77369162  0.63744047  1
  N  N68  1  0.88290105  0.87315504  0.31616371  1
  N  N69  1  0.74360089  0.77396446  0.10285847  1
  N  N70  1  0.58542434  0.85498253  0.83484288  1
  N  N71  1  0.43677857  0.75830484  0.58340627  1
