# generated using pymatgen
data_Al31B5N36
_symmetry_space_group_name_H-M   'P 1'
_cell_length_a   9.15357540
_cell_length_b   9.13948884
_cell_length_c   10.30950886
_cell_angle_alpha   90.14952077
_cell_angle_beta   89.52132912
_cell_angle_gamma   60.10565131
_symmetry_Int_Tables_number   1
_chemical_formula_structural   Al31B5N36
_chemical_formula_sum   'Al31 B5 N36'
_cell_volume   747.67737092
_cell_formula_units_Z   1
loop_
 _symmetry_equiv_pos_site_id
 _symmetry_equiv_pos_as_xyz
  1  'x, y, z'
loop_
 _atom_site_type_symbol
 _atom_site_label
 _atom_site_symmetry_multiplicity
 _atom_site_fract_x
 _atom_site_fract_y
 _atom_site_fract_z
 _atom_site_occupancy
  Al  Al0  1  0.11544095  0.09177599  0.39948230  1
  Al  Al1  1  0.21209962  0.20694734  0.13629781  1
  Al  Al2  1  0.88756737  0.19914135  0.61826494  1
  Al  Al3  1  0.45679843  0.07996614  0.31567107  1
  Al  Al4  1  0.57191395  0.19444200  0.05656775  1
  Al  Al5  1  0.09738221  0.09654918  0.88505825  1
  Al  Al6  1  0.21376978  0.21236892  0.64595006  1
  Al  Al7  1  0.78020411  0.10529779  0.31420400  1
  Al  Al8  1  0.46168630  0.08399911  0.81345227  1
  Al  Al9  1  0.56149599  0.19768185  0.56594390  1
  Al  Al10  1  0.10916441  0.42033853  0.39172685  1
  Al  Al11  1  0.23174547  0.53422537  0.06609460  1
  Al  Al12  1  0.77677254  0.42201917  0.88302113  1
  Al  Al13  1  0.88921430  0.55533218  0.64500754  1
  Al  Al14  1  0.44373960  0.41996247  0.31535638  1
  Al  Al15  1  0.56578584  0.53883070  0.13711518  1
  Al  Al16  1  0.09915325  0.43314414  0.89173982  1
  Al  Al17  1  0.22220464  0.54673344  0.57066490  1
  Al  Al18  1  0.77529571  0.43019168  0.40218434  1
  Al  Al19  1  0.88193737  0.53776665  0.14422103  1
  Al  Al20  1  0.44626510  0.41645270  0.81592121  1
  Al  Al21  1  0.55683282  0.54625439  0.64817869  1
  Al  Al22  1  0.10394257  0.76842058  0.35927760  1
  Al  Al23  1  0.21909990  0.88207186  0.13533069  1
  Al  Al24  1  0.43942046  0.75485198  0.39343184  1
  Al  Al25  1  0.09595324  0.77173918  0.88754120  1
  Al  Al26  1  0.21310535  0.87443027  0.64920030  1
  Al  Al27  1  0.78437416  0.76059934  0.38354156  1
  Al  Al28  1  0.87935986  0.87241347  0.12159793  1
  Al  Al29  1  0.45487203  0.76337209  0.88918146  1
  Al  Al30  1  0.55537677  0.87654856  0.58196800  1
  B  B31  1  0.77358107  0.07870088  0.80748830  1
  B  B32  1  0.88660005  0.20690787  0.09378654  1
  B  B33  1  0.77082333  0.77678747  0.85115633  1
  B  B34  1  0.88879536  0.87048034  0.61049146  1
  B  B35  1  0.56107245  0.86671257  0.10068657  1
  N  N36  1  0.22015538  0.20383685  0.32151123  1
  N  N37  1  0.07884617  0.11079764  0.07656033  1
  N  N38  1  0.87622714  0.19068154  0.82088201  1
  N  N39  1  0.78246351  0.06151789  0.64449648  1
  N  N40  1  0.55880307  0.20028884  0.37919319  1
  N  N41  1  0.46543253  0.06176316  0.12084751  1
  N  N42  1  0.21410761  0.20873941  0.83381645  1
  N  N43  1  0.12050443  0.08969074  0.58398405  1
  N  N44  1  0.88562761  0.20054731  0.39367630  1
  N  N45  1  0.79184938  0.11610575  0.12307495  1
  N  N46  1  0.58315986  0.18904492  0.87078034  1
  N  N47  1  0.44393701  0.09927456  0.63017952  1
  N  N48  1  0.22688827  0.54007850  0.38047552  1
  N  N49  1  0.10322403  0.42868213  0.07908186  1
  N  N50  1  0.87526142  0.57216956  0.83303188  1
  N  N51  1  0.77563976  0.44196257  0.58866544  1
  N  N52  1  0.56244100  0.53822265  0.32327531  1
  N  N53  1  0.44718354  0.41630296  0.12743662  1
  N  N54  1  0.22853728  0.53541420  0.87782378  1
  N  N55  1  0.10697338  0.42690685  0.57919083  1
  N  N56  1  0.88997202  0.53407449  0.32946056  1
  N  N57  1  0.79251083  0.39887017  0.07422044  1
  N  N58  1  0.55555955  0.54115612  0.83457131  1
  N  N59  1  0.44508105  0.42230855  0.62977475  1
  N  N60  1  0.22376595  0.87547022  0.32049394  1
  N  N61  1  0.11030123  0.76658617  0.08057288  1
  N  N62  1  0.85960534  0.88079592  0.85966347  1
  N  N63  1  0.79893703  0.77549636  0.57536726  1
  N  N64  1  0.55292932  0.87338109  0.39035422  1
  N  N65  1  0.45563665  0.77673456  0.07930098  1
  N  N66  1  0.22500061  0.87108842  0.83439484  1
  N  N67  1  0.07654793  0.78313748  0.59556280  1
  N  N68  1  0.88565168  0.87159731  0.31130445  1
  N  N69  1  0.74293947  0.76959401  0.10607757  1
  N  N70  1  0.58786422  0.85332259  0.83249077  1
  N  N71  1  0.43166814  0.75738420  0.57990920  1
