# generated using pymatgen
data_Al31B5N36
_symmetry_space_group_name_H-M   'P 1'
_cell_length_a   9.16801543
_cell_length_b   9.15361473
_cell_length_c   10.24046841
_cell_angle_alpha   90.11182330
_cell_angle_beta   89.46936407
_cell_angle_gamma   60.05409005
_symmetry_Int_Tables_number   1
_chemical_formula_structural   Al31B5N36
_chemical_formula_sum   'Al31 B5 N36'
_cell_volume   744.60121836
_cell_formula_units_Z   1
loop_
 _symmetry_equiv_pos_site_id
 _symmetry_equiv_pos_as_xyz
  1  'x, y, z'
loop_
 _atom_site_type_symbol
 _atom_site_label
 _atom_site_symmetry_multiplicity
 _atom_site_fract_x
 _atom_site_fract_y
 _atom_site_fract_z
 _atom_site_occupancy
  Al  Al0  1  0.11615452  0.09390568  0.39782423  1
  Al  Al1  1  0.21285759  0.20541684  0.13408895  1
  Al  Al2  1  0.88713183  0.20016591  0.61436519  1
  Al  Al3  1  0.45611494  0.08151525  0.31521544  1
  Al  Al4  1  0.57389825  0.19241619  0.05660732  1
  Al  Al5  1  0.09671752  0.09487327  0.88476243  1
  Al  Al6  1  0.21389566  0.21119229  0.64676425  1
  Al  Al7  1  0.78098766  0.10565299  0.31641287  1
  Al  Al8  1  0.46161919  0.08338733  0.81422232  1
  Al  Al9  1  0.56085049  0.19787084  0.56399375  1
  Al  Al10  1  0.11168166  0.42349545  0.39207802  1
  Al  Al11  1  0.22579980  0.53717625  0.08335737  1
  Al  Al12  1  0.77769618  0.42064519  0.88208302  1
  Al  Al13  1  0.88736045  0.55474051  0.64427900  1
  Al  Al14  1  0.44281726  0.42274807  0.31721176  1
  Al  Al15  1  0.56622449  0.53864250  0.13518189  1
  Al  Al16  1  0.09995861  0.43424324  0.88867021  1
  Al  Al17  1  0.22051489  0.54363756  0.59637424  1
  Al  Al18  1  0.77559120  0.43159114  0.40073241  1
  Al  Al19  1  0.88161228  0.53760902  0.14347972  1
  Al  Al20  1  0.44932690  0.41435430  0.81756977  1
  Al  Al21  1  0.55734366  0.54635716  0.64821626  1
  Al  Al22  1  0.10137679  0.77294491  0.38995009  1
  Al  Al23  1  0.21662005  0.87958488  0.13944983  1
  Al  Al24  1  0.43948078  0.75566735  0.39222851  1
  Al  Al25  1  0.09540587  0.76978396  0.88491852  1
  Al  Al26  1  0.21436638  0.87577174  0.64755445  1
  Al  Al27  1  0.78429888  0.76116098  0.38188282  1
  Al  Al28  1  0.88337972  0.86999654  0.13114583  1
  Al  Al29  1  0.45345034  0.76387155  0.88926138  1
  Al  Al30  1  0.55550777  0.87660801  0.58265909  1
  B  B31  1  0.77381506  0.07793462  0.80262614  1
  B  B32  1  0.88757580  0.20511733  0.09474371  1
  B  B33  1  0.77105297  0.77516681  0.84600476  1
  B  B34  1  0.88543427  0.87169186  0.61296699  1
  B  B35  1  0.56127332  0.86754895  0.10136363  1
  N  N36  1  0.22000539  0.20596277  0.32053182  1
  N  N37  1  0.07920807  0.10863765  0.07794009  1
  N  N38  1  0.87623666  0.18969195  0.81894537  1
  N  N39  1  0.78140839  0.06353094  0.64042380  1
  N  N40  1  0.55859903  0.20121873  0.37728280  1
  N  N41  1  0.46533421  0.06217758  0.11941389  1
  N  N42  1  0.21439937  0.20689992  0.83571968  1
  N  N43  1  0.12053578  0.09058753  0.58328621  1
  N  N44  1  0.88601915  0.20209491  0.39427866  1
  N  N45  1  0.79321990  0.11395279  0.12407017  1
  N  N46  1  0.58516215  0.18624008  0.87020116  1
  N  N47  1  0.44353042  0.10002371  0.62965496  1
  N  N48  1  0.22455958  0.54247756  0.37374588  1
  N  N49  1  0.10350857  0.42871677  0.07653645  1
  N  N50  1  0.87376539  0.57099917  0.83269132  1
  N  N51  1  0.77508923  0.44272033  0.58797857  1
  N  N52  1  0.56311790  0.53888149  0.32208932  1
  N  N53  1  0.44816593  0.41652508  0.12389661  1
  N  N54  1  0.22190550  0.53840652  0.85347132  1
  N  N55  1  0.10628146  0.42643042  0.58110841  1
  N  N56  1  0.89130138  0.53408589  0.32934832  1
  N  N57  1  0.79400077  0.39715088  0.07427373  1
  N  N58  1  0.55549918  0.54094516  0.83646968  1
  N  N59  1  0.45088733  0.41942728  0.62900724  1
  N  N60  1  0.22092105  0.87473894  0.32503705  1
  N  N61  1  0.10835418  0.76697580  0.07390697  1
  N  N62  1  0.86194896  0.87659327  0.84498554  1
  N  N63  1  0.79888838  0.77499772  0.57562679  1
  N  N64  1  0.55285835  0.87433889  0.38950016  1
  N  N65  1  0.45511926  0.77778990  0.08059803  1
  N  N66  1  0.22412385  0.87027890  0.83257310  1
  N  N67  1  0.07660568  0.78555328  0.58611342  1
  N  N68  1  0.89043880  0.87183980  0.31792837  1
  N  N69  1  0.74373039  0.77146427  0.10869948  1
  N  N70  1  0.58745371  0.85233405  0.83081912  1
  N  N71  1  0.43270321  0.75730662  0.57992090  1
