# generated using pymatgen
data_Al31B5N36
_symmetry_space_group_name_H-M   'P 1'
_cell_length_a   9.16869677
_cell_length_b   9.15358804
_cell_length_c   10.27343506
_cell_angle_alpha   90.10446092
_cell_angle_beta   89.56237049
_cell_angle_gamma   60.16970303
_symmetry_Int_Tables_number   1
_chemical_formula_structural   Al31B5N36
_chemical_formula_sum   'Al31 B5 N36'
_cell_volume   747.93458836
_cell_formula_units_Z   1
loop_
 _symmetry_equiv_pos_site_id
 _symmetry_equiv_pos_as_xyz
  1  'x, y, z'
loop_
 _atom_site_type_symbol
 _atom_site_label
 _atom_site_symmetry_multiplicity
 _atom_site_fract_x
 _atom_site_fract_y
 _atom_site_fract_z
 _atom_site_occupancy
  Al  Al0  1  0.11564749  0.09129745  0.39858231  1
  Al  Al1  1  0.21213502  0.20844121  0.13656157  1
  Al  Al2  1  0.88795182  0.19657460  0.61546624  1
  Al  Al3  1  0.45672007  0.08211183  0.31694881  1
  Al  Al4  1  0.57210121  0.19357387  0.05817221  1
  Al  Al5  1  0.09688698  0.09308728  0.88645943  1
  Al  Al6  1  0.21290730  0.21310373  0.64624344  1
  Al  Al7  1  0.78065561  0.10492058  0.31584152  1
  Al  Al8  1  0.46043488  0.08464844  0.81446762  1
  Al  Al9  1  0.56000216  0.19819606  0.56584441  1
  Al  Al10  1  0.11021217  0.42234803  0.39163672  1
  Al  Al11  1  0.22853707  0.53875933  0.06290455  1
  Al  Al12  1  0.78103053  0.41860653  0.88149316  1
  Al  Al13  1  0.88965803  0.55423543  0.64571790  1
  Al  Al14  1  0.44458210  0.42429804  0.31459934  1
  Al  Al15  1  0.56260867  0.53617681  0.11043052  1
  Al  Al16  1  0.09843048  0.43174235  0.89304639  1
  Al  Al17  1  0.21923920  0.55054926  0.57060011  1
  Al  Al18  1  0.77633437  0.43040497  0.39976480  1
  Al  Al19  1  0.88058533  0.53868951  0.14508247  1
  Al  Al20  1  0.44728684  0.41770028  0.81995607  1
  Al  Al21  1  0.55510032  0.54297041  0.63360564  1
  Al  Al22  1  0.11170245  0.75669584  0.30914634  1
  Al  Al23  1  0.22416830  0.88412114  0.13553249  1
  Al  Al24  1  0.43989819  0.75740993  0.39083353  1
  Al  Al25  1  0.09142039  0.76300029  0.83035042  1
  Al  Al26  1  0.21700687  0.87739793  0.64954636  1
  Al  Al27  1  0.78549080  0.76277028  0.38487355  1
  Al  Al28  1  0.87932327  0.87366760  0.11515767  1
  Al  Al29  1  0.45284980  0.76593223  0.88881827  1
  Al  Al30  1  0.55672657  0.87757185  0.58401408  1
  B  B31  1  0.77163702  0.08093227  0.81021351  1
  B  B32  1  0.88845923  0.20584045  0.09443414  1
  B  B33  1  0.76836909  0.77629229  0.85483427  1
  B  B34  1  0.88585413  0.86996637  0.61754048  1
  B  B35  1  0.56158559  0.86786599  0.10159599  1
  N  N36  1  0.21997267  0.20581721  0.32217722  1
  N  N37  1  0.08039280  0.10939329  0.07690475  1
  N  N38  1  0.87626035  0.18822252  0.82045366  1
  N  N39  1  0.78110937  0.06050285  0.64494061  1
  N  N40  1  0.55737612  0.20399136  0.37929307  1
  N  N41  1  0.46618904  0.06244521  0.12161092  1
  N  N42  1  0.21261903  0.20770676  0.83475554  1
  N  N43  1  0.12042269  0.08968868  0.58385207  1
  N  N44  1  0.88551420  0.20104372  0.39645578  1
  N  N45  1  0.79302948  0.11609166  0.12269893  1
  N  N46  1  0.58251019  0.18865501  0.87150064  1
  N  N47  1  0.44255412  0.10064885  0.63083547  1
  N  N48  1  0.22573141  0.54555357  0.38341560  1
  N  N49  1  0.10252798  0.42979287  0.07923241  1
  N  N50  1  0.87491526  0.57214747  0.83356327  1
  N  N51  1  0.77709021  0.43978484  0.59121823  1
  N  N52  1  0.56205437  0.53898541  0.32802174  1
  N  N53  1  0.44499119  0.41578369  0.12520151  1
  N  N54  1  0.22517479  0.53777976  0.87711386  1
  N  N55  1  0.10693438  0.42746990  0.57984167  1
  N  N56  1  0.89067165  0.53603429  0.33066138  1
  N  N57  1  0.79756177  0.39581136  0.07455508  1
  N  N58  1  0.55378945  0.53779853  0.85904348  1
  N  N59  1  0.44330502  0.42296195  0.63298431  1
  N  N60  1  0.22524150  0.87825571  0.32186384  1
  N  N61  1  0.11758575  0.75674374  0.11781102  1
  N  N62  1  0.85738368  0.88133253  0.86740496  1
  N  N63  1  0.80032093  0.77452327  0.57828467  1
  N  N64  1  0.55405495  0.87566105  0.39232639  1
  N  N65  1  0.45565996  0.78097350  0.07881900  1
  N  N66  1  0.22551922  0.86950269  0.83555646  1
  N  N67  1  0.07626907  0.77623050  0.63509575  1
  N  N68  1  0.88293677  0.87498608  0.31464990  1
  N  N69  1  0.74318555  0.76981284  0.10425330  1
  N  N70  1  0.58712745  0.85312689  0.83005126  1
  N  N71  1  0.43256469  0.75932773  0.58117205  1
