# generated using pymatgen
data_Al31B5N36
_symmetry_space_group_name_H-M   'P 1'
_cell_length_a   9.11586352
_cell_length_b   9.14017615
_cell_length_c   10.42522128
_cell_angle_alpha   90.79689521
_cell_angle_beta   90.09584088
_cell_angle_gamma   60.03873725
_symmetry_Int_Tables_number   1
_chemical_formula_structural   Al31B5N36
_chemical_formula_sum   'Al31 B5 N36'
_cell_volume   752.46729975
_cell_formula_units_Z   1
loop_
 _symmetry_equiv_pos_site_id
 _symmetry_equiv_pos_as_xyz
  1  'x, y, z'
loop_
 _atom_site_type_symbol
 _atom_site_label
 _atom_site_symmetry_multiplicity
 _atom_site_fract_x
 _atom_site_fract_y
 _atom_site_fract_z
 _atom_site_occupancy
  Al  Al0  1  0.11857781  0.08944214  0.39542521  1
  Al  Al1  1  0.21037996  0.20984393  0.13753672  1
  Al  Al2  1  0.88534743  0.19473712  0.58485600  1
  Al  Al3  1  0.45577721  0.08279539  0.31607861  1
  Al  Al4  1  0.56829333  0.19786601  0.06182596  1
  Al  Al5  1  0.09425310  0.09317931  0.89207229  1
  Al  Al6  1  0.20890474  0.21244582  0.64686118  1
  Al  Al7  1  0.78087759  0.09725341  0.31790416  1
  Al  Al8  1  0.45902287  0.08579085  0.81500976  1
  Al  Al9  1  0.55835799  0.19613367  0.56679791  1
  Al  Al10  1  0.10796576  0.42375651  0.39293269  1
  Al  Al11  1  0.23051891  0.54044225  0.06291597  1
  Al  Al12  1  0.77365328  0.41939743  0.81678616  1
  Al  Al13  1  0.89049610  0.55476603  0.64502912  1
  Al  Al14  1  0.44337818  0.42549755  0.31766153  1
  Al  Al15  1  0.57065030  0.52714985  0.07127134  1
  Al  Al16  1  0.09875866  0.43161856  0.89336441  1
  Al  Al17  1  0.21875676  0.55046718  0.56945893  1
  Al  Al18  1  0.78081436  0.41867818  0.32526529  1
  Al  Al19  1  0.88554887  0.54966782  0.14582991  1
  Al  Al20  1  0.45117737  0.42198184  0.81621621  1
  Al  Al21  1  0.56160037  0.52727924  0.56745246  1
  Al  Al22  1  0.10709973  0.75773442  0.30855123  1
  Al  Al23  1  0.22601835  0.88171882  0.13673359  1
  Al  Al24  1  0.43542490  0.76419976  0.39481329  1
  Al  Al25  1  0.09465323  0.76023895  0.82573114  1
  Al  Al26  1  0.21877192  0.87577205  0.65102298  1
  Al  Al27  1  0.78548583  0.76544530  0.39279679  1
  Al  Al28  1  0.88028849  0.87892428  0.07194010  1
  Al  Al29  1  0.45480968  0.76529069  0.88960631  1
  Al  Al30  1  0.55368513  0.87806480  0.58446025  1
  B  B31  1  0.77229901  0.08987421  0.82218176  1
  B  B32  1  0.88795963  0.20538948  0.10459841  1
  B  B33  1  0.76924443  0.77222711  0.85573300  1
  B  B34  1  0.88463476  0.87288162  0.61186456  1
  B  B35  1  0.56181372  0.87053363  0.10219667  1
  N  N36  1  0.21668803  0.20795672  0.32061008  1
  N  N37  1  0.08072571  0.10885295  0.07982207  1
  N  N38  1  0.87105372  0.18354356  0.84409286  1
  N  N39  1  0.78396419  0.06279745  0.64117225  1
  N  N40  1  0.55503202  0.20456229  0.38057563  1
  N  N41  1  0.46343964  0.06595297  0.12298490  1
  N  N42  1  0.20782818  0.20797382  0.83318590  1
  N  N43  1  0.12083598  0.08561834  0.57890786  1
  N  N44  1  0.88251552  0.20786921  0.39498969  1
  N  N45  1  0.79312992  0.11112441  0.12681894  1
  N  N46  1  0.57928818  0.19173348  0.87464742  1
  N  N47  1  0.44107844  0.10055762  0.63424886  1
  N  N48  1  0.22415657  0.54624420  0.38422057  1
  N  N49  1  0.10466205  0.42962778  0.07654721  1
  N  N50  1  0.87666107  0.57504053  0.83224126  1
  N  N51  1  0.77795399  0.42750887  0.63465902  1
  N  N52  1  0.55957634  0.53054854  0.38065074  1
  N  N53  1  0.44771275  0.42287089  0.13162847  1
  N  N54  1  0.22866574  0.53703971  0.87886929  1
  N  N55  1  0.10650519  0.42572517  0.57769273  1
  N  N56  1  0.88997666  0.54412806  0.32946527  1
  N  N57  1  0.79590085  0.39469219  0.13343641  1
  N  N58  1  0.56074454  0.53025017  0.88926370  1
  N  N59  1  0.44519177  0.42444702  0.63265816  1
  N  N60  1  0.22691111  0.87623509  0.31857652  1
  N  N61  1  0.11078233  0.75929676  0.11998807  1
  N  N62  1  0.86097238  0.88121684  0.87795378  1
  N  N63  1  0.79549566  0.77450300  0.58388570  1
  N  N64  1  0.55193252  0.87853525  0.39328273  1
  N  N65  1  0.45925247  0.77982897  0.08110875  1
  N  N66  1  0.22728402  0.86900683  0.83538637  1
  N  N67  1  0.07587100  0.77410371  0.63836919  1
  N  N68  1  0.88998166  0.87841471  0.35182257  1
  N  N69  1  0.74571169  0.77727649  0.10382621  1
  N  N70  1  0.58721492  0.85411612  0.83486674  1
  N  N71  1  0.43411009  0.75880967  0.58324921  1
