# generated using pymatgen
data_Al31B5N36
_symmetry_space_group_name_H-M   'P 1'
_cell_length_a   9.17324417
_cell_length_b   9.15042075
_cell_length_c   10.19353597
_cell_angle_alpha   90.08600752
_cell_angle_beta   89.47048402
_cell_angle_gamma   60.01008005
_symmetry_Int_Tables_number   1
_chemical_formula_structural   Al31B5N36
_chemical_formula_sum   'Al31 B5 N36'
_cell_volume   741.02732153
_cell_formula_units_Z   1
loop_
 _symmetry_equiv_pos_site_id
 _symmetry_equiv_pos_as_xyz
  1  'x, y, z'
loop_
 _atom_site_type_symbol
 _atom_site_label
 _atom_site_symmetry_multiplicity
 _atom_site_fract_x
 _atom_site_fract_y
 _atom_site_fract_z
 _atom_site_occupancy
  Al  Al0  1  0.11544772  0.09330753  0.39708531  1
  Al  Al1  1  0.21208225  0.20592550  0.13231163  1
  Al  Al2  1  0.88749506  0.19977362  0.61465115  1
  Al  Al3  1  0.45480696  0.08187062  0.31402065  1
  Al  Al4  1  0.57245594  0.19346249  0.05645101  1
  Al  Al5  1  0.09735120  0.09523422  0.88370618  1
  Al  Al6  1  0.21376220  0.21295751  0.64521907  1
  Al  Al7  1  0.78134875  0.10469015  0.31500893  1
  Al  Al8  1  0.46134560  0.08394129  0.81433159  1
  Al  Al9  1  0.56199378  0.19615783  0.56630975  1
  Al  Al10  1  0.11131713  0.42453935  0.38974836  1
  Al  Al11  1  0.21830388  0.54013568  0.13872739  1
  Al  Al12  1  0.77986036  0.42095877  0.88101597  1
  Al  Al13  1  0.88852745  0.55411460  0.64291242  1
  Al  Al14  1  0.44630552  0.42425039  0.34271372  1
  Al  Al15  1  0.56302153  0.53524896  0.13338141  1
  Al  Al16  1  0.10323845  0.43799588  0.89265276  1
  Al  Al17  1  0.21420491  0.54518485  0.63740834  1
  Al  Al18  1  0.77658453  0.43118068  0.40060896  1
  Al  Al19  1  0.88007449  0.53770468  0.14173082  1
  Al  Al20  1  0.45038548  0.41765782  0.83555100  1
  Al  Al21  1  0.55641981  0.54479203  0.64632760  1
  Al  Al22  1  0.10195624  0.76934548  0.38857356  1
  Al  Al23  1  0.21672736  0.87807905  0.13799837  1
  Al  Al24  1  0.43921345  0.75787210  0.39221882  1
  Al  Al25  1  0.09858182  0.76604644  0.88925246  1
  Al  Al26  1  0.21499883  0.87480443  0.64635305  1
  Al  Al27  1  0.78310167  0.76174305  0.37975060  1
  Al  Al28  1  0.88287898  0.87027572  0.12765552  1
  Al  Al29  1  0.45435203  0.76463269  0.88867311  1
  Al  Al30  1  0.55649298  0.87604227  0.58419356  1
  B  B31  1  0.77592144  0.07598269  0.80282329  1
  B  B32  1  0.88707222  0.20519013  0.09381585  1
  B  B33  1  0.77262839  0.77504897  0.84678404  1
  B  B34  1  0.88723283  0.87003533  0.60906215  1
  B  B35  1  0.56055327  0.86725475  0.10107338  1
  N  N36  1  0.21905273  0.20553818  0.32017410  1
  N  N37  1  0.07887673  0.10819724  0.07728976  1
  N  N38  1  0.87679727  0.18980550  0.81832733  1
  N  N39  1  0.78437732  0.06065557  0.63982137  1
  N  N40  1  0.55982869  0.19775669  0.37788504  1
  N  N41  1  0.46439340  0.06226804  0.11824604  1
  N  N42  1  0.21392000  0.20991281  0.83625530  1
  N  N43  1  0.12067522  0.09093466  0.58345499  1
  N  N44  1  0.88521335  0.20183835  0.39389624  1
  N  N45  1  0.79292688  0.11393898  0.12292129  1
  N  N46  1  0.58706538  0.18455002  0.86829272  1
  N  N47  1  0.44313100  0.10002340  0.62964607  1
  N  N48  1  0.21603637  0.54374843  0.33023700  1
  N  N49  1  0.10485379  0.43192639  0.07800464  1
  N  N50  1  0.87610597  0.57075694  0.83300309  1
  N  N51  1  0.77608455  0.44239051  0.58829884  1
  N  N52  1  0.56205931  0.53910387  0.32294676  1
  N  N53  1  0.44594238  0.42059307  0.10359091  1
  N  N54  1  0.21637617  0.54252062  0.82563627  1
  N  N55  1  0.10934438  0.42951845  0.57671928  1
  N  N56  1  0.88993219  0.53431163  0.32863781  1
  N  N57  1  0.79371382  0.39713056  0.07397768  1
  N  N58  1  0.55711419  0.54170347  0.83450567  1
  N  N59  1  0.44879487  0.42362768  0.61402317  1
  N  N60  1  0.22074399  0.87326969  0.32517613  1
  N  N61  1  0.11110882  0.76040981  0.07516470  1
  N  N62  1  0.86373086  0.87625829  0.84847967  1
  N  N63  1  0.79950303  0.77461283  0.57469943  1
  N  N64  1  0.55257308  0.87511244  0.38899431  1
  N  N65  1  0.45542182  0.77714886  0.08053071  1
  N  N66  1  0.22444195  0.86948992  0.83290315  1
  N  N67  1  0.07993274  0.78049736  0.58204518  1
  N  N68  1  0.89031643  0.87145277  0.31673842  1
  N  N69  1  0.74291733  0.77176538  0.10797227  1
  N  N70  1  0.58889634  0.85223283  0.82941441  1
  N  N71  1  0.43383254  0.75804418  0.58031610  1
