# generated using pymatgen
data_Al31B5N36
_symmetry_space_group_name_H-M   'P 1'
_cell_length_a   9.16172304
_cell_length_b   9.22939319
_cell_length_c   10.25803205
_cell_angle_alpha   90.35900922
_cell_angle_beta   89.66049395
_cell_angle_gamma   59.81619016
_symmetry_Int_Tables_number   1
_chemical_formula_structural   Al31B5N36
_chemical_formula_sum   'Al31 B5 N36'
_cell_volume   749.73044334
_cell_formula_units_Z   1
loop_
 _symmetry_equiv_pos_site_id
 _symmetry_equiv_pos_as_xyz
  1  'x, y, z'
loop_
 _atom_site_type_symbol
 _atom_site_label
 _atom_site_symmetry_multiplicity
 _atom_site_fract_x
 _atom_site_fract_y
 _atom_site_fract_z
 _atom_site_occupancy
  Al  Al0  1  0.11631111  0.09438748  0.39752247  1
  Al  Al1  1  0.21795783  0.20244716  0.12802658  1
  Al  Al2  1  0.88564257  0.20192036  0.59212191  1
  Al  Al3  1  0.45461819  0.08493094  0.31438382  1
  Al  Al4  1  0.57620091  0.19604317  0.05922128  1
  Al  Al5  1  0.09269887  0.09956320  0.89029485  1
  Al  Al6  1  0.21942711  0.20243461  0.65061168  1
  Al  Al7  1  0.78168101  0.09561521  0.31956591  1
  Al  Al8  1  0.47074258  0.07867992  0.82283640  1
  Al  Al9  1  0.55720230  0.19766149  0.56943360  1
  Al  Al10  1  0.10682176  0.43534122  0.31731539  1
  Al  Al11  1  0.22762686  0.53517145  0.06402244  1
  Al  Al12  1  0.76931937  0.43829785  0.81471450  1
  Al  Al13  1  0.88873776  0.54989782  0.56782632  1
  Al  Al14  1  0.44356899  0.42371327  0.31938778  1
  Al  Al15  1  0.56394176  0.52807186  0.07482338  1
  Al  Al16  1  0.10080519  0.44066089  0.82475905  1
  Al  Al17  1  0.21074674  0.54866259  0.57300613  1
  Al  Al18  1  0.78208571  0.41870186  0.32544322  1
  Al  Al19  1  0.88234612  0.53713462  0.07123675  1
  Al  Al20  1  0.44858340  0.42750660  0.81603505  1
  Al  Al21  1  0.55746652  0.53186661  0.56673541  1
  Al  Al22  1  0.10826579  0.75745745  0.31241999  1
  Al  Al23  1  0.22389726  0.88263770  0.13932414  1
  Al  Al24  1  0.43286552  0.76623646  0.39239613  1
  Al  Al25  1  0.09338314  0.76153136  0.83661785  1
  Al  Al26  1  0.21803106  0.87572490  0.65135748  1
  Al  Al27  1  0.76912667  0.76073272  0.31973991  1
  Al  Al28  1  0.88732068  0.87021891  0.09111818  1
  Al  Al29  1  0.44734521  0.76876646  0.89481938  1
  Al  Al30  1  0.56457331  0.87518227  0.57299085  1
  B  B31  1  0.75792559  0.13426202  0.79985988  1
  B  B32  1  0.88845424  0.20517687  0.10636679  1
  B  B33  1  0.77760230  0.76026163  0.87713594  1
  B  B34  1  0.88225655  0.86911042  0.62806248  1
  B  B35  1  0.56130445  0.86738913  0.09117074  1
  N  N36  1  0.21979594  0.20225047  0.31947240  1
  N  N37  1  0.07909004  0.11070617  0.07976348  1
  N  N38  1  0.86966737  0.20127806  0.83321992  1
  N  N39  1  0.78201696  0.07079458  0.65173053  1
  N  N40  1  0.55567181  0.20244011  0.38196239  1
  N  N41  1  0.47022513  0.06314008  0.11738170  1
  N  N42  1  0.22035383  0.20255458  0.84471950  1
  N  N43  1  0.12076180  0.08938112  0.58303033  1
  N  N44  1  0.88010019  0.20633343  0.39721249  1
  N  N45  1  0.79638797  0.11166852  0.12658798  1
  N  N46  1  0.58586121  0.19670086  0.86937513  1
  N  N47  1  0.45038627  0.09111433  0.63769711  1
  N  N48  1  0.21967142  0.54207872  0.38545009  1
  N  N49  1  0.10568848  0.43790398  0.12689467  1
  N  N50  1  0.87166380  0.55972403  0.88457105  1
  N  N51  1  0.77506822  0.43825544  0.63025755  1
  N  N52  1  0.55583424  0.53310666  0.37626463  1
  N  N53  1  0.44853243  0.41733965  0.13091688  1
  N  N54  1  0.22880607  0.53273555  0.88043418  1
  N  N55  1  0.10585564  0.43412726  0.63614151  1
  N  N56  1  0.88634646  0.53769407  0.37980960  1
  N  N57  1  0.79584021  0.39562190  0.13152296  1
  N  N58  1  0.55468127  0.53583168  0.88815240  1
  N  N59  1  0.44316327  0.42653747  0.63024472  1
  N  N60  1  0.21965158  0.88010828  0.32541513  1
  N  N61  1  0.12323799  0.75309842  0.12197497  1
  N  N62  1  0.87863066  0.84084496  0.90460640  1
  N  N63  1  0.79423012  0.77869335  0.60814789  1
  N  N64  1  0.55234217  0.87685902  0.38609826  1
  N  N65  1  0.45525337  0.77889073  0.08675875  1
  N  N66  1  0.22162109  0.87394473  0.83900605  1
  N  N67  1  0.07563818  0.77717414  0.64191630  1
  N  N68  1  0.88339689  0.87194816  0.32852500  1
  N  N69  1  0.74462425  0.76404782  0.13092043  1
  N  N70  1  0.59062900  0.85557206  0.87436961  1
  N  N71  1  0.43647996  0.76259101  0.58448113  1
