# generated using pymatgen
data_Al31B5N36
_symmetry_space_group_name_H-M   'P 1'
_cell_length_a   9.16319080
_cell_length_b   9.14096969
_cell_length_c   10.11851288
_cell_angle_alpha   90.19643307
_cell_angle_beta   89.78417371
_cell_angle_gamma   60.14623094
_symmetry_Int_Tables_number   1
_chemical_formula_structural   Al31B5N36
_chemical_formula_sum   'Al31 B5 N36'
_cell_volume   735.04372671
_cell_formula_units_Z   1
loop_
 _symmetry_equiv_pos_site_id
 _symmetry_equiv_pos_as_xyz
  1  'x, y, z'
loop_
 _atom_site_type_symbol
 _atom_site_label
 _atom_site_symmetry_multiplicity
 _atom_site_fract_x
 _atom_site_fract_y
 _atom_site_fract_z
 _atom_site_occupancy
  Al  Al0  1  0.11200899  0.09635735  0.39936320  1
  Al  Al1  1  0.20993110  0.20765528  0.14644472  1
  Al  Al2  1  0.88551314  0.19139610  0.65060290  1
  Al  Al3  1  0.45417121  0.08306000  0.32357568  1
  Al  Al4  1  0.57068605  0.19380537  0.08219893  1
  Al  Al5  1  0.09544161  0.09260007  0.90811162  1
  Al  Al6  1  0.21242929  0.20882853  0.65467367  1
  Al  Al7  1  0.77984108  0.09659218  0.33326167  1
  Al  Al8  1  0.45336541  0.09293403  0.83639403  1
  Al  Al9  1  0.56413184  0.18677545  0.57168771  1
  Al  Al10  1  0.11077616  0.42681460  0.40081466  1
  Al  Al11  1  0.22163033  0.54020445  0.15395932  1
  Al  Al12  1  0.77702675  0.41897671  0.90675785  1
  Al  Al13  1  0.88876520  0.54760515  0.65941965  1
  Al  Al14  1  0.44096749  0.43401012  0.40064690  1
  Al  Al15  1  0.56129843  0.53608998  0.15345401  1
  Al  Al16  1  0.10158764  0.43661794  0.90480100  1
  Al  Al17  1  0.21747693  0.54052080  0.65020474  1
  Al  Al18  1  0.77997723  0.42823688  0.40146413  1
  Al  Al19  1  0.87955136  0.54253296  0.14999234  1
  Al  Al20  1  0.44335300  0.43090620  0.90002694  1
  Al  Al21  1  0.55700543  0.53485032  0.65539819  1
  Al  Al22  1  0.10492050  0.76523975  0.39677246  1
  Al  Al23  1  0.21979714  0.87834018  0.15349624  1
  Al  Al24  1  0.44508457  0.76117263  0.40637763  1
  Al  Al25  1  0.09925672  0.76648209  0.90137929  1
  Al  Al26  1  0.21628874  0.87387818  0.65298278  1
  Al  Al27  1  0.78129687  0.76289984  0.39885014  1
  Al  Al28  1  0.88489740  0.87598066  0.13100924  1
  Al  Al29  1  0.45054134  0.76322092  0.89994706  1
  Al  Al30  1  0.56990783  0.86522923  0.64529040  1
  B  B31  1  0.77431157  0.07880420  0.87090001  1
  B  B32  1  0.88853823  0.20994277  0.15911467  1
  B  B33  1  0.76064237  0.77850539  0.90834365  1
  B  B34  1  0.89016320  0.87291887  0.60271609  1
  B  B35  1  0.55437034  0.87132964  0.11198447  1
  N  N36  1  0.22166116  0.20719782  0.33481192  1
  N  N37  1  0.08178245  0.10669823  0.09714603  1
  N  N38  1  0.87036100  0.18112694  0.84262375  1
  N  N39  1  0.79753914  0.05715503  0.59330391  1
  N  N40  1  0.55505359  0.20153807  0.38227952  1
  N  N41  1  0.46002631  0.06477756  0.12494093  1
  N  N42  1  0.20762157  0.20899629  0.84827671  1
  N  N43  1  0.10819576  0.09440076  0.58844747  1
  N  N44  1  0.89724347  0.21394987  0.32430455  1
  N  N45  1  0.78666497  0.11310701  0.13995492  1
  N  N46  1  0.58408501  0.18806538  0.89010595  1
  N  N47  1  0.44421846  0.09777735  0.64663396  1
  N  N48  1  0.22151043  0.54006763  0.34148189  1
  N  N49  1  0.10671092  0.43307920  0.09101582  1
  N  N50  1  0.87301905  0.56513736  0.85179270  1
  N  N51  1  0.78149605  0.42378539  0.59437100  1
  N  N52  1  0.55680456  0.53865926  0.34002759  1
  N  N53  1  0.44157416  0.43129129  0.08974886  1
  N  N54  1  0.21987380  0.53953839  0.83780115  1
  N  N55  1  0.10820858  0.42748829  0.59022077  1
  N  N56  1  0.88894933  0.54071360  0.33828616  1
  N  N57  1  0.79007962  0.40261924  0.09670089  1
  N  N58  1  0.55717481  0.53793768  0.84341832  1
  N  N59  1  0.44348374  0.42830905  0.59140205  1
  N  N60  1  0.22368270  0.87132770  0.34131774  1
  N  N61  1  0.11657338  0.75931619  0.08813037  1
  N  N62  1  0.85790952  0.89061263  0.88423049  1
  N  N63  1  0.79935839  0.77105333  0.59095328  1
  N  N64  1  0.56051122  0.86547102  0.36479586  1
  N  N65  1  0.45620208  0.77662038  0.09249909  1
  N  N66  1  0.22201320  0.87131822  0.84224239  1
  N  N67  1  0.08545933  0.77322955  0.59160084  1
  N  N68  1  0.89290899  0.86282751  0.32381161  1
  N  N69  1  0.74524064  0.77468130  0.07612556  1
  N  N70  1  0.58348117  0.85596080  0.84280580  1
  N  N71  1  0.44392017  0.75851373  0.59678414  1
