# generated using pymatgen
data_Al31B5N36
_symmetry_space_group_name_H-M   'P 1'
_cell_length_a   9.16147138
_cell_length_b   9.14258829
_cell_length_c   10.10161841
_cell_angle_alpha   90.14223213
_cell_angle_beta   89.76076553
_cell_angle_gamma   60.17007562
_symmetry_Int_Tables_number   1
_chemical_formula_structural   Al31B5N36
_chemical_formula_sum   'Al31 B5 N36'
_cell_volume   733.98628082
_cell_formula_units_Z   1
loop_
 _symmetry_equiv_pos_site_id
 _symmetry_equiv_pos_as_xyz
  1  'x, y, z'
loop_
 _atom_site_type_symbol
 _atom_site_label
 _atom_site_symmetry_multiplicity
 _atom_site_fract_x
 _atom_site_fract_y
 _atom_site_fract_z
 _atom_site_occupancy
  Al  Al0  1  0.11169523  0.09623808  0.39945721  1
  Al  Al1  1  0.21026397  0.20745441  0.14592613  1
  Al  Al2  1  0.88567141  0.19137264  0.65092062  1
  Al  Al3  1  0.45337193  0.08548986  0.32127714  1
  Al  Al4  1  0.57015229  0.19379982  0.08168237  1
  Al  Al5  1  0.09550604  0.09243326  0.90806569  1
  Al  Al6  1  0.21251483  0.20877705  0.65483213  1
  Al  Al7  1  0.77984754  0.09643250  0.33323096  1
  Al  Al8  1  0.45221703  0.09371547  0.83893946  1
  Al  Al9  1  0.56401896  0.18712611  0.57317006  1
  Al  Al10  1  0.11087530  0.42655855  0.40091315  1
  Al  Al11  1  0.22174435  0.54000293  0.15365746  1
  Al  Al12  1  0.77687618  0.41927290  0.90655757  1
  Al  Al13  1  0.88836912  0.54774566  0.65894265  1
  Al  Al14  1  0.44107365  0.43354423  0.40098690  1
  Al  Al15  1  0.56098746  0.53584038  0.15343780  1
  Al  Al16  1  0.10111122  0.43695101  0.90476899  1
  Al  Al17  1  0.21714804  0.54076241  0.65045863  1
  Al  Al18  1  0.78038914  0.42745424  0.40143983  1
  Al  Al19  1  0.87987390  0.54221105  0.14976718  1
  Al  Al20  1  0.44333583  0.43153112  0.89968774  1
  Al  Al21  1  0.55714803  0.53597225  0.65475791  1
  Al  Al22  1  0.10523374  0.76475721  0.39674608  1
  Al  Al23  1  0.21997704  0.87782340  0.15365811  1
  Al  Al24  1  0.44657822  0.76127587  0.40291080  1
  Al  Al25  1  0.09917630  0.76673629  0.90133968  1
  Al  Al26  1  0.21730243  0.87386694  0.65221579  1
  Al  Al27  1  0.78048330  0.76274655  0.39589434  1
  Al  Al28  1  0.88495103  0.87584426  0.13070157  1
  Al  Al29  1  0.45061229  0.76370132  0.90310587  1
  Al  Al30  1  0.57118724  0.86460071  0.65169037  1
  B  B31  1  0.77415241  0.07926815  0.87108190  1
  B  B32  1  0.88838037  0.20984110  0.15892824  1
  B  B33  1  0.75919897  0.78003859  0.91177942  1
  B  B34  1  0.88945062  0.87358776  0.60172389  1
  B  B35  1  0.55578255  0.86871964  0.12707757  1
  N  N36  1  0.22164328  0.20680640  0.33560633  1
  N  N37  1  0.08176680  0.10643429  0.09727955  1
  N  N38  1  0.87037509  0.18122962  0.84279828  1
  N  N39  1  0.79746301  0.05732011  0.59378325  1
  N  N40  1  0.55537984  0.20054469  0.38375294  1
  N  N41  1  0.45828994  0.06767005  0.12440029  1
  N  N42  1  0.20721790  0.20939979  0.84833999  1
  N  N43  1  0.10814520  0.09449778  0.58861102  1
  N  N44  1  0.89724612  0.21357015  0.32442065  1
  N  N45  1  0.78616620  0.11319917  0.13996192  1
  N  N46  1  0.58402091  0.18885068  0.88919472  1
  N  N47  1  0.44453295  0.09665346  0.64683074  1
  N  N48  1  0.22179121  0.53967971  0.34156261  1
  N  N49  1  0.10677090  0.43289538  0.09111552  1
  N  N50  1  0.87277589  0.56502666  0.85159842  1
  N  N51  1  0.78170425  0.42344090  0.59437333  1
  N  N52  1  0.55730678  0.53752236  0.34038789  1
  N  N53  1  0.44160338  0.43110107  0.08956381  1
  N  N54  1  0.21960749  0.53986064  0.83796695  1
  N  N55  1  0.10808833  0.42770924  0.59045761  1
  N  N56  1  0.88942203  0.53986974  0.33845654  1
  N  N57  1  0.79005289  0.40242083  0.09669680  1
  N  N58  1  0.55674758  0.53928541  0.84307465  1
  N  N59  1  0.44324719  0.42905353  0.59193710  1
  N  N60  1  0.22372282  0.87130415  0.34191849  1
  N  N61  1  0.11661169  0.75923648  0.08826796  1
  N  N62  1  0.85747748  0.89118745  0.88534067  1
  N  N63  1  0.79636594  0.77242064  0.58827070  1
  N  N64  1  0.56341356  0.86011827  0.34062369  1
  N  N65  1  0.45556770  0.77540008  0.09434064  1
  N  N66  1  0.22278416  0.87108403  0.84179242  1
  N  N67  1  0.08491146  0.77331039  0.59176536  1
  N  N68  1  0.89328575  0.86293250  0.32411876  1
  N  N69  1  0.74591303  0.77403613  0.07773868  1
  N  N70  1  0.58305117  0.85667715  0.84492741  1
  N  N71  1  0.44642334  0.76042121  0.59380501  1
