# generated using pymatgen
data_Al31B5N36
_symmetry_space_group_name_H-M   'P 1'
_cell_length_a   9.17124297
_cell_length_b   9.14993961
_cell_length_c   10.18925893
_cell_angle_alpha   90.09235819
_cell_angle_beta   89.47206219
_cell_angle_gamma   60.01352118
_symmetry_Int_Tables_number   1
_chemical_formula_structural   Al31B5N36
_chemical_formula_sum   'Al31 B5 N36'
_cell_volume   740.54113410
_cell_formula_units_Z   1
loop_
 _symmetry_equiv_pos_site_id
 _symmetry_equiv_pos_as_xyz
  1  'x, y, z'
loop_
 _atom_site_type_symbol
 _atom_site_label
 _atom_site_symmetry_multiplicity
 _atom_site_fract_x
 _atom_site_fract_y
 _atom_site_fract_z
 _atom_site_occupancy
  Al  Al0  1  0.11540583  0.09329666  0.39706184  1
  Al  Al1  1  0.21197898  0.20600297  0.13224405  1
  Al  Al2  1  0.88750853  0.19985192  0.61460780  1
  Al  Al3  1  0.45476088  0.08195861  0.31387380  1
  Al  Al4  1  0.57310937  0.19207483  0.05656261  1
  Al  Al5  1  0.09737989  0.09521334  0.88369312  1
  Al  Al6  1  0.21366515  0.21305952  0.64515849  1
  Al  Al7  1  0.78112593  0.10486463  0.31483341  1
  Al  Al8  1  0.46133149  0.08413252  0.81422335  1
  Al  Al9  1  0.56266303  0.19495096  0.56643386  1
  Al  Al10  1  0.11129910  0.42449951  0.38953224  1
  Al  Al11  1  0.22004680  0.53920574  0.13879134  1
  Al  Al12  1  0.77999856  0.42093690  0.88075838  1
  Al  Al13  1  0.88843441  0.55412976  0.64279499  1
  Al  Al14  1  0.44507106  0.42706696  0.35990705  1
  Al  Al15  1  0.56228282  0.53420948  0.13354310  1
  Al  Al16  1  0.10328510  0.43798686  0.89257658  1
  Al  Al17  1  0.21522238  0.54458461  0.63728074  1
  Al  Al18  1  0.77660086  0.43117304  0.40049451  1
  Al  Al19  1  0.88002217  0.53775454  0.14158343  1
  Al  Al20  1  0.44898765  0.42022279  0.85116513  1
  Al  Al21  1  0.55556212  0.54394003  0.64609841  1
  Al  Al22  1  0.10197482  0.76928107  0.38839487  1
  Al  Al23  1  0.21677346  0.87798712  0.13788558  1
  Al  Al24  1  0.43924184  0.75801651  0.39204936  1
  Al  Al25  1  0.09852864  0.76608622  0.88913970  1
  Al  Al26  1  0.21506244  0.87472383  0.64623118  1
  Al  Al27  1  0.78306144  0.76184793  0.37973411  1
  Al  Al28  1  0.88313765  0.87001105  0.12767141  1
  Al  Al29  1  0.45443288  0.76468182  0.88849786  1
  Al  Al30  1  0.55647137  0.87589025  0.58428180  1
  B  B31  1  0.77579341  0.07609286  0.80268537  1
  B  B32  1  0.88705501  0.20526949  0.09374171  1
  B  B33  1  0.77263570  0.77507984  0.84678475  1
  B  B34  1  0.88740407  0.86989390  0.60899158  1
  B  B35  1  0.56057379  0.86705233  0.10104531  1
  N  N36  1  0.21897884  0.20548994  0.32014106  1
  N  N37  1  0.07885853  0.10818275  0.07728032  1
  N  N38  1  0.87688421  0.18982492  0.81831104  1
  N  N39  1  0.78459012  0.06056197  0.63976527  1
  N  N40  1  0.56018719  0.19688046  0.37712795  1
  N  N41  1  0.46430581  0.06218427  0.11812467  1
  N  N42  1  0.21393209  0.20994363  0.83627541  1
  N  N43  1  0.12068618  0.09091327  0.58346248  1
  N  N44  1  0.88514187  0.20187383  0.39384299  1
  N  N45  1  0.79292526  0.11395650  0.12290267  1
  N  N46  1  0.58761714  0.18407284  0.86758150  1
  N  N47  1  0.44303860  0.10003317  0.62966173  1
  N  N48  1  0.21724895  0.54298903  0.32946121  1
  N  N49  1  0.10498275  0.43203750  0.07804360  1
  N  N50  1  0.87615854  0.57078878  0.83300862  1
  N  N51  1  0.77583002  0.44246210  0.58832698  1
  N  N52  1  0.56135062  0.53842789  0.32240287  1
  N  N53  1  0.44486152  0.42258488  0.09124107  1
  N  N54  1  0.21732866  0.54200172  0.82473889  1
  N  N55  1  0.10928411  0.42960634  0.57665817  1
  N  N56  1  0.88983445  0.53440710  0.32857821  1
  N  N57  1  0.79357797  0.39719273  0.07395602  1
  N  N58  1  0.55704093  0.54151180  0.83328574  1
  N  N59  1  0.44745454  0.42611550  0.60185829  1
  N  N60  1  0.22073623  0.87326615  0.32513598  1
  N  N61  1  0.11124065  0.76013798  0.07515637  1
  N  N62  1  0.86383387  0.87614013  0.84842885  1
  N  N63  1  0.79944990  0.77465714  0.57467700  1
  N  N64  1  0.55256396  0.87508146  0.38887186  1
  N  N65  1  0.45556155  0.77685526  0.08047836  1
  N  N66  1  0.22448223  0.86942866  0.83289657  1
  N  N67  1  0.07999471  0.78033468  0.58196762  1
  N  N68  1  0.89042207  0.87139313  0.31669977  1
  N  N69  1  0.74293779  0.77182078  0.10791590  1
  N  N70  1  0.58889951  0.85228136  0.82935775  1
  N  N71  1  0.43396940  0.75801294  0.58035204  1
