# generated using pymatgen
data_Al31B5N36
_symmetry_space_group_name_H-M   'P 1'
_cell_length_a   9.18749556
_cell_length_b   9.24854806
_cell_length_c   10.15779037
_cell_angle_alpha   90.18155420
_cell_angle_beta   89.61057735
_cell_angle_gamma   59.79439304
_symmetry_Int_Tables_number   1
_chemical_formula_structural   Al31B5N36
_chemical_formula_sum   'Al31 B5 N36'
_cell_volume   745.88935234
_cell_formula_units_Z   1
loop_
 _symmetry_equiv_pos_site_id
 _symmetry_equiv_pos_as_xyz
  1  'x, y, z'
loop_
 _atom_site_type_symbol
 _atom_site_label
 _atom_site_symmetry_multiplicity
 _atom_site_fract_x
 _atom_site_fract_y
 _atom_site_fract_z
 _atom_site_occupancy
  Al  Al0  1  0.11846301  0.09246024  0.39769416  1
  Al  Al1  1  0.21914642  0.20199277  0.12581104  1
  Al  Al2  1  0.88652026  0.20157013  0.59308727  1
  Al  Al3  1  0.45615168  0.08475384  0.31109178  1
  Al  Al4  1  0.57521270  0.19825496  0.06026507  1
  Al  Al5  1  0.08972284  0.10134008  0.89034486  1
  Al  Al6  1  0.22114522  0.20112173  0.65075950  1
  Al  Al7  1  0.78251280  0.09551621  0.32038918  1
  Al  Al8  1  0.46887730  0.08008917  0.82850324  1
  Al  Al9  1  0.55749164  0.19690488  0.57070231  1
  Al  Al10  1  0.10807362  0.43360089  0.31776545  1
  Al  Al11  1  0.22763056  0.53469458  0.06461490  1
  Al  Al12  1  0.76856670  0.43864462  0.81359000  1
  Al  Al13  1  0.88848788  0.55039879  0.56866169  1
  Al  Al14  1  0.44386603  0.42314501  0.32057085  1
  Al  Al15  1  0.56312051  0.52945097  0.07506572  1
  Al  Al16  1  0.10062191  0.44044377  0.82524461  1
  Al  Al17  1  0.21111800  0.54836367  0.57333037  1
  Al  Al18  1  0.78430923  0.41747042  0.32643243  1
  Al  Al19  1  0.88242513  0.53724765  0.07286214  1
  Al  Al20  1  0.44836667  0.42751729  0.81506619  1
  Al  Al21  1  0.55511112  0.53835875  0.56766029  1
  Al  Al22  1  0.10803250  0.75714429  0.31262790  1
  Al  Al23  1  0.22027911  0.88318184  0.13390278  1
  Al  Al24  1  0.44145304  0.76327899  0.36070328  1
  Al  Al25  1  0.09214396  0.76120110  0.83775005  1
  Al  Al26  1  0.21878992  0.87485278  0.65233636  1
  Al  Al27  1  0.77029090  0.76089311  0.31816203  1
  Al  Al28  1  0.88563501  0.87080565  0.09225396  1
  Al  Al29  1  0.44419306  0.76608920  0.88816904  1
  Al  Al30  1  0.56230896  0.87357273  0.57314564  1
  B  B31  1  0.75684662  0.13512241  0.79922441  1
  B  B32  1  0.88746846  0.20622207  0.10683248  1
  B  B33  1  0.78015858  0.75855964  0.88174582  1
  B  B34  1  0.88139296  0.86897751  0.62833962  1
  B  B35  1  0.56538914  0.86719373  0.06970747  1
  N  N36  1  0.22171191  0.20089516  0.32024620  1
  N  N37  1  0.07712597  0.11266346  0.08047360  1
  N  N38  1  0.86808024  0.20249961  0.83202737  1
  N  N39  1  0.78248536  0.06998557  0.65128477  1
  N  N40  1  0.55658181  0.20152378  0.38192634  1
  N  N41  1  0.46947070  0.06664729  0.11442348  1
  N  N42  1  0.21918135  0.20290222  0.84709032  1
  N  N43  1  0.12166110  0.08853927  0.58460929  1
  N  N44  1  0.88219234  0.20499223  0.39699006  1
  N  N45  1  0.79590374  0.11245206  0.12641453  1
  N  N46  1  0.58570652  0.19732771  0.86919840  1
  N  N47  1  0.45242108  0.08879534  0.64122980  1
  N  N48  1  0.22002608  0.54143941  0.38470751  1
  N  N49  1  0.10604180  0.43688579  0.12589819  1
  N  N50  1  0.87009076  0.56125311  0.88340646  1
  N  N51  1  0.77568881  0.43753261  0.62818253  1
  N  N52  1  0.55643349  0.53409524  0.37540051  1
  N  N53  1  0.44812937  0.41885535  0.13123585  1
  N  N54  1  0.22880336  0.53228272  0.87951995  1
  N  N55  1  0.10665544  0.43290019  0.63552040  1
  N  N56  1  0.88711187  0.53797658  0.37921166  1
  N  N57  1  0.79514611  0.39614499  0.13134754  1
  N  N58  1  0.55491163  0.53498646  0.88706771  1
  N  N59  1  0.44380611  0.42691517  0.62821486  1
  N  N60  1  0.21837225  0.87981301  0.32396921  1
  N  N61  1  0.12091308  0.75300021  0.12051086  1
  N  N62  1  0.87728887  0.84144570  0.90373786  1
  N  N63  1  0.79198809  0.77908620  0.61155265  1
  N  N64  1  0.55295778  0.87640367  0.38522650  1
  N  N65  1  0.45455385  0.77603263  0.09146003  1
  N  N66  1  0.21586664  0.87574374  0.84335183  1
  N  N67  1  0.07489923  0.77706302  0.64136240  1
  N  N68  1  0.88372679  0.87217341  0.33005407  1
  N  N69  1  0.74629989  0.76376551  0.12975462  1
  N  N70  1  0.58700400  0.85950367  0.90014117  1
  N  N71  1  0.44352889  0.76153235  0.60657434  1
