# generated using pymatgen
data_Al31B5N36
_symmetry_space_group_name_H-M   'P 1'
_cell_length_a   9.16467311
_cell_length_b   9.16171004
_cell_length_c   10.31721664
_cell_angle_alpha   90.21133704
_cell_angle_beta   89.59800550
_cell_angle_gamma   60.11608256
_symmetry_Int_Tables_number   1
_chemical_formula_structural   Al31B5N36
_chemical_formula_sum   'Al31 B5 N36'
_cell_volume   751.04839387
_cell_formula_units_Z   1
loop_
 _symmetry_equiv_pos_site_id
 _symmetry_equiv_pos_as_xyz
  1  'x, y, z'
loop_
 _atom_site_type_symbol
 _atom_site_label
 _atom_site_symmetry_multiplicity
 _atom_site_fract_x
 _atom_site_fract_y
 _atom_site_fract_z
 _atom_site_occupancy
  Al  Al0  1  0.11764848  0.08949322  0.39923731  1
  Al  Al1  1  0.21158703  0.20810152  0.13641512  1
  Al  Al2  1  0.88972921  0.19093772  0.61421627  1
  Al  Al3  1  0.45666797  0.08224714  0.31595298  1
  Al  Al4  1  0.57289621  0.19481620  0.05936790  1
  Al  Al5  1  0.09423404  0.09479401  0.88896380  1
  Al  Al6  1  0.21138500  0.21315709  0.64674906  1
  Al  Al7  1  0.78030012  0.10488621  0.31622713  1
  Al  Al8  1  0.45855551  0.08768590  0.81522592  1
  Al  Al9  1  0.55831947  0.19693292  0.56547366  1
  Al  Al10  1  0.11152471  0.42196430  0.39021202  1
  Al  Al11  1  0.23077071  0.53864997  0.06456595  1
  Al  Al12  1  0.77822269  0.42282970  0.84218172  1
  Al  Al13  1  0.89147772  0.55590809  0.64441007  1
  Al  Al14  1  0.44733679  0.42561200  0.31706565  1
  Al  Al15  1  0.56653562  0.52908568  0.06689284  1
  Al  Al16  1  0.09762055  0.43294546  0.89531852  1
  Al  Al17  1  0.21709075  0.55066241  0.57006683  1
  Al  Al18  1  0.78652553  0.42493050  0.40117998  1
  Al  Al19  1  0.87920029  0.53805991  0.14481264  1
  Al  Al20  1  0.44839565  0.42167972  0.81616742  1
  Al  Al21  1  0.54947368  0.53520227  0.57725581  1
  Al  Al22  1  0.11243105  0.75610336  0.30845950  1
  Al  Al23  1  0.22653783  0.88257153  0.13453368  1
  Al  Al24  1  0.43572346  0.76526841  0.39613692  1
  Al  Al25  1  0.09127207  0.76277633  0.83115900  1
  Al  Al26  1  0.21733827  0.87711441  0.65234446  1
  Al  Al27  1  0.78472369  0.76434121  0.38606140  1
  Al  Al28  1  0.87936080  0.87401002  0.11770968  1
  Al  Al29  1  0.45180761  0.76868620  0.88522542  1
  Al  Al30  1  0.55654330  0.87761082  0.58841367  1
  B  B31  1  0.77091906  0.08111148  0.81033444  1
  B  B32  1  0.88749991  0.20894252  0.09706004  1
  B  B33  1  0.76827816  0.77851511  0.85305792  1
  B  B34  1  0.88545822  0.86992728  0.61798165  1
  B  B35  1  0.56249884  0.86709431  0.10134195  1
  N  N36  1  0.21916943  0.20530594  0.32170828  1
  N  N37  1  0.08133548  0.10845283  0.07744371  1
  N  N38  1  0.87666959  0.18466018  0.81860314  1
  N  N39  1  0.77946955  0.05996942  0.64376669  1
  N  N40  1  0.55681304  0.20354492  0.37926472  1
  N  N41  1  0.46627446  0.06312674  0.12168429  1
  N  N42  1  0.20929783  0.20970878  0.83458642  1
  N  N43  1  0.12168983  0.08770599  0.58361146  1
  N  N44  1  0.88647561  0.19844681  0.40074501  1
  N  N45  1  0.79350931  0.11534945  0.12451789  1
  N  N46  1  0.58110186  0.19141061  0.87178806  1
  N  N47  1  0.44109028  0.10155182  0.63226137  1
  N  N48  1  0.22533104  0.54557684  0.38287668  1
  N  N49  1  0.10400802  0.43029505  0.08067397  1
  N  N50  1  0.87601921  0.57520388  0.83098724  1
  N  N51  1  0.77829023  0.43545093  0.60912591  1
  N  N52  1  0.55677277  0.53231453  0.38519668  1
  N  N53  1  0.44939056  0.42076293  0.12971750  1
  N  N54  1  0.22659169  0.53755166  0.87859703  1
  N  N55  1  0.10676330  0.42620680  0.57755447  1
  N  N56  1  0.88958808  0.53722418  0.33205792  1
  N  N57  1  0.79927217  0.39438242  0.08617772  1
  N  N58  1  0.55313111  0.53579234  0.88001205  1
  N  N59  1  0.44160848  0.42325797  0.63284835  1
  N  N60  1  0.22667094  0.87699230  0.32089055  1
  N  N61  1  0.11756264  0.75701926  0.11847211  1
  N  N62  1  0.85650083  0.88274650  0.86519307  1
  N  N63  1  0.79993575  0.77467011  0.57797078  1
  N  N64  1  0.55352619  0.87728704  0.39353931  1
  N  N65  1  0.45786051  0.77994190  0.07831278  1
  N  N66  1  0.22381239  0.87071567  0.83702116  1
  N  N67  1  0.07617923  0.77562306  0.63602674  1
  N  N68  1  0.88358097  0.87486469  0.31603035  1
  N  N69  1  0.74437168  0.77018355  0.10498426  1
  N  N70  1  0.58671590  0.85491494  0.82869959  1
  N  N71  1  0.43181646  0.76362082  0.58721050  1
