# generated using pymatgen
data_Al31B5N36
_symmetry_space_group_name_H-M   'P 1'
_cell_length_a   9.17848150
_cell_length_b   9.17668624
_cell_length_c   9.98015144
_cell_angle_alpha   89.92391177
_cell_angle_beta   89.79613134
_cell_angle_gamma   60.11861165
_symmetry_Int_Tables_number   1
_chemical_formula_structural   Al31B5N36
_chemical_formula_sum   'Al31 B5 N36'
_cell_volume   728.85226788
_cell_formula_units_Z   1
loop_
 _symmetry_equiv_pos_site_id
 _symmetry_equiv_pos_as_xyz
  1  'x, y, z'
loop_
 _atom_site_type_symbol
 _atom_site_label
 _atom_site_symmetry_multiplicity
 _atom_site_fract_x
 _atom_site_fract_y
 _atom_site_fract_z
 _atom_site_occupancy
  Al  Al0  1  0.11087953  0.09675996  0.40067821  1
  Al  Al1  1  0.21405110  0.20567693  0.14699161  1
  Al  Al2  1  0.88635686  0.19088475  0.65052820  1
  Al  Al3  1  0.44609983  0.08876617  0.36713779  1
  Al  Al4  1  0.57018915  0.19897522  0.09230395  1
  Al  Al5  1  0.09543324  0.09111044  0.90644049  1
  Al  Al6  1  0.22147237  0.20387407  0.65414806  1
  Al  Al7  1  0.78337210  0.09500341  0.33484535  1
  Al  Al8  1  0.44847777  0.08316783  0.90301222  1
  Al  Al9  1  0.56576205  0.19093617  0.57419117  1
  Al  Al10  1  0.10958593  0.42799275  0.40133911  1
  Al  Al11  1  0.22129332  0.54014650  0.15224170  1
  Al  Al12  1  0.77685701  0.41778008  0.90499451  1
  Al  Al13  1  0.88695781  0.54853782  0.65717577  1
  Al  Al14  1  0.44132540  0.43615260  0.39911020  1
  Al  Al15  1  0.56132645  0.53615516  0.15176697  1
  Al  Al16  1  0.10179638  0.43536746  0.90245523  1
  Al  Al17  1  0.21618147  0.54114457  0.64963812  1
  Al  Al18  1  0.78132783  0.42668470  0.40103764  1
  Al  Al19  1  0.88142403  0.54056684  0.14702542  1
  Al  Al20  1  0.44400947  0.42868021  0.89731761  1
  Al  Al21  1  0.55763203  0.53806484  0.65258173  1
  Al  Al22  1  0.10567614  0.76459623  0.39593864  1
  Al  Al23  1  0.21997570  0.87724690  0.15253290  1
  Al  Al24  1  0.44848742  0.76283069  0.39699312  1
  Al  Al25  1  0.09864821  0.76640314  0.89986128  1
  Al  Al26  1  0.21949733  0.87345607  0.64989213  1
  Al  Al27  1  0.77888088  0.76392502  0.38994685  1
  Al  Al28  1  0.88485613  0.87621302  0.12738151  1
  Al  Al29  1  0.45072423  0.76061206  0.90513312  1
  Al  Al30  1  0.56816691  0.87285658  0.65531815  1
  B  B31  1  0.77069432  0.07998955  0.87256206  1
  B  B32  1  0.89027173  0.20922307  0.15857144  1
  B  B33  1  0.75712792  0.78163417  0.91615658  1
  B  B34  1  0.88834428  0.87407410  0.59903906  1
  B  B35  1  0.55595644  0.86675042  0.14626898  1
  N  N36  1  0.22016401  0.20792111  0.33590053  1
  N  N37  1  0.08310788  0.10659426  0.09728640  1
  N  N38  1  0.86909196  0.18029701  0.84297014  1
  N  N39  1  0.79825761  0.05771529  0.59010057  1
  N  N40  1  0.55777127  0.20624814  0.37608400  1
  N  N41  1  0.45308780  0.06980864  0.10132116  1
  N  N42  1  0.21520722  0.20415301  0.84807233  1
  N  N43  1  0.10815065  0.09531010  0.59093060  1
  N  N44  1  0.89811803  0.21375331  0.32505063  1
  N  N45  1  0.78985102  0.11210032  0.13889245  1
  N  N46  1  0.58188382  0.18793710  0.88805788  1
  N  N47  1  0.44100005  0.08854718  0.59414265  1
  N  N48  1  0.22127406  0.54024426  0.34216511  1
  N  N49  1  0.10818562  0.43127275  0.09074136  1
  N  N50  1  0.87242730  0.56279996  0.85099534  1
  N  N51  1  0.78217696  0.42251315  0.59436351  1
  N  N52  1  0.55853536  0.53935743  0.34049331  1
  N  N53  1  0.44136009  0.43275819  0.08991808  1
  N  N54  1  0.21881766  0.54022195  0.83822002  1
  N  N55  1  0.10815385  0.42680762  0.59239631  1
  N  N56  1  0.88819006  0.54078390  0.33810635  1
  N  N57  1  0.79077758  0.40150561  0.09638562  1
  N  N58  1  0.55623668  0.53886673  0.84253390  1
  N  N59  1  0.44316038  0.43022735  0.59254595  1
  N  N60  1  0.22357109  0.87253023  0.34305242  1
  N  N61  1  0.11669464  0.75924634  0.08837882  1
  N  N62  1  0.85574444  0.89132180  0.88765064  1
  N  N63  1  0.79288523  0.77463914  0.58503753  1
  N  N64  1  0.56173808  0.86490996  0.31261999  1
  N  N65  1  0.45481031  0.77268975  0.09681441  1
  N  N66  1  0.22354816  0.86972449  0.84132161  1
  N  N67  1  0.08380456  0.77388818  0.59197507  1
  N  N68  1  0.89379025  0.86304121  0.32356222  1
  N  N69  1  0.74696711  0.77219058  0.07995565  1
  N  N70  1  0.57966848  0.85955313  0.84652793  1
  N  N71  1  0.45021400  0.76193823  0.59025021  1
