# generated using pymatgen
data_Al31B5N36
_symmetry_space_group_name_H-M   'P 1'
_cell_length_a   9.15717213
_cell_length_b   9.13979373
_cell_length_c   10.29923082
_cell_angle_alpha   90.13427192
_cell_angle_beta   89.55764548
_cell_angle_gamma   60.11794127
_symmetry_Int_Tables_number   1
_chemical_formula_structural   Al31B5N36
_chemical_formula_sum   'Al31 B5 N36'
_cell_volume   747.35009979
_cell_formula_units_Z   1
loop_
 _symmetry_equiv_pos_site_id
 _symmetry_equiv_pos_as_xyz
  1  'x, y, z'
loop_
 _atom_site_type_symbol
 _atom_site_label
 _atom_site_symmetry_multiplicity
 _atom_site_fract_x
 _atom_site_fract_y
 _atom_site_fract_z
 _atom_site_occupancy
  Al  Al0  1  0.11509120  0.09014467  0.39928122  1
  Al  Al1  1  0.21206932  0.20761785  0.13691180  1
  Al  Al2  1  0.88734432  0.19864908  0.61743558  1
  Al  Al3  1  0.45699198  0.07938181  0.31621124  1
  Al  Al4  1  0.57147418  0.19513233  0.05693013  1
  Al  Al5  1  0.09708025  0.09736236  0.88543858  1
  Al  Al6  1  0.21367200  0.21259375  0.64528636  1
  Al  Al7  1  0.78074202  0.10434088  0.31467233  1
  Al  Al8  1  0.46147931  0.08414189  0.81343686  1
  Al  Al9  1  0.56111409  0.19783465  0.56642230  1
  Al  Al10  1  0.10920715  0.42054432  0.39187495  1
  Al  Al11  1  0.23247916  0.53389698  0.06547755  1
  Al  Al12  1  0.77664124  0.42211530  0.88314655  1
  Al  Al13  1  0.88971439  0.55534108  0.64491675  1
  Al  Al14  1  0.44394204  0.41959068  0.31630361  1
  Al  Al15  1  0.56603705  0.53852042  0.13758338  1
  Al  Al16  1  0.09889433  0.43298763  0.89221744  1
  Al  Al17  1  0.21934735  0.55158944  0.56967244  1
  Al  Al18  1  0.77533264  0.43054642  0.40225542  1
  Al  Al19  1  0.88192842  0.53799080  0.14442361  1
  Al  Al20  1  0.44602303  0.41679978  0.81551761  1
  Al  Al21  1  0.55677221  0.54604218  0.64784019  1
  Al  Al22  1  0.10991906  0.75828189  0.31584164  1
  Al  Al23  1  0.22282603  0.88465550  0.13305778  1
  Al  Al24  1  0.43822258  0.75529469  0.39373215  1
  Al  Al25  1  0.09509646  0.76936316  0.86918145  1
  Al  Al26  1  0.21369016  0.87462144  0.65056320  1
  Al  Al27  1  0.78545592  0.76111137  0.38482218  1
  Al  Al28  1  0.87555268  0.87498736  0.11576947  1
  Al  Al29  1  0.45582918  0.76290200  0.88946936  1
  Al  Al30  1  0.55578022  0.87636843  0.58175458  1
  B  B31  1  0.77271855  0.08077364  0.80904442  1
  B  B32  1  0.88630223  0.20748475  0.09355345  1
  B  B33  1  0.76986596  0.77648862  0.85394623  1
  B  B34  1  0.88991766  0.86921961  0.61441895  1
  B  B35  1  0.56143669  0.86630982  0.10049075  1
  N  N36  1  0.22010217  0.20375315  0.32197484  1
  N  N37  1  0.07869070  0.11165182  0.07612871  1
  N  N38  1  0.87597602  0.19081831  0.82152236  1
  N  N39  1  0.78200726  0.06115840  0.64627228  1
  N  N40  1  0.55876614  0.20015182  0.37956896  1
  N  N41  1  0.46565617  0.06144607  0.12087577  1
  N  N42  1  0.21389262  0.20933140  0.83356187  1
  N  N43  1  0.12038565  0.08903411  0.58424972  1
  N  N44  1  0.88503322  0.20093211  0.39445473  1
  N  N45  1  0.79179593  0.11695678  0.12251298  1
  N  N46  1  0.58225807  0.19001720  0.87099260  1
  N  N47  1  0.44378217  0.09900178  0.63023429  1
  N  N48  1  0.22511129  0.54317739  0.37992802  1
  N  N49  1  0.10330723  0.42882141  0.07914317  1
  N  N50  1  0.87531454  0.57267802  0.83348469  1
  N  N51  1  0.77574288  0.44200308  0.58906815  1
  N  N52  1  0.56214874  0.53833711  0.32371576  1
  N  N53  1  0.44741009  0.41601809  0.12776506  1
  N  N54  1  0.22845532  0.53615953  0.87960163  1
  N  N55  1  0.10740526  0.42724005  0.57874217  1
  N  N56  1  0.88998523  0.53450402  0.32958060  1
  N  N57  1  0.79250426  0.39929220  0.07439733  1
  N  N58  1  0.55554217  0.54108160  0.83455225  1
  N  N59  1  0.44374753  0.42316292  0.62939458  1
  N  N60  1  0.22493168  0.87631898  0.31882584  1
  N  N61  1  0.11351514  0.76185906  0.09955758  1
  N  N62  1  0.85757902  0.88271033  0.86775526  1
  N  N63  1  0.79940211  0.77552568  0.57618899  1
  N  N64  1  0.55346203  0.87251854  0.39059134  1
  N  N65  1  0.45702262  0.77603811  0.07886717  1
  N  N66  1  0.22618687  0.87179530  0.83753259  1
  N  N67  1  0.07614578  0.77917708  0.62010682  1
  N  N68  1  0.88280610  0.87287958  0.31036183  1
  N  N69  1  0.74281471  0.76868289  0.10454470  1
  N  N70  1  0.58786033  0.85355785  0.83280728  1
  N  N71  1  0.43134168  0.75766484  0.58054341  1
