# generated using pymatgen
data_Al31B5N36
_symmetry_space_group_name_H-M   'P 1'
_cell_length_a   9.17579267
_cell_length_b   9.21587151
_cell_length_c   9.93900479
_cell_angle_alpha   89.41618937
_cell_angle_beta   89.83891559
_cell_angle_gamma   60.23792983
_symmetry_Int_Tables_number   1
_chemical_formula_structural   Al31B5N36
_chemical_formula_sum   'Al31 B5 N36'
_cell_volume   729.56801812
_cell_formula_units_Z   1
loop_
 _symmetry_equiv_pos_site_id
 _symmetry_equiv_pos_as_xyz
  1  'x, y, z'
loop_
 _atom_site_type_symbol
 _atom_site_label
 _atom_site_symmetry_multiplicity
 _atom_site_fract_x
 _atom_site_fract_y
 _atom_site_fract_z
 _atom_site_occupancy
  Al  Al0  1  0.11022513  0.09631854  0.39983726  1
  Al  Al1  1  0.21524780  0.20465832  0.14949124  1
  Al  Al2  1  0.88789623  0.19000056  0.64819018  1
  Al  Al3  1  0.44361322  0.08751357  0.38894126  1
  Al  Al4  1  0.55840435  0.20595463  0.14038186  1
  Al  Al5  1  0.09781951  0.09116378  0.90437803  1
  Al  Al6  1  0.22473933  0.20071349  0.65169295  1
  Al  Al7  1  0.78629684  0.09274414  0.34542046  1
  Al  Al8  1  0.45065497  0.08994365  0.90689363  1
  Al  Al9  1  0.56715223  0.19317772  0.59507431  1
  Al  Al10  1  0.10881380  0.42779484  0.39755073  1
  Al  Al11  1  0.21916827  0.54142236  0.15023025  1
  Al  Al12  1  0.77914448  0.40940517  0.90284320  1
  Al  Al13  1  0.89229447  0.53546924  0.65504372  1
  Al  Al14  1  0.44094864  0.43481420  0.39769456  1
  Al  Al15  1  0.56014045  0.53840190  0.14986212  1
  Al  Al16  1  0.10714364  0.42426724  0.89885776  1
  Al  Al17  1  0.21552660  0.53962358  0.64934872  1
  Al  Al18  1  0.78007805  0.42723163  0.39639915  1
  Al  Al19  1  0.88118479  0.54146106  0.13953713  1
  Al  Al20  1  0.44561627  0.42557234  0.89901872  1
  Al  Al21  1  0.55930282  0.53640424  0.65269243  1
  Al  Al22  1  0.10711152  0.76281356  0.39477149  1
  Al  Al23  1  0.21916445  0.87903660  0.15153713  1
  Al  Al24  1  0.44826561  0.76221425  0.39662480  1
  Al  Al25  1  0.09705975  0.76580392  0.90033867  1
  Al  Al26  1  0.22067104  0.87166990  0.65074605  1
  Al  Al27  1  0.77874010  0.76241683  0.38814452  1
  Al  Al28  1  0.88464933  0.88287324  0.13002013  1
  Al  Al29  1  0.45283196  0.76129550  0.90534076  1
  Al  Al30  1  0.57351495  0.86957328  0.65570477  1
  B  B31  1  0.76537327  0.08943157  0.87055013  1
  B  B32  1  0.88745151  0.21077855  0.15862717  1
  B  B33  1  0.73752222  0.82557017  0.92969631  1
  B  B34  1  0.89049653  0.86994858  0.59572550  1
  B  B35  1  0.55035042  0.87430009  0.15033586  1
  N  N36  1  0.22119558  0.20663258  0.33836554  1
  N  N37  1  0.08287113  0.10821950  0.09647598  1
  N  N38  1  0.86947950  0.17782855  0.84088935  1
  N  N39  1  0.79982941  0.05605779  0.58101957  1
  N  N40  1  0.55236420  0.20874450  0.35590251  1
  N  N41  1  0.45241545  0.07234860  0.10074883  1
  N  N42  1  0.22716546  0.19457698  0.84454076  1
  N  N43  1  0.11021508  0.09284308  0.59086369  1
  N  N44  1  0.89737948  0.21408584  0.32483234  1
  N  N45  1  0.78759785  0.11522923  0.13862510  1
  N  N46  1  0.57847779  0.19286557  0.86412512  1
  N  N47  1  0.44567855  0.08439041  0.58444464  1
  N  N48  1  0.22024453  0.54108261  0.34078025  1
  N  N49  1  0.10988796  0.42901956  0.08928935  1
  N  N50  1  0.89158186  0.51602754  0.83978123  1
  N  N51  1  0.78050896  0.41883605  0.58809340  1
  N  N52  1  0.55590441  0.54115627  0.33927697  1
  N  N53  1  0.44081318  0.43203977  0.09109025  1
  N  N54  1  0.21730302  0.54024622  0.83866497  1
  N  N55  1  0.11278147  0.42255414  0.58797646  1
  N  N56  1  0.88668973  0.54231944  0.33302370  1
  N  N57  1  0.78842030  0.40286663  0.09609652  1
  N  N58  1  0.55511923  0.54014678  0.84358477  1
  N  N59  1  0.44363951  0.42880436  0.59062642  1
  N  N60  1  0.22276631  0.87314441  0.34318532  1
  N  N61  1  0.11524935  0.76099527  0.08902279  1
  N  N62  1  0.84908043  0.90085917  0.89203891  1
  N  N63  1  0.79664456  0.76967921  0.58541011  1
  N  N64  1  0.55800726  0.87019460  0.31586600  1
  N  N65  1  0.45406649  0.77618700  0.09769951  1
  N  N66  1  0.22326288  0.86879555  0.84226152  1
  N  N67  1  0.08474648  0.77260758  0.59192974  1
  N  N68  1  0.89368303  0.86346912  0.32512855  1
  N  N69  1  0.74398680  0.78212750  0.08126097  1
  N  N70  1  0.58175003  0.86538942  0.84900425  1
  N  N71  1  0.45205155  0.76145885  0.59201996  1
