# generated using pymatgen
data_Al31B5N36
_symmetry_space_group_name_H-M   'P 1'
_cell_length_a   9.16682377
_cell_length_b   9.14533206
_cell_length_c   10.23100379
_cell_angle_alpha   90.10400356
_cell_angle_beta   89.44950572
_cell_angle_gamma   60.04175696
_symmetry_Int_Tables_number   1
_chemical_formula_structural   Al31B5N36
_chemical_formula_sum   'Al31 B5 N36'
_cell_volume   743.04843655
_cell_formula_units_Z   1
loop_
 _symmetry_equiv_pos_site_id
 _symmetry_equiv_pos_as_xyz
  1  'x, y, z'
loop_
 _atom_site_type_symbol
 _atom_site_label
 _atom_site_symmetry_multiplicity
 _atom_site_fract_x
 _atom_site_fract_y
 _atom_site_fract_z
 _atom_site_occupancy
  Al  Al0  1  0.11602527  0.09364404  0.39748626  1
  Al  Al1  1  0.21293682  0.20559970  0.13322647  1
  Al  Al2  1  0.88708092  0.20002483  0.61429120  1
  Al  Al3  1  0.45574063  0.08142460  0.31478614  1
  Al  Al4  1  0.57294277  0.19375870  0.05646410  1
  Al  Al5  1  0.09673389  0.09515287  0.88426588  1
  Al  Al6  1  0.21379112  0.21228320  0.64577276  1
  Al  Al7  1  0.78164912  0.10485915  0.31628080  1
  Al  Al8  1  0.46131748  0.08342495  0.81416742  1
  Al  Al9  1  0.56052288  0.19838004  0.56420282  1
  Al  Al10  1  0.11278647  0.42472697  0.39077005  1
  Al  Al11  1  0.21629539  0.54180164  0.13379023  1
  Al  Al12  1  0.77847091  0.42080295  0.88176142  1
  Al  Al13  1  0.88794737  0.55423999  0.64337968  1
  Al  Al14  1  0.44826899  0.41978878  0.31756796  1
  Al  Al15  1  0.56566247  0.53826026  0.13396450  1
  Al  Al16  1  0.10243909  0.43719262  0.89087361  1
  Al  Al17  1  0.21342981  0.54595566  0.63517875  1
  Al  Al18  1  0.77614284  0.43152178  0.40065221  1
  Al  Al19  1  0.88141623  0.53738810  0.14278121  1
  Al  Al20  1  0.45132186  0.41370195  0.81897446  1
  Al  Al21  1  0.55730163  0.54620765  0.64745962  1
  Al  Al22  1  0.10278462  0.76933336  0.38972581  1
  Al  Al23  1  0.21661670  0.87882700  0.13877161  1
  Al  Al24  1  0.43949662  0.75620020  0.39226444  1
  Al  Al25  1  0.09750025  0.76633327  0.88725978  1
  Al  Al26  1  0.21458895  0.87543692  0.64694931  1
  Al  Al27  1  0.78409020  0.76117914  0.38116783  1
  Al  Al28  1  0.88320356  0.87037905  0.12992623  1
  Al  Al29  1  0.45335253  0.76415902  0.88921498  1
  Al  Al30  1  0.55570488  0.87667799  0.58284196  1
  B  B31  1  0.77471456  0.07715592  0.80253569  1
  B  B32  1  0.88760739  0.20504796  0.09450196  1
  B  B33  1  0.77151458  0.77494236  0.84598430  1
  B  B34  1  0.88595051  0.87094910  0.61154523  1
  B  B35  1  0.56116206  0.86765077  0.10123423  1
  N  N36  1  0.21975061  0.20578270  0.32033021  1
  N  N37  1  0.07930818  0.10838838  0.07767724  1
  N  N38  1  0.87612597  0.18973318  0.81870714  1
  N  N39  1  0.78237790  0.06251124  0.64005041  1
  N  N40  1  0.55891489  0.20026442  0.37761850  1
  N  N41  1  0.46525032  0.06229772  0.11912396  1
  N  N42  1  0.21377653  0.20879808  0.83572907  1
  N  N43  1  0.12047886  0.09093507  0.58331566  1
  N  N44  1  0.88582138  0.20199489  0.39437469  1
  N  N45  1  0.79339838  0.11378737  0.12375851  1
  N  N46  1  0.58527934  0.18578432  0.86989129  1
  N  N47  1  0.44343171  0.10022572  0.62963649  1
  N  N48  1  0.21688662  0.54440544  0.33365304  1
  N  N49  1  0.10537158  0.43080401  0.07627510  1
  N  N50  1  0.87473614  0.57055916  0.83265980  1
  N  N51  1  0.77572724  0.44256766  0.58803106  1
  N  N52  1  0.56339979  0.53919011  0.32241525  1
  N  N53  1  0.44905352  0.41659511  0.12113098  1
  N  N54  1  0.21577203  0.54218250  0.82645841  1
  N  N55  1  0.10896544  0.42884760  0.57755831  1
  N  N56  1  0.89119492  0.53388195  0.32911114  1
  N  N57  1  0.79442817  0.39708360  0.07405528  1
  N  N58  1  0.55564506  0.54104027  0.83649172  1
  N  N59  1  0.45098157  0.42023789  0.62614141  1
  N  N60  1  0.22088017  0.87386468  0.32519061  1
  N  N61  1  0.11052492  0.76208224  0.07342587  1
  N  N62  1  0.86284232  0.87622626  0.84549614  1
  N  N63  1  0.79893604  0.77484136  0.57536164  1
  N  N64  1  0.55292306  0.87450418  0.38940131  1
  N  N65  1  0.45518631  0.77791008  0.08049469  1
  N  N66  1  0.22388015  0.86989141  0.83268240  1
  N  N67  1  0.07901642  0.78183022  0.58326521  1
  N  N68  1  0.89073655  0.87158983  0.31771723  1
  N  N69  1  0.74364270  0.77149593  0.10847492  1
  N  N70  1  0.58778642  0.85216649  0.83057015  1
  N  N71  1  0.43313696  0.75776952  0.58002484  1
