# generated using pymatgen
data_Al31B5N36
_symmetry_space_group_name_H-M   'P 1'
_cell_length_a   9.13617147
_cell_length_b   9.11065388
_cell_length_c   10.27203577
_cell_angle_alpha   90.12782429
_cell_angle_beta   89.51210166
_cell_angle_gamma   60.17204622
_symmetry_Int_Tables_number   1
_chemical_formula_structural   Al31B5N36
_chemical_formula_sum   'Al31 B5 N36'
_cell_volume   741.69173642
_cell_formula_units_Z   1
loop_
 _symmetry_equiv_pos_site_id
 _symmetry_equiv_pos_as_xyz
  1  'x, y, z'
loop_
 _atom_site_type_symbol
 _atom_site_label
 _atom_site_symmetry_multiplicity
 _atom_site_fract_x
 _atom_site_fract_y
 _atom_site_fract_z
 _atom_site_occupancy
  Al  Al0  1  0.11203955  0.09644660  0.40142583  1
  Al  Al1  1  0.20926529  0.20609257  0.14670886  1
  Al  Al2  1  0.88632770  0.19280431  0.64604587  1
  Al  Al3  1  0.45408806  0.08371905  0.32348368  1
  Al  Al4  1  0.57041882  0.18831374  0.07743140  1
  Al  Al5  1  0.09829616  0.09211480  0.90210249  1
  Al  Al6  1  0.21196130  0.21154434  0.65368392  1
  Al  Al7  1  0.78007875  0.10250815  0.32782384  1
  Al  Al8  1  0.45981637  0.08709694  0.82488702  1
  Al  Al9  1  0.56547994  0.19019008  0.56785615  1
  Al  Al10  1  0.11179829  0.42616253  0.40051372  1
  Al  Al11  1  0.22097329  0.53839777  0.15205073  1
  Al  Al12  1  0.77708185  0.42185512  0.89954358  1
  Al  Al13  1  0.88762597  0.55103957  0.65211236  1
  Al  Al14  1  0.44085556  0.43552975  0.39790057  1
  Al  Al15  1  0.56139305  0.53392651  0.14948577  1
  Al  Al16  1  0.10284288  0.43761234  0.90313220  1
  Al  Al17  1  0.21806278  0.54165301  0.64850696  1
  Al  Al18  1  0.77920810  0.42823963  0.40476537  1
  Al  Al19  1  0.87944361  0.53837137  0.15430275  1
  Al  Al20  1  0.44445750  0.42949246  0.89901028  1
  Al  Al21  1  0.55473029  0.53753031  0.65498839  1
  Al  Al22  1  0.10569836  0.76683433  0.39737706  1
  Al  Al23  1  0.21791981  0.87716298  0.14982396  1
  Al  Al24  1  0.44039367  0.75923120  0.40365194  1
  Al  Al25  1  0.09968112  0.76534664  0.90021021  1
  Al  Al26  1  0.21512069  0.87367017  0.65378573  1
  Al  Al27  1  0.78337116  0.76294796  0.39177094  1
  Al  Al28  1  0.88358226  0.86968711  0.14004195  1
  Al  Al29  1  0.45429721  0.76337414  0.89753534  1
  Al  Al30  1  0.55808319  0.87667491  0.59403725  1
  B  B31  1  0.77427542  0.07828581  0.86132737  1
  B  B32  1  0.88746823  0.20643268  0.13358185  1
  B  B33  1  0.76896338  0.77805036  0.86086633  1
  B  B34  1  0.88889779  0.87391527  0.60037250  1
  B  B35  1  0.55957874  0.86552998  0.11145735  1
  N  N36  1  0.22056364  0.20748216  0.33223007  1
  N  N37  1  0.08008478  0.10624266  0.09032845  1
  N  N38  1  0.87211147  0.18071705  0.83810862  1
  N  N39  1  0.79537408  0.05843097  0.59927637  1
  N  N40  1  0.55626078  0.20240126  0.38041654  1
  N  N41  1  0.46073415  0.06083114  0.13057711  1
  N  N42  1  0.20930756  0.20991558  0.84412032  1
  N  N43  1  0.11165607  0.09351587  0.58884235  1
  N  N44  1  0.89641261  0.21351131  0.34012492  1
  N  N45  1  0.78867199  0.11044020  0.13467206  1
  N  N46  1  0.58543692  0.18537884  0.88759407  1
  N  N47  1  0.44392009  0.10167045  0.64223496  1
  N  N48  1  0.22100457  0.54127894  0.33802296  1
  N  N49  1  0.10538926  0.43131240  0.08820620  1
  N  N50  1  0.87472887  0.57246426  0.84305263  1
  N  N51  1  0.77933580  0.42786289  0.59541357  1
  N  N52  1  0.55835965  0.53962754  0.33456496  1
  N  N53  1  0.44177504  0.42798074  0.08640231  1
  N  N54  1  0.22223951  0.53883288  0.83493216  1
  N  N55  1  0.10920266  0.42859716  0.58726907  1
  N  N56  1  0.89001487  0.53801182  0.33998727  1
  N  N57  1  0.79134929  0.39879291  0.08846476  1
  N  N58  1  0.55708225  0.53775742  0.84049798  1
  N  N59  1  0.44342901  0.43055649  0.58667308  1
  N  N60  1  0.22323355  0.87295186  0.33572926  1
  N  N61  1  0.11230864  0.75866828  0.08523709  1
  N  N62  1  0.85880524  0.88514833  0.86930363  1
  N  N63  1  0.80042024  0.77156553  0.58496686  1
  N  N64  1  0.55235950  0.87833812  0.40087357  1
  N  N65  1  0.45563475  0.77401193  0.08941532  1
  N  N66  1  0.22401180  0.86965115  0.84086454  1
  N  N67  1  0.08560952  0.77426630  0.58929832  1
  N  N68  1  0.89391186  0.86846609  0.32685886  1
  N  N69  1  0.74230718  0.77203337  0.11786978  1
  N  N70  1  0.58687112  0.85499879  0.84267211  1
  N  N71  1  0.43748373  0.75643662  0.59209481  1
