# generated using pymatgen
data_Al31B5N36
_symmetry_space_group_name_H-M   'P 1'
_cell_length_a   9.15202168
_cell_length_b   9.13877410
_cell_length_c   10.31176991
_cell_angle_alpha   90.15301200
_cell_angle_beta   89.51289722
_cell_angle_gamma   60.10252879
_symmetry_Int_Tables_number   1
_chemical_formula_structural   Al31B5N36
_chemical_formula_sum   'Al31 B5 N36'
_cell_volume   747.63066721
_cell_formula_units_Z   1
loop_
 _symmetry_equiv_pos_site_id
 _symmetry_equiv_pos_as_xyz
  1  'x, y, z'
loop_
 _atom_site_type_symbol
 _atom_site_label
 _atom_site_symmetry_multiplicity
 _atom_site_fract_x
 _atom_site_fract_y
 _atom_site_fract_z
 _atom_site_occupancy
  Al  Al0  1  0.11559132  0.09212398  0.39936511  1
  Al  Al1  1  0.21213603  0.20677543  0.13615157  1
  Al  Al2  1  0.88759610  0.19938166  0.61819681  1
  Al  Al3  1  0.45677231  0.08014132  0.31554871  1
  Al  Al4  1  0.57208855  0.19421010  0.05659350  1
  Al  Al5  1  0.09740602  0.09622435  0.88504780  1
  Al  Al6  1  0.21380424  0.21233237  0.64612409  1
  Al  Al7  1  0.78019085  0.10536547  0.31428274  1
  Al  Al8  1  0.46175506  0.08390183  0.81347633  1
  Al  Al9  1  0.56151789  0.19768186  0.56568901  1
  Al  Al10  1  0.10926478  0.42061056  0.39157669  1
  Al  Al11  1  0.23144715  0.53456156  0.06615435  1
  Al  Al12  1  0.77680711  0.42192848  0.88303314  1
  Al  Al13  1  0.88910048  0.55524578  0.64500498  1
  Al  Al14  1  0.44325449  0.42040974  0.31519055  1
  Al  Al15  1  0.56572068  0.53884945  0.13702840  1
  Al  Al16  1  0.09918187  0.43307436  0.89168945  1
  Al  Al17  1  0.22320596  0.54521149  0.57071221  1
  Al  Al18  1  0.77524079  0.43018421  0.40209957  1
  Al  Al19  1  0.88196673  0.53768781  0.14418452  1
  Al  Al20  1  0.44645462  0.41626459  0.81610825  1
  Al  Al21  1  0.55688094  0.54629308  0.64829707  1
  Al  Al22  1  0.10234357  0.77090949  0.36889415  1
  Al  Al23  1  0.21829833  0.88148711  0.13640764  1
  Al  Al24  1  0.43944433  0.75485988  0.39319826  1
  Al  Al25  1  0.09581647  0.77190613  0.88831191  1
  Al  Al26  1  0.21326431  0.87458671  0.64862250  1
  Al  Al27  1  0.78425243  0.76058378  0.38302284  1
  Al  Al28  1  0.88048379  0.87167444  0.12346671  1
  Al  Al29  1  0.45459085  0.76343971  0.88922085  1
  Al  Al30  1  0.55528154  0.87659861  0.58184571  1
  B  B31  1  0.77372562  0.07840779  0.80704093  1
  B  B32  1  0.88670182  0.20666798  0.09388187  1
  B  B33  1  0.77097365  0.77669537  0.85045262  1
  B  B34  1  0.88808202  0.87098921  0.60970804  1
  B  B35  1  0.56103342  0.86681830  0.10076343  1
  N  N36  1  0.22016178  0.20403463  0.32136803  1
  N  N37  1  0.07893449  0.11045294  0.07666582  1
  N  N38  1  0.87625630  0.19057545  0.82065222  1
  N  N39  1  0.78257895  0.06165242  0.64392105  1
  N  N40  1  0.55867816  0.20052165  0.37907466  1
  N  N41  1  0.46539535  0.06181817  0.12081525  1
  N  N42  1  0.21416240  0.20849798  0.83390493  1
  N  N43  1  0.12051535  0.08993574  0.58388628  1
  N  N44  1  0.88572575  0.20054688  0.39367417  1
  N  N45  1  0.79195699  0.11579121  0.12324732  1
  N  N46  1  0.58346475  0.18870055  0.87075342  1
  N  N47  1  0.44402055  0.09930759  0.63020027  1
  N  N48  1  0.22696199  0.54017471  0.38089328  1
  N  N49  1  0.10323643  0.42863014  0.07897277  1
  N  N50  1  0.87525036  0.57201907  0.83289501  1
  N  N51  1  0.77557336  0.44203313  0.58856503  1
  N  N52  1  0.56251391  0.53820563  0.32311546  1
  N  N53  1  0.44707177  0.41637187  0.12724375  1
  N  N54  1  0.22844592  0.53536654  0.87737444  1
  N  N55  1  0.10686609  0.42686391  0.57939048  1
  N  N56  1  0.88997827  0.53397344  0.32941536  1
  N  N57  1  0.79255542  0.39870359  0.07414794  1
  N  N58  1  0.55556327  0.54116283  0.83461658  1
  N  N59  1  0.44551197  0.42200448  0.63002414  1
  N  N60  1  0.22318291  0.87524560  0.32138722  1
  N  N61  1  0.10985188  0.76708670  0.07879120  1
  N  N62  1  0.86013409  0.88019438  0.85740513  1
  N  N63  1  0.79893578  0.77548397  0.57528524  1
  N  N64  1  0.55284979  0.87356911  0.39033118  1
  N  N65  1  0.45533052  0.77690317  0.07942925  1
  N  N66  1  0.22470158  0.87083705  0.83349484  1
  N  N67  1  0.07664595  0.78409430  0.59010616  1
  N  N68  1  0.88664622  0.87135507  0.31218819  1
  N  N69  1  0.74306240  0.76984225  0.10648752  1
  N  N70  1  0.58783184  0.85321001  0.83246170  1
  N  N71  1  0.43185115  0.75723307  0.57972924  1
