# generated using pymatgen
data_Al31B5N36
_symmetry_space_group_name_H-M   'P 1'
_cell_length_a   9.16485825
_cell_length_b   9.14143997
_cell_length_c   10.12050595
_cell_angle_alpha   90.21418041
_cell_angle_beta   89.80185376
_cell_angle_gamma   60.13263337
_symmetry_Int_Tables_number   1
_chemical_formula_structural   Al31B5N36
_chemical_formula_sum   'Al31 B5 N36'
_cell_volume   735.25993037
_cell_formula_units_Z   1
loop_
 _symmetry_equiv_pos_site_id
 _symmetry_equiv_pos_as_xyz
  1  'x, y, z'
loop_
 _atom_site_type_symbol
 _atom_site_label
 _atom_site_symmetry_multiplicity
 _atom_site_fract_x
 _atom_site_fract_y
 _atom_site_fract_z
 _atom_site_occupancy
  Al  Al0  1  0.11198152  0.09654987  0.39937445  1
  Al  Al1  1  0.21005841  0.20752372  0.14674167  1
  Al  Al2  1  0.88538984  0.19146673  0.65045788  1
  Al  Al3  1  0.45430761  0.08246374  0.32496329  1
  Al  Al4  1  0.57089090  0.19354257  0.08260798  1
  Al  Al5  1  0.09551259  0.09261913  0.90808733  1
  Al  Al6  1  0.21224442  0.20904903  0.65460226  1
  Al  Al7  1  0.77988664  0.09675228  0.33319242  1
  Al  Al8  1  0.45434862  0.09195363  0.83486396  1
  Al  Al9  1  0.56421871  0.18693434  0.57106478  1
  Al  Al10  1  0.11052195  0.42714937  0.40081299  1
  Al  Al11  1  0.22163297  0.54020658  0.15402735  1
  Al  Al12  1  0.77716380  0.41871358  0.90677753  1
  Al  Al13  1  0.88875388  0.54772766  0.65977877  1
  Al  Al14  1  0.44087729  0.43442239  0.40040662  1
  Al  Al15  1  0.56142566  0.53610070  0.15316890  1
  Al  Al16  1  0.10200020  0.43621515  0.90476544  1
  Al  Al17  1  0.21759337  0.54044604  0.65003680  1
  Al  Al18  1  0.77974336  0.42863528  0.40147059  1
  Al  Al19  1  0.87959307  0.54252902  0.14977520  1
  Al  Al20  1  0.44344386  0.43038763  0.90019112  1
  Al  Al21  1  0.55688603  0.53437328  0.65576403  1
  Al  Al22  1  0.10469578  0.76560226  0.39671576  1
  Al  Al23  1  0.21981778  0.87844065  0.15316264  1
  Al  Al24  1  0.44409621  0.76112771  0.40775170  1
  Al  Al25  1  0.09937996  0.76623378  0.90135191  1
  Al  Al26  1  0.21561845  0.87397561  0.65342624  1
  Al  Al27  1  0.78185864  0.76299254  0.40006665  1
  Al  Al28  1  0.88488123  0.87599333  0.13081631  1
  Al  Al29  1  0.45081097  0.76304816  0.89841099  1
  Al  Al30  1  0.56869091  0.86617128  0.63956194  1
  B  B31  1  0.77440319  0.07848446  0.87087951  1
  B  B32  1  0.88865336  0.20999208  0.15909748  1
  B  B33  1  0.76104919  0.77785543  0.90668475  1
  B  B34  1  0.89054039  0.87265467  0.60312627  1
  B  B35  1  0.55428547  0.87167023  0.10760033  1
  N  N36  1  0.22155525  0.20747338  0.33476120  1
  N  N37  1  0.08188631  0.10679456  0.09710727  1
  N  N38  1  0.87036409  0.18098313  0.84254875  1
  N  N39  1  0.79759196  0.05711872  0.59297456  1
  N  N40  1  0.55498402  0.20216384  0.38156094  1
  N  N41  1  0.46105860  0.06325777  0.12614543  1
  N  N42  1  0.20806065  0.20857602  0.84824342  1
  N  N43  1  0.10814842  0.09442745  0.58843397  1
  N  N44  1  0.89717535  0.21424866  0.32426419  1
  N  N45  1  0.78700863  0.11302197  0.13985191  1
  N  N46  1  0.58413430  0.18746176  0.89053830  1
  N  N47  1  0.44383389  0.09877468  0.64621559  1
  N  N48  1  0.22127316  0.54037976  0.34147727  1
  N  N49  1  0.10690679  0.43290674  0.09102311  1
  N  N50  1  0.87328993  0.56487900  0.85192599  1
  N  N51  1  0.78129551  0.42405994  0.59435949  1
  N  N52  1  0.55655829  0.53949235  0.33974740  1
  N  N53  1  0.44163009  0.43112054  0.08991888  1
  N  N54  1  0.22005940  0.53928898  0.83772321  1
  N  N55  1  0.10803621  0.42759325  0.59014270  1
  N  N56  1  0.88836712  0.54141069  0.33809357  1
  N  N57  1  0.79017926  0.40258589  0.09666947  1
  N  N58  1  0.55736793  0.53721275  0.84365235  1
  N  N59  1  0.44355728  0.42808642  0.59110186  1
  N  N60  1  0.22360820  0.87154530  0.34093528  1
  N  N61  1  0.11660022  0.75924788  0.08808610  1
  N  N62  1  0.85816620  0.89024370  0.88377532  1
  N  N63  1  0.80093561  0.77040581  0.59201955  1
  N  N64  1  0.55871931  0.86894839  0.37740120  1
  N  N65  1  0.45656509  0.77681864  0.09187658  1
  N  N66  1  0.22172357  0.87134135  0.84253204  1
  N  N67  1  0.08567787  0.77328202  0.59149490  1
  N  N68  1  0.89254568  0.86291763  0.32357964  1
  N  N69  1  0.74520184  0.77467552  0.07567264  1
  N  N70  1  0.58387367  0.85539931  0.84145278  1
  N  N71  1  0.44235533  0.75751615  0.59792125  1
