# generated using pymatgen
data_Al31B5N36
_symmetry_space_group_name_H-M   'P 1'
_cell_length_a   9.17160203
_cell_length_b   9.23771472
_cell_length_c   10.25642552
_cell_angle_alpha   90.51068867
_cell_angle_beta   89.77870346
_cell_angle_gamma   59.82230718
_symmetry_Int_Tables_number   1
_chemical_formula_structural   Al31B5N36
_chemical_formula_sum   'Al31 B5 N36'
_cell_volume   751.13589659
_cell_formula_units_Z   1
loop_
 _symmetry_equiv_pos_site_id
 _symmetry_equiv_pos_as_xyz
  1  'x, y, z'
loop_
 _atom_site_type_symbol
 _atom_site_label
 _atom_site_symmetry_multiplicity
 _atom_site_fract_x
 _atom_site_fract_y
 _atom_site_fract_z
 _atom_site_occupancy
  Al  Al0  1  0.11603685  0.09297522  0.39815257  1
  Al  Al1  1  0.21502210  0.20441242  0.13153347  1
  Al  Al2  1  0.88532539  0.20253450  0.59139477  1
  Al  Al3  1  0.45451878  0.08596601  0.31732135  1
  Al  Al4  1  0.57534329  0.19485638  0.05930246  1
  Al  Al5  1  0.09294301  0.09785379  0.89036437  1
  Al  Al6  1  0.21724559  0.20575898  0.64927097  1
  Al  Al7  1  0.78190766  0.09608190  0.31892990  1
  Al  Al8  1  0.47190689  0.07708106  0.81814917  1
  Al  Al9  1  0.55681174  0.19946810  0.56847607  1
  Al  Al10  1  0.10963931  0.43238486  0.33737786  1
  Al  Al11  1  0.22874157  0.53513148  0.06383019  1
  Al  Al12  1  0.76902859  0.43732495  0.81465458  1
  Al  Al13  1  0.88688252  0.55177017  0.57041118  1
  Al  Al14  1  0.44469516  0.42480687  0.31846933  1
  Al  Al15  1  0.56460175  0.52706540  0.07410407  1
  Al  Al16  1  0.10373040  0.43452109  0.84051936  1
  Al  Al17  1  0.21204564  0.55065008  0.57522820  1
  Al  Al18  1  0.78217220  0.41913481  0.32480377  1
  Al  Al19  1  0.88048491  0.53773659  0.07206788  1
  Al  Al20  1  0.44970947  0.42693382  0.81561737  1
  Al  Al21  1  0.55755769  0.53286862  0.56634421  1
  Al  Al22  1  0.10839267  0.75832554  0.31144613  1
  Al  Al23  1  0.22347277  0.88260904  0.13773264  1
  Al  Al24  1  0.43304420  0.76703704  0.39278052  1
  Al  Al25  1  0.09232836  0.76068620  0.83499719  1
  Al  Al26  1  0.21788790  0.87666796  0.65220493  1
  Al  Al27  1  0.77048442  0.76223402  0.32311501  1
  Al  Al28  1  0.88676250  0.86964517  0.08837293  1
  Al  Al29  1  0.44971030  0.76874473  0.89287229  1
  Al  Al30  1  0.56374793  0.87601475  0.57579485  1
  B  B31  1  0.75755235  0.13423614  0.79942418  1
  B  B32  1  0.88811119  0.20450496  0.10581212  1
  B  B33  1  0.77584116  0.75879351  0.87194705  1
  B  B34  1  0.88219661  0.87047931  0.62656811  1
  B  B35  1  0.55875778  0.86744848  0.10437213  1
  N  N36  1  0.21922780  0.20296919  0.32196897  1
  N  N37  1  0.07878978  0.11032425  0.08016130  1
  N  N38  1  0.86928852  0.20061803  0.83422942  1
  N  N39  1  0.78134561  0.07215312  0.65098594  1
  N  N40  1  0.55588875  0.20417039  0.38119224  1
  N  N41  1  0.46896440  0.06176896  0.12078898  1
  N  N42  1  0.22150538  0.19878249  0.84220019  1
  N  N43  1  0.12012065  0.08946530  0.58330851  1
  N  N44  1  0.88028486  0.20708969  0.39647089  1
  N  N45  1  0.79606923  0.11074385  0.12578948  1
  N  N46  1  0.58545593  0.19555662  0.86904121  1
  N  N47  1  0.44799481  0.09479124  0.63399147  1
  N  N48  1  0.22236866  0.54466226  0.38642608  1
  N  N49  1  0.10740593  0.43387844  0.11421113  1
  N  N50  1  0.86998807  0.55871790  0.88421404  1
  N  N51  1  0.77456120  0.43846753  0.63059735  1
  N  N52  1  0.55655643  0.53407849  0.37576782  1
  N  N53  1  0.44920508  0.41694733  0.13052148  1
  N  N54  1  0.23051948  0.53303521  0.87921825  1
  N  N55  1  0.10746638  0.43302395  0.62722275  1
  N  N56  1  0.88431079  0.53928190  0.38073752  1
  N  N57  1  0.79541336  0.39506403  0.13166285  1
  N  N58  1  0.55484664  0.53553065  0.88858496  1
  N  N59  1  0.44458089  0.42737143  0.63032909  1
  N  N60  1  0.22084905  0.88029441  0.32377366  1
  N  N61  1  0.12225707  0.75323767  0.12159356  1
  N  N62  1  0.87776947  0.83840411  0.90320064  1
  N  N63  1  0.79450346  0.78050897  0.60565971  1
  N  N64  1  0.55253952  0.87746577  0.38704485  1
  N  N65  1  0.45666543  0.77920452  0.08697717  1
  N  N66  1  0.22205489  0.87233852  0.84004533  1
  N  N67  1  0.07529946  0.77890680  0.64186319  1
  N  N68  1  0.88449061  0.87314269  0.33117466  1
  N  N69  1  0.74358578  0.76514361  0.13278032  1
  N  N70  1  0.59190815  0.85118396  0.85632560  1
  N  N71  1  0.43536752  0.76342272  0.58391609  1
