# generated using pymatgen
data_Al31B5N36
_symmetry_space_group_name_H-M   'P 1'
_cell_length_a   9.16514510
_cell_length_b   9.15836123
_cell_length_c   10.31809123
_cell_angle_alpha   90.19380923
_cell_angle_beta   89.59443667
_cell_angle_gamma   60.13060172
_symmetry_Int_Tables_number   1
_chemical_formula_structural   Al31B5N36
_chemical_formula_sum   'Al31 B5 N36'
_cell_volume   750.98712329
_cell_formula_units_Z   1
loop_
 _symmetry_equiv_pos_site_id
 _symmetry_equiv_pos_as_xyz
  1  'x, y, z'
loop_
 _atom_site_type_symbol
 _atom_site_label
 _atom_site_symmetry_multiplicity
 _atom_site_fract_x
 _atom_site_fract_y
 _atom_site_fract_z
 _atom_site_occupancy
  Al  Al0  1  0.11729648  0.08960832  0.39919176  1
  Al  Al1  1  0.21180215  0.20814841  0.13657759  1
  Al  Al2  1  0.88910208  0.19276024  0.61571904  1
  Al  Al3  1  0.45672893  0.08221501  0.31614809  1
  Al  Al4  1  0.57263801  0.19491728  0.05921098  1
  Al  Al5  1  0.09517801  0.09419586  0.88845639  1
  Al  Al6  1  0.21143553  0.21318446  0.64654889  1
  Al  Al7  1  0.78035343  0.10482094  0.31611917  1
  Al  Al8  1  0.45881868  0.08763158  0.81501281  1
  Al  Al9  1  0.55858249  0.19695441  0.56549283  1
  Al  Al10  1  0.11104598  0.42200254  0.39032835  1
  Al  Al11  1  0.23061157  0.53868584  0.06450277  1
  Al  Al12  1  0.78068869  0.42093224  0.85700607  1
  Al  Al13  1  0.89027616  0.55488740  0.64509339  1
  Al  Al14  1  0.44705279  0.42566374  0.31736068  1
  Al  Al15  1  0.56396237  0.53073074  0.06769934  1
  Al  Al16  1  0.09836289  0.43279429  0.89490164  1
  Al  Al17  1  0.21687856  0.55062614  0.57014369  1
  Al  Al18  1  0.78661484  0.42499926  0.40316530  1
  Al  Al19  1  0.87927834  0.53822178  0.14444639  1
  Al  Al20  1  0.44888299  0.42180985  0.81588070  1
  Al  Al21  1  0.54977227  0.53521377  0.57711953  1
  Al  Al22  1  0.11227397  0.75613971  0.30855069  1
  Al  Al23  1  0.22632194  0.88272598  0.13477765  1
  Al  Al24  1  0.43574756  0.76512292  0.39589368  1
  Al  Al25  1  0.09133651  0.76268108  0.83098211  1
  Al  Al26  1  0.21716917  0.87717481  0.65199211  1
  Al  Al27  1  0.78490127  0.76381420  0.38602828  1
  Al  Al28  1  0.87936899  0.87394603  0.11756416  1
  Al  Al29  1  0.45186136  0.76868510  0.88484262  1
  Al  Al30  1  0.55669194  0.87744040  0.58816414  1
  B  B31  1  0.77093148  0.08109572  0.81029950  1
  B  B32  1  0.88799992  0.20794683  0.09571185  1
  B  B33  1  0.76830529  0.77834208  0.85339071  1
  B  B34  1  0.88551598  0.86979263  0.61809257  1
  B  B35  1  0.56234523  0.86732433  0.10132373  1
  N  N36  1  0.21937960  0.20523509  0.32173289  1
  N  N37  1  0.08120386  0.10861108  0.07728287  1
  N  N38  1  0.87675954  0.18543640  0.81908144  1
  N  N39  1  0.77971396  0.06013432  0.64418903  1
  N  N40  1  0.55697575  0.20341310  0.37926048  1
  N  N41  1  0.46631319  0.06322700  0.12168395  1
  N  N42  1  0.20981565  0.20946383  0.83454879  1
  N  N43  1  0.12107985  0.08809629  0.58369936  1
  N  N44  1  0.88695306  0.19832333  0.39867018  1
  N  N45  1  0.79344843  0.11580815  0.12401469  1
  N  N46  1  0.58125850  0.19145875  0.87174813  1
  N  N47  1  0.44120579  0.10147380  0.63211711  1
  N  N48  1  0.22498636  0.54556787  0.38294397  1
  N  N49  1  0.10398752  0.43016103  0.08040271  1
  N  N50  1  0.87591763  0.57451267  0.83180026  1
  N  N51  1  0.77883565  0.43574198  0.60333257  1
  N  N52  1  0.55652896  0.53254715  0.38398502  1
  N  N53  1  0.44911439  0.42059482  0.12996264  1
  N  N54  1  0.22696383  0.53750745  0.87853806  1
  N  N55  1  0.10631344  0.42648735  0.57785433  1
  N  N56  1  0.88942609  0.53675868  0.33101901  1
  N  N57  1  0.79943283  0.39477245  0.07942453  1
  N  N58  1  0.55248141  0.53625701  0.88047076  1
  N  N59  1  0.44163787  0.42335479  0.63270095  1
  N  N60  1  0.22657981  0.87703019  0.32088019  1
  N  N61  1  0.11754102  0.75705199  0.11841878  1
  N  N62  1  0.85665696  0.88261627  0.86541906  1
  N  N63  1  0.80010999  0.77434076  0.57816940  1
  N  N64  1  0.55371606  0.87709101  0.39344435  1
  N  N65  1  0.45743860  0.78042943  0.07845302  1
  N  N66  1  0.22397593  0.87051563  0.83679342  1
  N  N67  1  0.07616226  0.77562751  0.63606514  1
  N  N68  1  0.88335598  0.87472334  0.31560220  1
  N  N69  1  0.74418962  0.77021799  0.10459083  1
  N  N70  1  0.58686031  0.85493364  0.82885614  1
  N  N71  1  0.43163289  0.76372971  0.58704068  1
