# generated using pymatgen
data_Al31B5N36
_symmetry_space_group_name_H-M   'P 1'
_cell_length_a   9.13700511
_cell_length_b   9.11385552
_cell_length_c   10.29356591
_cell_angle_alpha   90.23104348
_cell_angle_beta   89.57574419
_cell_angle_gamma   60.17222046
_symmetry_Int_Tables_number   1
_chemical_formula_structural   Al31B5N36
_chemical_formula_sum   'Al31 B5 N36'
_cell_volume   743.57446938
_cell_formula_units_Z   1
loop_
 _symmetry_equiv_pos_site_id
 _symmetry_equiv_pos_as_xyz
  1  'x, y, z'
loop_
 _atom_site_type_symbol
 _atom_site_label
 _atom_site_symmetry_multiplicity
 _atom_site_fract_x
 _atom_site_fract_y
 _atom_site_fract_z
 _atom_site_occupancy
  Al  Al0  1  0.11736322  0.09334999  0.40576665  1
  Al  Al1  1  0.20884461  0.20677011  0.14475495  1
  Al  Al2  1  0.88704833  0.19435381  0.61235585  1
  Al  Al3  1  0.45304741  0.08343860  0.32297560  1
  Al  Al4  1  0.57013203  0.18910189  0.07755820  1
  Al  Al5  1  0.09797589  0.09233025  0.89593026  1
  Al  Al6  1  0.21352333  0.21200795  0.65595599  1
  Al  Al7  1  0.78116114  0.10399781  0.33051050  1
  Al  Al8  1  0.46198846  0.08658825  0.82528587  1
  Al  Al9  1  0.56522243  0.18921931  0.56830307  1
  Al  Al10  1  0.11115831  0.42580290  0.40042248  1
  Al  Al11  1  0.22075487  0.53881349  0.15254402  1
  Al  Al12  1  0.77808469  0.42012952  0.89245690  1
  Al  Al13  1  0.88821538  0.55271046  0.65371407  1
  Al  Al14  1  0.44103422  0.43476088  0.39784874  1
  Al  Al15  1  0.56119508  0.53383042  0.14848658  1
  Al  Al16  1  0.10337777  0.43802207  0.90313501  1
  Al  Al17  1  0.21856135  0.54157717  0.64804227  1
  Al  Al18  1  0.77587277  0.43356821  0.40948704  1
  Al  Al19  1  0.87970012  0.53820968  0.15271604  1
  Al  Al20  1  0.44459513  0.42919120  0.89909728  1
  Al  Al21  1  0.55364104  0.53872634  0.65625657  1
  Al  Al22  1  0.10457074  0.76750860  0.39757283  1
  Al  Al23  1  0.21736829  0.87730801  0.14897511  1
  Al  Al24  1  0.43973659  0.75870211  0.40350414  1
  Al  Al25  1  0.09961883  0.76535461  0.90024446  1
  Al  Al26  1  0.21568773  0.87245661  0.65541073  1
  Al  Al27  1  0.78291061  0.76272250  0.39130905  1
  Al  Al28  1  0.88391565  0.86959873  0.13997898  1
  Al  Al29  1  0.45493539  0.76343084  0.89797935  1
  Al  Al30  1  0.55778262  0.87601452  0.59384284  1
  B  B31  1  0.77638051  0.08031932  0.85785653  1
  B  B32  1  0.88562286  0.20524375  0.10710007  1
  B  B33  1  0.76987999  0.77865375  0.86146999  1
  B  B34  1  0.88758256  0.87335118  0.60184846  1
  B  B35  1  0.55943551  0.86567692  0.11139979  1
  N  N36  1  0.21808137  0.20742066  0.33004645  1
  N  N37  1  0.07813587  0.10742078  0.08767990  1
  N  N38  1  0.87211715  0.18051192  0.83920210  1
  N  N39  1  0.79231471  0.05574645  0.60585055  1
  N  N40  1  0.55560144  0.20151275  0.37981829  1
  N  N41  1  0.46075664  0.06106703  0.13044626  1
  N  N42  1  0.21106534  0.21021048  0.84538960  1
  N  N43  1  0.12113417  0.08919539  0.59213330  1
  N  N44  1  0.88930893  0.20649699  0.39405276  1
  N  N45  1  0.79101181  0.11435002  0.13690919  1
  N  N46  1  0.58650057  0.18543998  0.88898487  1
  N  N47  1  0.44486612  0.10087059  0.64314020  1
  N  N48  1  0.22041688  0.54128352  0.33822201  1
  N  N49  1  0.10538006  0.43186039  0.08793264  1
  N  N50  1  0.87577242  0.57286299  0.84374211  1
  N  N51  1  0.77606501  0.43737911  0.59915494  1
  N  N52  1  0.55874875  0.53873305  0.33335007  1
  N  N53  1  0.44130910  0.42827290  0.08664457  1
  N  N54  1  0.22261038  0.53881719  0.83456397  1
  N  N55  1  0.10966540  0.42805769  0.58706809  1
  N  N56  1  0.88953199  0.53644111  0.33816968  1
  N  N57  1  0.79172488  0.39774179  0.08471091  1
  N  N58  1  0.55562876  0.53862181  0.84103844  1
  N  N59  1  0.44434761  0.42997560  0.58615283  1
  N  N60  1  0.22244866  0.87324180  0.33445932  1
  N  N61  1  0.11218253  0.75873973  0.08533404  1
  N  N62  1  0.85943119  0.88520990  0.87072630  1
  N  N63  1  0.80038815  0.77031835  0.58389104  1
  N  N64  1  0.55143055  0.87819001  0.40052096  1
  N  N65  1  0.45541675  0.77436987  0.08964677  1
  N  N66  1  0.22530512  0.86807202  0.84166249  1
  N  N67  1  0.08523180  0.77442676  0.58903964  1
  N  N68  1  0.89266185  0.86933601  0.32589873  1
  N  N69  1  0.74202079  0.77220955  0.11823725  1
  N  N70  1  0.58766245  0.85470708  0.84351862  1
  N  N71  1  0.43677692  0.75598037  0.59139800  1
