# generated using pymatgen
data_Al31B5N36
_symmetry_space_group_name_H-M   'P 1'
_cell_length_a   9.16419529
_cell_length_b   9.20347288
_cell_length_c   9.87264478
_cell_angle_alpha   89.63101666
_cell_angle_beta   90.24243727
_cell_angle_gamma   60.21842251
_symmetry_Int_Tables_number   1
_chemical_formula_structural   Al31B5N36
_chemical_formula_sum   'Al31 B5 N36'
_cell_volume   722.66490136
_cell_formula_units_Z   1
loop_
 _symmetry_equiv_pos_site_id
 _symmetry_equiv_pos_as_xyz
  1  'x, y, z'
loop_
 _atom_site_type_symbol
 _atom_site_label
 _atom_site_symmetry_multiplicity
 _atom_site_fract_x
 _atom_site_fract_y
 _atom_site_fract_z
 _atom_site_occupancy
  Al  Al0  1  0.10641684  0.09618085  0.39377946  1
  Al  Al1  1  0.21735787  0.20378518  0.14878309  1
  Al  Al2  1  0.88888927  0.19133469  0.65183942  1
  Al  Al3  1  0.44681003  0.09057516  0.39382774  1
  Al  Al4  1  0.55978408  0.20425774  0.14664056  1
  Al  Al5  1  0.10087065  0.09238894  0.90313754  1
  Al  Al6  1  0.22442366  0.20092999  0.64937424  1
  Al  Al7  1  0.78146026  0.09009130  0.38584986  1
  Al  Al8  1  0.45173573  0.09002446  0.90620899  1
  Al  Al9  1  0.56778662  0.19212620  0.65456034  1
  Al  Al10  1  0.10900049  0.42707067  0.39702072  1
  Al  Al11  1  0.22158903  0.53946137  0.15011576  1
  Al  Al12  1  0.78034466  0.41326693  0.90118869  1
  Al  Al13  1  0.89183645  0.53676579  0.65333230  1
  Al  Al14  1  0.44571590  0.42563425  0.40142894  1
  Al  Al15  1  0.55894837  0.53791431  0.14892290  1
  Al  Al16  1  0.10748944  0.42588819  0.89761757  1
  Al  Al17  1  0.21607610  0.53990606  0.64789739  1
  Al  Al18  1  0.77984868  0.42325523  0.39143912  1
  Al  Al19  1  0.88151427  0.54146836  0.13789377  1
  Al  Al20  1  0.44450443  0.42748231  0.89866796  1
  Al  Al21  1  0.55966400  0.53629600  0.65084894  1
  Al  Al22  1  0.10629349  0.76294823  0.39059709  1
  Al  Al23  1  0.21988821  0.87829934  0.15012208  1
  Al  Al24  1  0.44813289  0.76167894  0.39500973  1
  Al  Al25  1  0.09585092  0.76618518  0.90001864  1
  Al  Al26  1  0.21977461  0.87251239  0.64890091  1
  Al  Al27  1  0.77840334  0.76300153  0.38483751  1
  Al  Al28  1  0.88315581  0.88344550  0.12478349  1
  Al  Al29  1  0.45286580  0.76201440  0.90414694  1
  Al  Al30  1  0.57257351  0.86934715  0.65448788  1
  B  B31  1  0.77354226  0.09816185  0.91214770  1
  B  B32  1  0.88385015  0.20898089  0.14620625  1
  B  B33  1  0.74117731  0.82132939  0.92808693  1
  B  B34  1  0.89032654  0.86835683  0.59982441  1
  B  B35  1  0.55069468  0.87448063  0.14991056  1
  N  N36  1  0.22166634  0.20515287  0.33942008  1
  N  N37  1  0.08317640  0.10804755  0.09570393  1
  N  N38  1  0.87333374  0.18281811  0.84321886  1
  N  N39  1  0.79456123  0.05961282  0.58352461  1
  N  N40  1  0.55590272  0.20594940  0.33839106  1
  N  N41  1  0.45330825  0.07214263  0.09857056  1
  N  N42  1  0.22743700  0.19620850  0.84317312  1
  N  N43  1  0.10825463  0.09372285  0.58725066  1
  N  N44  1  0.88700980  0.20489469  0.31583511  1
  N  N45  1  0.78345400  0.11745623  0.08244004  1
  N  N46  1  0.57753070  0.19497905  0.85128451  1
  N  N47  1  0.44924464  0.08887356  0.58921838  1
  N  N48  1  0.22220193  0.53881919  0.34239536  1
  N  N49  1  0.11038797  0.42843467  0.08910270  1
  N  N50  1  0.88975290  0.52324366  0.83969148  1
  N  N51  1  0.78150628  0.41789602  0.58568262  1
  N  N52  1  0.55405961  0.53934685  0.33970694  1
  N  N53  1  0.44215963  0.42918775  0.08945522  1
  N  N54  1  0.21711446  0.54156971  0.83782806  1
  N  N55  1  0.11193213  0.42333958  0.58772866  1
  N  N56  1  0.88656596  0.54079640  0.33234875  1
  N  N57  1  0.78788515  0.40359029  0.09489369  1
  N  N58  1  0.55548440  0.54066386  0.84276475  1
  N  N59  1  0.44695269  0.42248291  0.59451227  1
  N  N60  1  0.22264257  0.87234661  0.34200189  1
  N  N61  1  0.11644922  0.75959273  0.09080988  1
  N  N62  1  0.85308156  0.89483610  0.89367336  1
  N  N63  1  0.79625841  0.77057180  0.58423449  1
  N  N64  1  0.55640768  0.87204540  0.31716851  1
  N  N65  1  0.45390946  0.77597292  0.09756548  1
  N  N66  1  0.22274417  0.86943401  0.84137234  1
  N  N67  1  0.08282899  0.77401467  0.59022902  1
  N  N68  1  0.88794718  0.87304255  0.32152960  1
  N  N69  1  0.74299469  0.78024883  0.08238081  1
  N  N70  1  0.58160217  0.86544626  0.84791430  1
  N  N71  1  0.45107681  0.76197425  0.59082296  1
