# generated using pymatgen
data_Al31B5N36
_symmetry_space_group_name_H-M   'P 1'
_cell_length_a   9.17106781
_cell_length_b   9.16831794
_cell_length_c   9.81401836
_cell_angle_alpha   90.05458101
_cell_angle_beta   90.08844348
_cell_angle_gamma   60.07007189
_symmetry_Int_Tables_number   1
_chemical_formula_structural   Al31B5N36
_chemical_formula_sum   'Al31 B5 N36'
_cell_volume   715.14278085
_cell_formula_units_Z   1
loop_
 _symmetry_equiv_pos_site_id
 _symmetry_equiv_pos_as_xyz
  1  'x, y, z'
loop_
 _atom_site_type_symbol
 _atom_site_label
 _atom_site_symmetry_multiplicity
 _atom_site_fract_x
 _atom_site_fract_y
 _atom_site_fract_z
 _atom_site_occupancy
  Al  Al0  1  0.10561195  0.09558781  0.39682451  1
  Al  Al1  1  0.21895943  0.20215673  0.15256281  1
  Al  Al2  1  0.88726642  0.19487825  0.65592318  1
  Al  Al3  1  0.44661857  0.09037890  0.39673643  1
  Al  Al4  1  0.56301588  0.19989828  0.14827029  1
  Al  Al5  1  0.10099959  0.09380289  0.90765089  1
  Al  Al6  1  0.22171715  0.20338744  0.65355210  1
  Al  Al7  1  0.78097390  0.08856249  0.39682273  1
  Al  Al8  1  0.45617303  0.08418209  0.90845979  1
  Al  Al9  1  0.56581592  0.19410604  0.65845992  1
  Al  Al10  1  0.10814301  0.42787853  0.40356408  1
  Al  Al11  1  0.22069723  0.54057770  0.15485620  1
  Al  Al12  1  0.77817484  0.42165645  0.90623723  1
  Al  Al13  1  0.88607361  0.54862340  0.65838935  1
  Al  Al14  1  0.44532855  0.42516586  0.40430618  1
  Al  Al15  1  0.56056506  0.53611966  0.15360069  1
  Al  Al16  1  0.10614757  0.43353488  0.90425415  1
  Al  Al17  1  0.21697516  0.54140975  0.65326029  1
  Al  Al18  1  0.78015400  0.42294256  0.39745557  1
  Al  Al19  1  0.88232339  0.54125721  0.14645146  1
  Al  Al20  1  0.44774149  0.42460938  0.90378176  1
  Al  Al21  1  0.55721996  0.53838776  0.65386020  1
  Al  Al22  1  0.10259629  0.76470040  0.40483201  1
  Al  Al23  1  0.21849342  0.87582869  0.15299285  1
  Al  Al24  1  0.44676288  0.76207115  0.39651633  1
  Al  Al25  1  0.09923668  0.76620836  0.89707045  1
  Al  Al26  1  0.21826615  0.87381427  0.65284495  1
  Al  Al27  1  0.77774184  0.76464880  0.39640860  1
  Al  Al28  1  0.88247754  0.87795656  0.13711709  1
  Al  Al29  1  0.45165859  0.76241611  0.90752478  1
  Al  Al30  1  0.56572681  0.87075637  0.65602634  1
  B  B31  1  0.77596954  0.09541769  0.90782927  1
  B  B32  1  0.88742849  0.20482048  0.14886605  1
  B  B33  1  0.76328279  0.77509435  0.90836203  1
  B  B34  1  0.88236433  0.87488650  0.64558501  1
  B  B35  1  0.55423576  0.87263707  0.15058226  1
  N  N36  1  0.22122357  0.20495265  0.34398759  1
  N  N37  1  0.08386861  0.10656478  0.10062321  1
  N  N38  1  0.87475437  0.18969607  0.84693695  1
  N  N39  1  0.79100257  0.06559532  0.59335249  1
  N  N40  1  0.55759420  0.20369049  0.34121516  1
  N  N41  1  0.45460915  0.06932904  0.10122886  1
  N  N42  1  0.22223842  0.20280549  0.84861325  1
  N  N43  1  0.10672517  0.09556153  0.59079563  1
  N  N44  1  0.88560916  0.20284671  0.31978251  1
  N  N45  1  0.78755639  0.10591231  0.07814189  1
  N  N46  1  0.57985429  0.19205116  0.85497408  1
  N  N47  1  0.44591771  0.09172803  0.59302907  1
  N  N48  1  0.22072813  0.54021759  0.34847649  1
  N  N49  1  0.11054750  0.42768555  0.09515382  1
  N  N50  1  0.87350108  0.56499368  0.85432978  1
  N  N51  1  0.78197724  0.42282639  0.59428163  1
  N  N52  1  0.55563633  0.53734212  0.34457586  1
  N  N53  1  0.44345079  0.42753167  0.09520327  1
  N  N54  1  0.22304656  0.53810733  0.84334735  1
  N  N55  1  0.10784607  0.42735343  0.59636356  1
  N  N56  1  0.88616939  0.54094287  0.34037251  1
  N  N57  1  0.79026335  0.40120902  0.09903444  1
  N  N58  1  0.55609235  0.53989169  0.84675116  1
  N  N59  1  0.44652193  0.42310958  0.59793200  1
  N  N60  1  0.22084293  0.87008255  0.34546003  1
  N  N61  1  0.11110670  0.76048323  0.08943106  1
  N  N62  1  0.86275952  0.88510627  0.85047524  1
  N  N63  1  0.79050412  0.77509389  0.59337046  1
  N  N64  1  0.55883993  0.87010933  0.32006162  1
  N  N65  1  0.45552474  0.77345674  0.10162281  1
  N  N66  1  0.22498846  0.87146909  0.84583511  1
  N  N67  1  0.08173688  0.77546162  0.60335520  1
  N  N68  1  0.88789730  0.87161347  0.32945358  1
  N  N69  1  0.75163035  0.77431133  0.07903379  1
  N  N70  1  0.57963373  0.86008427  0.84725256  1
  N  N71  1  0.44725044  0.76274325  0.59191741  1
