# generated using pymatgen
data_Al31B5N36
_symmetry_space_group_name_H-M   'P 1'
_cell_length_a   9.15649224
_cell_length_b   9.13765310
_cell_length_c   10.30198333
_cell_angle_alpha   90.13489232
_cell_angle_beta   89.57160120
_cell_angle_gamma   60.12273496
_symmetry_Int_Tables_number   1
_chemical_formula_structural   Al31B5N36
_chemical_formula_sum   'Al31 B5 N36'
_cell_volume   747.35724582
_cell_formula_units_Z   1
loop_
 _symmetry_equiv_pos_site_id
 _symmetry_equiv_pos_as_xyz
  1  'x, y, z'
loop_
 _atom_site_type_symbol
 _atom_site_label
 _atom_site_symmetry_multiplicity
 _atom_site_fract_x
 _atom_site_fract_y
 _atom_site_fract_z
 _atom_site_occupancy
  Al  Al0  1  0.11504144  0.09005561  0.39890763  1
  Al  Al1  1  0.21212506  0.20782871  0.13698676  1
  Al  Al2  1  0.88719080  0.19877767  0.61695975  1
  Al  Al3  1  0.45708774  0.07930437  0.31624635  1
  Al  Al4  1  0.57134107  0.19527776  0.05727608  1
  Al  Al5  1  0.09701558  0.09681831  0.88578307  1
  Al  Al6  1  0.21360136  0.21270484  0.64531412  1
  Al  Al7  1  0.78083946  0.10405314  0.31481909  1
  Al  Al8  1  0.46131742  0.08408778  0.81354861  1
  Al  Al9  1  0.56081471  0.19796293  0.56625754  1
  Al  Al10  1  0.10931682  0.42099071  0.39186240  1
  Al  Al11  1  0.23179357  0.53575347  0.06465823  1
  Al  Al12  1  0.77666722  0.42203065  0.88334238  1
  Al  Al13  1  0.88983257  0.55497478  0.64505226  1
  Al  Al14  1  0.44328517  0.42007787  0.31639874  1
  Al  Al15  1  0.56598842  0.53839299  0.13768071  1
  Al  Al16  1  0.09889722  0.43278730  0.89258754  1
  Al  Al17  1  0.21953600  0.55156748  0.56959435  1
  Al  Al18  1  0.77523621  0.43073456  0.40214472  1
  Al  Al19  1  0.88213368  0.53809289  0.14441080  1
  Al  Al20  1  0.44608814  0.41675195  0.81572777  1
  Al  Al21  1  0.55690184  0.54587977  0.64795633  1
  Al  Al22  1  0.11066341  0.75683457  0.30872235  1
  Al  Al23  1  0.22337329  0.88464826  0.13320586  1
  Al  Al24  1  0.43788858  0.75551147  0.39350557  1
  Al  Al25  1  0.09380055  0.76725736  0.85111978  1
  Al  Al26  1  0.21527539  0.87554149  0.65052007  1
  Al  Al27  1  0.78576233  0.76139994  0.38469353  1
  Al  Al28  1  0.87636419  0.87481104  0.11435414  1
  Al  Al29  1  0.45565354  0.76275122  0.88976996  1
  Al  Al30  1  0.55591216  0.87638386  0.58150586  1
  B  B31  1  0.77231626  0.08153471  0.80977538  1
  B  B32  1  0.88635130  0.20745260  0.09354721  1
  B  B33  1  0.76934977  0.77644371  0.85477252  1
  B  B34  1  0.88863920  0.86952841  0.61619440  1
  B  B35  1  0.56165788  0.86623085  0.10047790  1
  N  N36  1  0.22009379  0.20411817  0.32202959  1
  N  N37  1  0.07878199  0.11158142  0.07608698  1
  N  N38  1  0.87581488  0.19071069  0.82150956  1
  N  N39  1  0.78195183  0.06100526  0.64632373  1
  N  N40  1  0.55845861  0.20052138  0.37962782  1
  N  N41  1  0.46572146  0.06135319  0.12093509  1
  N  N42  1  0.21369310  0.20926104  0.83350400  1
  N  N43  1  0.12020291  0.08913004  0.58403752  1
  N  N44  1  0.88476918  0.20111535  0.39490541  1
  N  N45  1  0.79193289  0.11697068  0.12239545  1
  N  N46  1  0.58213739  0.19006730  0.87113979  1
  N  N47  1  0.44378159  0.09889645  0.63034418  1
  N  N48  1  0.22449641  0.54473108  0.38100062  1
  N  N49  1  0.10353814  0.42894668  0.07896590  1
  N  N50  1  0.87536130  0.57276616  0.83351685  1
  N  N51  1  0.77569049  0.44211915  0.58908220  1
  N  N52  1  0.56208057  0.53837430  0.32372086  1
  N  N53  1  0.44702799  0.41615300  0.12759218  1
  N  N54  1  0.22795253  0.53692934  0.87942766  1
  N  N55  1  0.10739802  0.42735807  0.57882468  1
  N  N56  1  0.89000667  0.53465062  0.32963878  1
  N  N57  1  0.79257649  0.39933425  0.07442473  1
  N  N58  1  0.55565367  0.54097827  0.83455100  1
  N  N59  1  0.44371936  0.42312540  0.62965026  1
  N  N60  1  0.22505297  0.87674589  0.31935588  1
  N  N61  1  0.11500300  0.75960469  0.10857858  1
  N  N62  1  0.85719419  0.88293651  0.86908224  1
  N  N63  1  0.79996660  0.77546808  0.57669890  1
  N  N64  1  0.55374110  0.87238662  0.39086565  1
  N  N65  1  0.45737177  0.77589312  0.07885474  1
  N  N66  1  0.22656345  0.87163612  0.83750015  1
  N  N67  1  0.07646397  0.77742102  0.62965855  1
  N  N68  1  0.88240678  0.87341727  0.31124628  1
  N  N69  1  0.74305614  0.76864721  0.10417697  1
  N  N70  1  0.58765720  0.85349795  0.83293812  1
  N  N71  1  0.43170203  0.75739640  0.58043618  1
