# generated using pymatgen
data_Al31B5N36
_symmetry_space_group_name_H-M   'P 1'
_cell_length_a   9.20096816
_cell_length_b   9.24202911
_cell_length_c   10.08473136
_cell_angle_alpha   90.08629643
_cell_angle_beta   89.49438618
_cell_angle_gamma   59.75900990
_symmetry_Int_Tables_number   1
_chemical_formula_structural   Al31B5N36
_chemical_formula_sum   'Al31 B5 N36'
_cell_volume   740.81343779
_cell_formula_units_Z   1
loop_
 _symmetry_equiv_pos_site_id
 _symmetry_equiv_pos_as_xyz
  1  'x, y, z'
loop_
 _atom_site_type_symbol
 _atom_site_label
 _atom_site_symmetry_multiplicity
 _atom_site_fract_x
 _atom_site_fract_y
 _atom_site_fract_z
 _atom_site_occupancy
  Al  Al0  1  0.11889087  0.09023536  0.39583078  1
  Al  Al1  1  0.22291001  0.20278246  0.10301439  1
  Al  Al2  1  0.88480861  0.20255800  0.59346749  1
  Al  Al3  1  0.45254790  0.08657449  0.31165552  1
  Al  Al4  1  0.57568109  0.19993488  0.06211011  1
  Al  Al5  1  0.08950059  0.09831240  0.89021175  1
  Al  Al6  1  0.22301478  0.20176475  0.64106318  1
  Al  Al7  1  0.78184974  0.09605210  0.32167803  1
  Al  Al8  1  0.46826506  0.07958296  0.83349256  1
  Al  Al9  1  0.55712798  0.19819347  0.57120903  1
  Al  Al10  1  0.10989933  0.42973278  0.31675514  1
  Al  Al11  1  0.22810468  0.53556294  0.06579765  1
  Al  Al12  1  0.77069400  0.43567442  0.81520697  1
  Al  Al13  1  0.88867360  0.54979678  0.56927948  1
  Al  Al14  1  0.44374525  0.42585708  0.32229033  1
  Al  Al15  1  0.56078603  0.53524641  0.07265749  1
  Al  Al16  1  0.10225193  0.43791916  0.82828077  1
  Al  Al17  1  0.21090818  0.54773177  0.57327564  1
  Al  Al18  1  0.78303088  0.41886546  0.32794074  1
  Al  Al19  1  0.88274757  0.53717152  0.07521687  1
  Al  Al20  1  0.44870237  0.42748866  0.81598205  1
  Al  Al21  1  0.55275338  0.54515821  0.56726789  1
  Al  Al22  1  0.10795781  0.75774201  0.31426930  1
  Al  Al23  1  0.21664474  0.88459581  0.13064508  1
  Al  Al24  1  0.45139232  0.76286212  0.31553190  1
  Al  Al25  1  0.09103557  0.76051554  0.84015713  1
  Al  Al26  1  0.21264353  0.87635458  0.65218748  1
  Al  Al27  1  0.77086058  0.76206918  0.32194469  1
  Al  Al28  1  0.88364110  0.87179883  0.09250304  1
  Al  Al29  1  0.45414892  0.75929758  0.83462718  1
  Al  Al30  1  0.56134211  0.87357612  0.57364267  1
  B  B31  1  0.75692744  0.13287126  0.79963466  1
  B  B32  1  0.88663611  0.20733029  0.10792177  1
  B  B33  1  0.77872518  0.75700573  0.88275504  1
  B  B34  1  0.88006160  0.86894442  0.62763498  1
  B  B35  1  0.56557782  0.86308540  0.07149738  1
  N  N36  1  0.22244382  0.20095683  0.32761615  1
  N  N37  1  0.07522327  0.11361476  0.08102997  1
  N  N38  1  0.86850525  0.20055429  0.83127318  1
  N  N39  1  0.78183198  0.06919000  0.65079918  1
  N  N40  1  0.55581314  0.20245237  0.38187801  1
  N  N41  1  0.47043441  0.06653746  0.11353891  1
  N  N42  1  0.22191248  0.20255390  0.86307365  1
  N  N43  1  0.12051430  0.08832424  0.58628057  1
  N  N44  1  0.88154551  0.20550636  0.39772705  1
  N  N45  1  0.79566538  0.11278647  0.12715226  1
  N  N46  1  0.58577908  0.19721785  0.86989630  1
  N  N47  1  0.45220796  0.08938383  0.64396411  1
  N  N48  1  0.21924662  0.54070400  0.38438428  1
  N  N49  1  0.10742683  0.43585925  0.12477484  1
  N  N50  1  0.87086820  0.55979728  0.88422106  1
  N  N51  1  0.77443882  0.43865008  0.62834235  1
  N  N52  1  0.55335086  0.54176729  0.37701100  1
  N  N53  1  0.44851014  0.42155412  0.13135399  1
  N  N54  1  0.22917035  0.53165686  0.87967263  1
  N  N55  1  0.10680076  0.43192567  0.63784606  1
  N  N56  1  0.88827181  0.53754230  0.37921970  1
  N  N57  1  0.79354430  0.39736220  0.13134760  1
  N  N58  1  0.55463568  0.53733438  0.88629669  1
  N  N59  1  0.44346575  0.42966627  0.62771669  1
  N  N60  1  0.21949987  0.87720305  0.32537728  1
  N  N61  1  0.11801876  0.75429159  0.11958843  1
  N  N62  1  0.87378810  0.84258296  0.90262443  1
  N  N63  1  0.79090222  0.77864631  0.61240024  1
  N  N64  1  0.55026067  0.87497295  0.38724947  1
  N  N65  1  0.46075646  0.77311491  0.11937201  1
  N  N66  1  0.21527231  0.87352472  0.84614644  1
  N  N67  1  0.07372045  0.77628986  0.64091161  1
  N  N68  1  0.88390676  0.87298091  0.33401536  1
  N  N69  1  0.74790372  0.76407756  0.13133020  1
  N  N70  1  0.58352885  0.85457045  0.90298873  1
  N  N71  1  0.45043625  0.76109161  0.64067886  1
