# generated using pymatgen
data_Al31B5N36
_symmetry_space_group_name_H-M   'P 1'
_cell_length_a   9.12026748
_cell_length_b   9.20645540
_cell_length_c   10.39836336
_cell_angle_alpha   90.83084835
_cell_angle_beta   89.96073283
_cell_angle_gamma   59.97148137
_symmetry_Int_Tables_number   1
_chemical_formula_structural   Al31B5N36
_chemical_formula_sum   'Al31 B5 N36'
_cell_volume   755.79990673
_cell_formula_units_Z   1
loop_
 _symmetry_equiv_pos_site_id
 _symmetry_equiv_pos_as_xyz
  1  'x, y, z'
loop_
 _atom_site_type_symbol
 _atom_site_label
 _atom_site_symmetry_multiplicity
 _atom_site_fract_x
 _atom_site_fract_y
 _atom_site_fract_z
 _atom_site_occupancy
  Al  Al0  1  0.11857137  0.09090463  0.39616798  1
  Al  Al1  1  0.21113887  0.20810963  0.13559512  1
  Al  Al2  1  0.88575340  0.20019688  0.58484461  1
  Al  Al3  1  0.45238009  0.08793393  0.31592223  1
  Al  Al4  1  0.57280285  0.19564379  0.05881400  1
  Al  Al5  1  0.09439483  0.09510833  0.89011271  1
  Al  Al6  1  0.21223607  0.21141704  0.64801650  1
  Al  Al7  1  0.78177240  0.09672268  0.31823163  1
  Al  Al8  1  0.46857031  0.07856975  0.81447459  1
  Al  Al9  1  0.55576116  0.19985786  0.56671316  1
  Al  Al10  1  0.10693171  0.42524592  0.39398629  1
  Al  Al11  1  0.23042684  0.53853369  0.06305665  1
  Al  Al12  1  0.77022704  0.42905196  0.81415619  1
  Al  Al13  1  0.88852031  0.55802545  0.64214293  1
  Al  Al14  1  0.44223185  0.42597858  0.31701941  1
  Al  Al15  1  0.56909575  0.52605216  0.07173655  1
  Al  Al16  1  0.10142289  0.42805421  0.89143663  1
  Al  Al17  1  0.21535005  0.55359073  0.57059428  1
  Al  Al18  1  0.77979034  0.41732137  0.32581708  1
  Al  Al19  1  0.88827119  0.53953365  0.14365938  1
  Al  Al20  1  0.44919191  0.42584441  0.81488865  1
  Al  Al21  1  0.55861545  0.53127419  0.56562649  1
  Al  Al22  1  0.10688552  0.75871761  0.31174570  1
  Al  Al23  1  0.22413062  0.88113380  0.13751528  1
  Al  Al24  1  0.43332016  0.76568825  0.39325717  1
  Al  Al25  1  0.09455185  0.75653562  0.82960744  1
  Al  Al26  1  0.21830051  0.87695209  0.65202197  1
  Al  Al27  1  0.77454956  0.77033700  0.34580998  1
  Al  Al28  1  0.88315703  0.87139051  0.07464893  1
  Al  Al29  1  0.45263714  0.76726951  0.89269395  1
  Al  Al30  1  0.55918819  0.87771824  0.57574766  1
  B  B31  1  0.75877530  0.12900233  0.79978869  1
  B  B32  1  0.88838996  0.20235061  0.10510959  1
  B  B33  1  0.77708479  0.75908752  0.85966296  1
  B  B34  1  0.88223793  0.87218178  0.61894081  1
  B  B35  1  0.55999443  0.86991407  0.10669801  1
  N  N36  1  0.21486882  0.20998030  0.32002826  1
  N  N37  1  0.08029854  0.10773828  0.07877895  1
  N  N38  1  0.87043468  0.19511055  0.83743205  1
  N  N39  1  0.78150895  0.07153982  0.64886480  1
  N  N40  1  0.55462340  0.20592071  0.38072735  1
  N  N41  1  0.46461242  0.06522455  0.12186679  1
  N  N42  1  0.21501837  0.20345954  0.83432590  1
  N  N43  1  0.12129610  0.08721278  0.58017072  1
  N  N44  1  0.88199159  0.20784936  0.39530787  1
  N  N45  1  0.79551928  0.10717884  0.12620415  1
  N  N46  1  0.58414787  0.19444447  0.86858781  1
  N  N47  1  0.44530224  0.09718452  0.63324018  1
  N  N48  1  0.22309769  0.54697417  0.38487783  1
  N  N49  1  0.10597274  0.42665191  0.07527224  1
  N  N50  1  0.87730152  0.56383657  0.83232117  1
  N  N51  1  0.77469084  0.43225200  0.63056656  1
  N  N52  1  0.55695277  0.53289437  0.37811027  1
  N  N53  1  0.44879024  0.41905773  0.13046212  1
  N  N54  1  0.23107059  0.53297961  0.87875246  1
  N  N55  1  0.10766394  0.42502695  0.57908984  1
  N  N56  1  0.89119028  0.53895248  0.32819042  1
  N  N57  1  0.79508625  0.39100689  0.13247595  1
  N  N58  1  0.55788502  0.53315687  0.88929813  1
  N  N59  1  0.44348865  0.42746813  0.63127951  1
  N  N60  1  0.22383257  0.87919009  0.32005805  1
  N  N61  1  0.11419708  0.75510895  0.12398004  1
  N  N62  1  0.87651315  0.84216174  0.89447076  1
  N  N63  1  0.79353330  0.78009893  0.59517514  1
  N  N64  1  0.54896871  0.88114371  0.38880502  1
  N  N65  1  0.45921297  0.77860343  0.08486805  1
  N  N66  1  0.22453978  0.86996061  0.83757906  1
  N  N67  1  0.07498067  0.77661597  0.64113185  1
  N  N68  1  0.88896899  0.87991315  0.35522423  1
  N  N69  1  0.74413339  0.77624362  0.13100590  1
  N  N70  1  0.59135197  0.85107729  0.84807468  1
  N  N71  1  0.43442632  0.76203493  0.58184294  1
