# generated using pymatgen
data_Al31B5N36
_symmetry_space_group_name_H-M   'P 1'
_cell_length_a   9.16008931
_cell_length_b   9.15676746
_cell_length_c   10.06634173
_cell_angle_alpha   89.88768987
_cell_angle_beta   89.72456775
_cell_angle_gamma   60.25975850
_symmetry_Int_Tables_number   1
_chemical_formula_structural   Al31B5N36
_chemical_formula_sum   'Al31 B5 N36'
_cell_volume   733.11135980
_cell_formula_units_Z   1
loop_
 _symmetry_equiv_pos_site_id
 _symmetry_equiv_pos_as_xyz
  1  'x, y, z'
loop_
 _atom_site_type_symbol
 _atom_site_label
 _atom_site_symmetry_multiplicity
 _atom_site_fract_x
 _atom_site_fract_y
 _atom_site_fract_z
 _atom_site_occupancy
  Al  Al0  1  0.11150067  0.09580715  0.39972131  1
  Al  Al1  1  0.21053900  0.20704783  0.14470347  1
  Al  Al2  1  0.88604510  0.19086253  0.65102879  1
  Al  Al3  1  0.45203054  0.08979943  0.31848468  1
  Al  Al4  1  0.56898899  0.19451877  0.08118044  1
  Al  Al5  1  0.09584590  0.09177084  0.90771741  1
  Al  Al6  1  0.21295980  0.20852755  0.65517062  1
  Al  Al7  1  0.77989439  0.09624283  0.33376301  1
  Al  Al8  1  0.45055992  0.09503984  0.84254425  1
  Al  Al9  1  0.56394771  0.18784293  0.57593996  1
  Al  Al10  1  0.11085654  0.42604352  0.40050831  1
  Al  Al11  1  0.22180620  0.53940716  0.15276900  1
  Al  Al12  1  0.77735098  0.41869644  0.90512160  1
  Al  Al13  1  0.88826114  0.54607624  0.65796552  1
  Al  Al14  1  0.44121824  0.43296505  0.40158728  1
  Al  Al15  1  0.56087510  0.53437728  0.15272473  1
  Al  Al16  1  0.10061234  0.43567339  0.90368366  1
  Al  Al17  1  0.21632581  0.54110097  0.65043170  1
  Al  Al18  1  0.78111652  0.42585798  0.40085439  1
  Al  Al19  1  0.88077393  0.54100784  0.14758345  1
  Al  Al20  1  0.44264471  0.43316307  0.89862782  1
  Al  Al21  1  0.55758648  0.53762737  0.65346963  1
  Al  Al22  1  0.10611622  0.76366205  0.39647997  1
  Al  Al23  1  0.22018983  0.87691475  0.15358017  1
  Al  Al24  1  0.44854530  0.76097291  0.39748290  1
  Al  Al25  1  0.09866759  0.76684793  0.90139239  1
  Al  Al26  1  0.21931904  0.87344938  0.65104991  1
  Al  Al27  1  0.78020281  0.76199300  0.39119002  1
  Al  Al28  1  0.88529659  0.87665142  0.13029314  1
  Al  Al29  1  0.45134273  0.76395544  0.90751865  1
  Al  Al30  1  0.57308009  0.86481272  0.65669211  1
  B  B31  1  0.77308366  0.08176287  0.87175317  1
  B  B32  1  0.88803577  0.20972101  0.15857987  1
  B  B33  1  0.75254986  0.79233199  0.92038626  1
  B  B34  1  0.88886607  0.87382183  0.59955434  1
  B  B35  1  0.55774173  0.86417991  0.14783792  1
  N  N36  1  0.22164857  0.20618205  0.33659675  1
  N  N37  1  0.08168954  0.10577245  0.09737546  1
  N  N38  1  0.87019443  0.18082075  0.84300922  1
  N  N39  1  0.79767393  0.05681329  0.59447813  1
  N  N40  1  0.55587532  0.19954335  0.38599382  1
  N  N41  1  0.45591784  0.07169271  0.12424096  1
  N  N42  1  0.20828126  0.20825293  0.84899438  1
  N  N43  1  0.10834952  0.09439793  0.58912987  1
  N  N44  1  0.89744664  0.21286350  0.32456262  1
  N  N45  1  0.78513341  0.11378484  0.14011356  1
  N  N46  1  0.58331246  0.19096631  0.88785107  1
  N  N47  1  0.44496023  0.09579161  0.64789456  1
  N  N48  1  0.22214906  0.53918475  0.34144046  1
  N  N49  1  0.10705524  0.43226799  0.09075434  1
  N  N50  1  0.87545986  0.55607977  0.84885555  1
  N  N51  1  0.78178870  0.42200052  0.59327271  1
  N  N52  1  0.55801167  0.53637998  0.34046038  1
  N  N53  1  0.44130785  0.43085408  0.08902560  1
  N  N54  1  0.21823935  0.54079648  0.83810866  1
  N  N55  1  0.10827503  0.42748398  0.59005289  1
  N  N56  1  0.88929664  0.53924746  0.33746002  1
  N  N57  1  0.78996209  0.40170748  0.09628000  1
  N  N58  1  0.55595494  0.54164152  0.84250553  1
  N  N59  1  0.44289816  0.43012854  0.59290475  1
  N  N60  1  0.22399796  0.87146445  0.34263867  1
  N  N61  1  0.11659598  0.75901886  0.08868697  1
  N  N62  1  0.85502248  0.89393646  0.88938017  1
  N  N63  1  0.79357858  0.77323884  0.58448915  1
  N  N64  1  0.56578524  0.85705088  0.31587442  1
  N  N65  1  0.45507999  0.77286890  0.09777044  1
  N  N66  1  0.22387576  0.87046785  0.84153396  1
  N  N67  1  0.08446597  0.77337675  0.59166089  1
  N  N68  1  0.89375762  0.86343646  0.32454700  1
  N  N69  1  0.74698996  0.77409143  0.08066827  1
  N  N70  1  0.58268193  0.85879384  0.84914640  1
  N  N71  1  0.45006071  0.76273169  0.58968247  1
