# generated using pymatgen
data_Al31B5N36
_symmetry_space_group_name_H-M   'P 1'
_cell_length_a   9.14066939
_cell_length_b   9.11469646
_cell_length_c   10.24383996
_cell_angle_alpha   90.14434186
_cell_angle_beta   89.55811924
_cell_angle_gamma   60.16181157
_symmetry_Int_Tables_number   1
_chemical_formula_structural   Al31B5N36
_chemical_formula_sum   'Al31 B5 N36'
_cell_volume   740.27804573
_cell_formula_units_Z   1
loop_
 _symmetry_equiv_pos_site_id
 _symmetry_equiv_pos_as_xyz
  1  'x, y, z'
loop_
 _atom_site_type_symbol
 _atom_site_label
 _atom_site_symmetry_multiplicity
 _atom_site_fract_x
 _atom_site_fract_y
 _atom_site_fract_z
 _atom_site_occupancy
  Al  Al0  1  0.11122402  0.09699533  0.39787686  1
  Al  Al1  1  0.21051596  0.20594197  0.14610767  1
  Al  Al2  1  0.88589924  0.19220943  0.64849477  1
  Al  Al3  1  0.45419742  0.08372471  0.32364620  1
  Al  Al4  1  0.57132513  0.18848739  0.07805893  1
  Al  Al5  1  0.09724568  0.09225796  0.90512130  1
  Al  Al6  1  0.21109486  0.21119892  0.65287538  1
  Al  Al7  1  0.77877270  0.10064827  0.32802312  1
  Al  Al8  1  0.45868397  0.08736133  0.82540295  1
  Al  Al9  1  0.56482658  0.19054395  0.56835116  1
  Al  Al10  1  0.11224703  0.42645688  0.40046724  1
  Al  Al11  1  0.22121360  0.53864353  0.15150033  1
  Al  Al12  1  0.77707179  0.42066754  0.90293222  1
  Al  Al13  1  0.88745868  0.55009141  0.65149664  1
  Al  Al14  1  0.44061365  0.43578703  0.39801957  1
  Al  Al15  1  0.56156746  0.53463817  0.14930829  1
  Al  Al16  1  0.10248511  0.43750197  0.90275998  1
  Al  Al17  1  0.21785035  0.54163919  0.64879931  1
  Al  Al18  1  0.77974150  0.42734947  0.40120060  1
  Al  Al19  1  0.87940290  0.53956279  0.15373059  1
  Al  Al20  1  0.44457642  0.42937891  0.89886508  1
  Al  Al21  1  0.55544739  0.53676331  0.65442923  1
  Al  Al22  1  0.10649250  0.76604791  0.39746853  1
  Al  Al23  1  0.21879326  0.87711767  0.14942803  1
  Al  Al24  1  0.44056006  0.75947577  0.40395726  1
  Al  Al25  1  0.09951238  0.76552296  0.89995505  1
  Al  Al26  1  0.21457097  0.87441650  0.65317487  1
  Al  Al27  1  0.78340527  0.76269372  0.39196761  1
  Al  Al28  1  0.88349953  0.87057787  0.13983734  1
  Al  Al29  1  0.45428245  0.76316067  0.89700746  1
  Al  Al30  1  0.55836666  0.87652409  0.59526648  1
  B  B31  1  0.77380995  0.07801401  0.86305925  1
  B  B32  1  0.88929749  0.20784642  0.15089405  1
  B  B33  1  0.76867189  0.77773712  0.86056326  1
  B  B34  1  0.88932615  0.87365763  0.59967527  1
  B  B35  1  0.55982726  0.86596827  0.11138532  1
  N  N36  1  0.22087212  0.20790370  0.33253545  1
  N  N37  1  0.08193597  0.10579835  0.09281620  1
  N  N38  1  0.87165550  0.18022240  0.83929697  1
  N  N39  1  0.79616253  0.05884727  0.59571335  1
  N  N40  1  0.55578455  0.20295784  0.38094388  1
  N  N41  1  0.46101042  0.06117365  0.13049084  1
  N  N42  1  0.20814091  0.20957908  0.84391832  1
  N  N43  1  0.10902902  0.09464938  0.58595596  1
  N  N44  1  0.89730234  0.21476724  0.32226190  1
  N  N45  1  0.78778431  0.10967922  0.13630538  1
  N  N46  1  0.58492326  0.18529373  0.88740073  1
  N  N47  1  0.44314218  0.10193463  0.64212115  1
  N  N48  1  0.22130845  0.54116389  0.33795456  1
  N  N49  1  0.10568454  0.43155820  0.08808272  1
  N  N50  1  0.87420176  0.57211569  0.84280132  1
  N  N51  1  0.78014265  0.42503716  0.59230113  1
  N  N52  1  0.55795880  0.53978760  0.33492400  1
  N  N53  1  0.44206923  0.42831418  0.08647432  1
  N  N54  1  0.22209996  0.53880101  0.83515112  1
  N  N55  1  0.10906033  0.42862966  0.58736792  1
  N  N56  1  0.89054472  0.53793998  0.34012192  1
  N  N57  1  0.79119087  0.40048795  0.09136211  1
  N  N58  1  0.55807020  0.53699488  0.84042167  1
  N  N59  1  0.44303816  0.43065879  0.58710657  1
  N  N60  1  0.22331997  0.87262300  0.33594689  1
  N  N61  1  0.11242317  0.75899333  0.08522821  1
  N  N62  1  0.85843031  0.88505191  0.86894361  1
  N  N63  1  0.80056658  0.77154197  0.58545716  1
  N  N64  1  0.55258170  0.87830656  0.40104667  1
  N  N65  1  0.45611059  0.77420192  0.08928355  1
  N  N66  1  0.22338579  0.87046992  0.84072298  1
  N  N67  1  0.08568819  0.77412384  0.58949558  1
  N  N68  1  0.89481633  0.86739527  0.32775095  1
  N  N69  1  0.74248757  0.77291707  0.11771725  1
  N  N70  1  0.58658827  0.85494766  0.84166023  1
  N  N71  1  0.43758965  0.75645578  0.59260888  1
