# generated using pymatgen
data_Al31B5N36
_symmetry_space_group_name_H-M   'P 1'
_cell_length_a   9.18910788
_cell_length_b   9.24296017
_cell_length_c   10.13451040
_cell_angle_alpha   90.14486852
_cell_angle_beta   89.55846550
_cell_angle_gamma   59.78483490
_symmetry_Int_Tables_number   1
_chemical_formula_structural   Al31B5N36
_chemical_formula_sum   'Al31 B5 N36'
_cell_volume   743.78480468
_cell_formula_units_Z   1
loop_
 _symmetry_equiv_pos_site_id
 _symmetry_equiv_pos_as_xyz
  1  'x, y, z'
loop_
 _atom_site_type_symbol
 _atom_site_label
 _atom_site_symmetry_multiplicity
 _atom_site_fract_x
 _atom_site_fract_y
 _atom_site_fract_z
 _atom_site_occupancy
  Al  Al0  1  0.11973842  0.09056059  0.39718490  1
  Al  Al1  1  0.21955009  0.20167463  0.12620880  1
  Al  Al2  1  0.88634927  0.20190712  0.59264690  1
  Al  Al3  1  0.45620012  0.08460210  0.31245720  1
  Al  Al4  1  0.57507975  0.19853108  0.06093143  1
  Al  Al5  1  0.08940339  0.10177405  0.89079396  1
  Al  Al6  1  0.22157814  0.20101949  0.65063400  1
  Al  Al7  1  0.78271198  0.09566585  0.32053714  1
  Al  Al8  1  0.46859066  0.07996164  0.82973548  1
  Al  Al9  1  0.55762696  0.19739075  0.57097246  1
  Al  Al10  1  0.10822286  0.43339297  0.31791848  1
  Al  Al11  1  0.22787030  0.53429877  0.06486969  1
  Al  Al12  1  0.76924744  0.43754382  0.81374282  1
  Al  Al13  1  0.88860765  0.55031974  0.56880818  1
  Al  Al14  1  0.44391082  0.42428025  0.32146016  1
  Al  Al15  1  0.56181172  0.53196455  0.07372913  1
  Al  Al16  1  0.10057732  0.44032086  0.82546289  1
  Al  Al17  1  0.21117214  0.54814988  0.57331542  1
  Al  Al18  1  0.78358526  0.41799291  0.32731487  1
  Al  Al19  1  0.88245667  0.53704199  0.07360731  1
  Al  Al20  1  0.44836756  0.42737214  0.81522916  1
  Al  Al21  1  0.55296510  0.54385893  0.56790087  1
  Al  Al22  1  0.10825625  0.75752308  0.31307529  1
  Al  Al23  1  0.21716913  0.88396802  0.13034154  1
  Al  Al24  1  0.44938276  0.76176930  0.32159380  1
  Al  Al25  1  0.09119006  0.76124010  0.83896566  1
  Al  Al26  1  0.21589324  0.87625666  0.65323308  1
  Al  Al27  1  0.77059583  0.76119778  0.31993380  1
  Al  Al28  1  0.88484020  0.87088491  0.09264598  1
  Al  Al29  1  0.44989890  0.76198364  0.85173593  1
  Al  Al30  1  0.56115969  0.87256064  0.57399784  1
  B  B31  1  0.75687834  0.13486046  0.79923558  1
  B  B32  1  0.88685778  0.20693222  0.10711511  1
  B  B33  1  0.77922817  0.75805024  0.88296637  1
  B  B34  1  0.88095796  0.86921185  0.62809623  1
  B  B35  1  0.56508563  0.86521263  0.07109865  1
  N  N36  1  0.22195697  0.20072513  0.32082416  1
  N  N37  1  0.07639092  0.11384303  0.08063853  1
  N  N38  1  0.86798918  0.20232460  0.83205700  1
  N  N39  1  0.78264123  0.06995605  0.65120518  1
  N  N40  1  0.55675117  0.20179935  0.38211289  1
  N  N41  1  0.46958582  0.06644084  0.11498010  1
  N  N42  1  0.21912061  0.20276831  0.84718602  1
  N  N43  1  0.12228985  0.08799432  0.58456739  1
  N  N44  1  0.88249492  0.20496867  0.39704920  1
  N  N45  1  0.79589959  0.11246893  0.12644690  1
  N  N46  1  0.58563346  0.19722415  0.86934828  1
  N  N47  1  0.45279717  0.08882199  0.64141281  1
  N  N48  1  0.21980497  0.54128881  0.38471423  1
  N  N49  1  0.10622659  0.43645875  0.12576971  1
  N  N50  1  0.86985128  0.56104278  0.88352532  1
  N  N51  1  0.77529701  0.43778649  0.62780948  1
  N  N52  1  0.55402484  0.53925779  0.37676023  1
  N  N53  1  0.44829522  0.41952873  0.13150771  1
  N  N54  1  0.22875915  0.53204731  0.87944880  1
  N  N55  1  0.10666731  0.43279314  0.63554501  1
  N  N56  1  0.88737381  0.53779366  0.37932995  1
  N  N57  1  0.79428926  0.39664523  0.13157400  1
  N  N58  1  0.55476145  0.53567929  0.88781529  1
  N  N59  1  0.44391789  0.42829624  0.62784719  1
  N  N60  1  0.21846129  0.87892531  0.32399104  1
  N  N61  1  0.11964629  0.75271988  0.12000920  1
  N  N62  1  0.87549212  0.84188056  0.90353373  1
  N  N63  1  0.79160998  0.77931979  0.61132285  1
  N  N64  1  0.55078090  0.87416904  0.38688100  1
  N  N65  1  0.45886607  0.77320595  0.11245865  1
  N  N66  1  0.21325887  0.87623072  0.84679189  1
  N  N67  1  0.07481457  0.77696085  0.64143272  1
  N  N68  1  0.88370689  0.87245092  0.33082689  1
  N  N69  1  0.74726901  0.76373087  0.13051953  1
  N  N70  1  0.58414710  0.85771751  0.90336130  1
  N  N71  1  0.45019945  0.75994925  0.63763645  1
