# generated using pymatgen
data_Al31B5N36
_symmetry_space_group_name_H-M   'P 1'
_cell_length_a   9.17322219
_cell_length_b   9.16547084
_cell_length_c   9.80860176
_cell_angle_alpha   89.88819921
_cell_angle_beta   89.67339376
_cell_angle_gamma   60.05282598
_symmetry_Int_Tables_number   1
_chemical_formula_structural   Al31B5N36
_chemical_formula_sum   'Al31 B5 N36'
_cell_volume   714.55896546
_cell_formula_units_Z   1
loop_
 _symmetry_equiv_pos_site_id
 _symmetry_equiv_pos_as_xyz
  1  'x, y, z'
loop_
 _atom_site_type_symbol
 _atom_site_label
 _atom_site_symmetry_multiplicity
 _atom_site_fract_x
 _atom_site_fract_y
 _atom_site_fract_z
 _atom_site_occupancy
  Al  Al0  1  0.10441458  0.09679372  0.31029936  1
  Al  Al1  1  0.21929531  0.20244950  0.06226761  1
  Al  Al2  1  0.88823862  0.19912051  0.57230408  1
  Al  Al3  1  0.44887543  0.08816602  0.30685291  1
  Al  Al4  1  0.56918543  0.19905243  0.05670018  1
  Al  Al5  1  0.10485493  0.09272986  0.81714303  1
  Al  Al6  1  0.22297941  0.20362509  0.56221221  1
  Al  Al7  1  0.78112502  0.09269310  0.31808497  1
  Al  Al8  1  0.45393152  0.08732016  0.81910620  1
  Al  Al9  1  0.56136691  0.19740211  0.56803296  1
  Al  Al10  1  0.10896333  0.42901322  0.31234396  1
  Al  Al11  1  0.22070424  0.54036371  0.06116746  1
  Al  Al12  1  0.77823540  0.42443650  0.81813991  1
  Al  Al13  1  0.88605590  0.54701191  0.56999506  1
  Al  Al14  1  0.44464520  0.42579689  0.31240220  1
  Al  Al15  1  0.56178501  0.53578377  0.06292852  1
  Al  Al16  1  0.10703635  0.43267197  0.81182841  1
  Al  Al17  1  0.21683276  0.54272470  0.56300373  1
  Al  Al18  1  0.78215171  0.42190020  0.31015502  1
  Al  Al19  1  0.88202718  0.54487343  0.05799802  1
  Al  Al20  1  0.45079882  0.42335259  0.81100147  1
  Al  Al21  1  0.55665687  0.53961665  0.56094398  1
  Al  Al22  1  0.10381859  0.76419015  0.32007004  1
  Al  Al23  1  0.21908026  0.87611367  0.06288856  1
  Al  Al24  1  0.44786425  0.76457565  0.30751991  1
  Al  Al25  1  0.09814672  0.76757774  0.80952085  1
  Al  Al26  1  0.21846117  0.87305339  0.56307931  1
  Al  Al27  1  0.77366149  0.76639283  0.31652885  1
  Al  Al28  1  0.87990435  0.88079910  0.05679649  1
  Al  Al29  1  0.45130894  0.76013456  0.81953050  1
  Al  Al30  1  0.56032513  0.87284480  0.56991644  1
  B  B31  1  0.77594504  0.08218391  0.80942665  1
  B  B32  1  0.88720660  0.19939564  0.06304508  1
  B  B33  1  0.77618684  0.77338758  0.81281432  1
  B  B34  1  0.88584639  0.87386775  0.57583751  1
  B  B35  1  0.56530636  0.86927050  0.05653222  1
  N  N36  1  0.22366217  0.20305000  0.36622213  1
  N  N37  1  0.08342770  0.10670883  0.11443703  1
  N  N38  1  0.87761683  0.18898321  0.87960398  1
  N  N39  1  0.78898868  0.06996230  0.63924847  1
  N  N40  1  0.55650009  0.20234690  0.37274736  1
  N  N41  1  0.46001312  0.06935672  0.10866047  1
  N  N42  1  0.22067535  0.20596740  0.87178192  1
  N  N43  1  0.11107388  0.09375884  0.62498448  1
  N  N44  1  0.88744991  0.20497439  0.38129715  1
  N  N45  1  0.79249508  0.10434029  0.12237813  1
  N  N46  1  0.58307854  0.19091611  0.86225597  1
  N  N47  1  0.44278306  0.09412516  0.62742401  1
  N  N48  1  0.22148029  0.53909528  0.37151138  1
  N  N49  1  0.10762045  0.42942106  0.11963952  1
  N  N50  1  0.87615643  0.56809252  0.86439748  1
  N  N51  1  0.77779256  0.42694099  0.62560103  1
  N  N52  1  0.55644180  0.53987657  0.36602968  1
  N  N53  1  0.44491613  0.42456156  0.11916877  1
  N  N54  1  0.22302144  0.54039099  0.86871243  1
  N  N55  1  0.11038527  0.42690242  0.62071651  1
  N  N56  1  0.88540482  0.54215375  0.37354596  1
  N  N57  1  0.79344911  0.40020812  0.11194045  1
  N  N58  1  0.55628825  0.53729731  0.87379160  1
  N  N59  1  0.44437238  0.42748630  0.61903628  1
  N  N60  1  0.22321724  0.87210280  0.36824638  1
  N  N61  1  0.10340093  0.76395385  0.12420814  1
  N  N62  1  0.86435692  0.88403940  0.86401973  1
  N  N63  1  0.78582704  0.77592487  0.64084356  1
  N  N64  1  0.55517701  0.87256098  0.37935515  1
  N  N65  1  0.45864738  0.77432686  0.11120512  1
  N  N66  1  0.22219392  0.86843126  0.87183255  1
  N  N67  1  0.08426128  0.77444541  0.61638002  1
  N  N68  1  0.88295080  0.87465533  0.40045662  1
  N  N69  1  0.75415030  0.77627859  0.12016021  1
  N  N70  1  0.58153748  0.86010843  0.88295722  1
  N  N71  1  0.44424896  0.76134915  0.62565112  1
