# generated using pymatgen
data_Al31B5N36
_symmetry_space_group_name_H-M   'P 1'
_cell_length_a   9.14940461
_cell_length_b   9.12912090
_cell_length_c   10.22936276
_cell_angle_alpha   90.22264332
_cell_angle_beta   89.46244391
_cell_angle_gamma   60.04496679
_symmetry_Int_Tables_number   1
_chemical_formula_structural   Al31B5N36
_chemical_formula_sum   'Al31 B5 N36'
_cell_volume   740.21391694
_cell_formula_units_Z   1
loop_
 _symmetry_equiv_pos_site_id
 _symmetry_equiv_pos_as_xyz
  1  'x, y, z'
loop_
 _atom_site_type_symbol
 _atom_site_label
 _atom_site_symmetry_multiplicity
 _atom_site_fract_x
 _atom_site_fract_y
 _atom_site_fract_z
 _atom_site_occupancy
  Al  Al0  1  0.11530952  0.09300551  0.40761370  1
  Al  Al1  1  0.21109846  0.20576164  0.14334395  1
  Al  Al2  1  0.88766026  0.19951999  0.62468580  1
  Al  Al3  1  0.45407825  0.08274814  0.32448587  1
  Al  Al4  1  0.57556070  0.18531945  0.06788835  1
  Al  Al5  1  0.09745093  0.09505961  0.89439173  1
  Al  Al6  1  0.21284793  0.21349104  0.65609935  1
  Al  Al7  1  0.77973344  0.10559576  0.32539930  1
  Al  Al8  1  0.46125751  0.08676526  0.82461873  1
  Al  Al9  1  0.56479058  0.19130964  0.57532130  1
  Al  Al10  1  0.11139092  0.42475283  0.39991866  1
  Al  Al11  1  0.22281269  0.53709933  0.15166822  1
  Al  Al12  1  0.77908257  0.42126771  0.89038489  1
  Al  Al13  1  0.88727778  0.55435913  0.65345323  1
  Al  Al14  1  0.44212230  0.43248514  0.39922315  1
  Al  Al15  1  0.56153950  0.53192868  0.14693269  1
  Al  Al16  1  0.10376691  0.43838577  0.90281626  1
  Al  Al17  1  0.21721172  0.54307974  0.64873638  1
  Al  Al18  1  0.77549286  0.43130861  0.41101443  1
  Al  Al19  1  0.88015749  0.53709587  0.15223945  1
  Al  Al20  1  0.44530529  0.42805396  0.89554129  1
  Al  Al21  1  0.55236758  0.54141335  0.65686307  1
  Al  Al22  1  0.10275356  0.76798768  0.39811944  1
  Al  Al23  1  0.21728967  0.87721380  0.14846952  1
  Al  Al24  1  0.43929476  0.75753637  0.40232113  1
  Al  Al25  1  0.09878892  0.76570039  0.89957793  1
  Al  Al26  1  0.21489355  0.87446227  0.65666099  1
  Al  Al27  1  0.78254522  0.76211639  0.39036276  1
  Al  Al28  1  0.88470757  0.86820428  0.13889300  1
  Al  Al29  1  0.45496372  0.76445868  0.89813142  1
  Al  Al30  1  0.55550649  0.87603896  0.59468973  1
  B  B31  1  0.77504726  0.07831593  0.81562586  1
  B  B32  1  0.88677886  0.20497398  0.10409389  1
  B  B33  1  0.77225544  0.77653722  0.85785942  1
  B  B34  1  0.88749394  0.87004386  0.61770446  1
  B  B35  1  0.56060050  0.86531290  0.11173730  1
  N  N36  1  0.21795645  0.20560960  0.33026252  1
  N  N37  1  0.07874936  0.10748548  0.08743417  1
  N  N38  1  0.87695874  0.18938018  0.82924712  1
  N  N39  1  0.78486767  0.06057720  0.64990126  1
  N  N40  1  0.55944375  0.19714579  0.38642508  1
  N  N41  1  0.46350812  0.06109133  0.12933148  1
  N  N42  1  0.21313637  0.21041525  0.84632945  1
  N  N43  1  0.12096426  0.09045774  0.59344862  1
  N  N44  1  0.88502420  0.20175157  0.40425246  1
  N  N45  1  0.79279317  0.11341765  0.13436690  1
  N  N46  1  0.58731676  0.18617509  0.87953522  1
  N  N47  1  0.44280379  0.10101459  0.64102650  1
  N  N48  1  0.22103975  0.54040996  0.33920679  1
  N  N49  1  0.10598609  0.43162334  0.08842823  1
  N  N50  1  0.87610085  0.57140210  0.84343188  1
  N  N51  1  0.77401504  0.44218522  0.59917871  1
  N  N52  1  0.55899160  0.53622169  0.33308303  1
  N  N53  1  0.44335228  0.42496156  0.08481975  1
  N  N54  1  0.22213695  0.53968892  0.83453445  1
  N  N55  1  0.10882682  0.42990564  0.58718242  1
  N  N56  1  0.88934821  0.53432944  0.33892844  1
  N  N57  1  0.79252728  0.39703074  0.08420917  1
  N  N58  1  0.55517584  0.54014640  0.84176894  1
  N  N59  1  0.44352752  0.43163615  0.58828162  1
  N  N60  1  0.22089892  0.87303079  0.33510803  1
  N  N61  1  0.11294340  0.75790441  0.08562472  1
  N  N62  1  0.86350305  0.87748007  0.86104005  1
  N  N63  1  0.79870494  0.77487662  0.58492104  1
  N  N64  1  0.55165790  0.87574699  0.39982780  1
  N  N65  1  0.45608876  0.77452570  0.09059877  1
  N  N66  1  0.22459714  0.86926627  0.84293496  1
  N  N67  1  0.08030344  0.77939605  0.59185863  1
  N  N68  1  0.89087251  0.87081989  0.32703319  1
  N  N69  1  0.74310041  0.77122190  0.11884717  1
  N  N70  1  0.58830797  0.85391632  0.84060972  1
  N  N71  1  0.43421466  0.75697758  0.59086515  1
