# generated using pymatgen
data_Al31B5N36
_symmetry_space_group_name_H-M   'P 1'
_cell_length_a   9.18767464
_cell_length_b   9.21895314
_cell_length_c   10.12129381
_cell_angle_alpha   90.06079866
_cell_angle_beta   89.47541509
_cell_angle_gamma   59.72681017
_symmetry_Int_Tables_number   1
_chemical_formula_structural   Al31B5N36
_chemical_formula_sum   'Al31 B5 N36'
_cell_volume   740.32796445
_cell_formula_units_Z   1
loop_
 _symmetry_equiv_pos_site_id
 _symmetry_equiv_pos_as_xyz
  1  'x, y, z'
loop_
 _atom_site_type_symbol
 _atom_site_label
 _atom_site_symmetry_multiplicity
 _atom_site_fract_x
 _atom_site_fract_y
 _atom_site_fract_z
 _atom_site_occupancy
  Al  Al0  1  0.11348425  0.08589138  0.39811248  1
  Al  Al1  1  0.22630535  0.20368424  0.07066579  1
  Al  Al2  1  0.88457244  0.20308722  0.59561217  1
  Al  Al3  1  0.44913751  0.08917910  0.31567528  1
  Al  Al4  1  0.57373412  0.19921141  0.06268234  1
  Al  Al5  1  0.08899377  0.09775568  0.88821776  1
  Al  Al6  1  0.22884522  0.20841355  0.57443521  1
  Al  Al7  1  0.78069997  0.09635862  0.32121107  1
  Al  Al8  1  0.46168077  0.08243959  0.82628884  1
  Al  Al9  1  0.55863499  0.19894943  0.57140504  1
  Al  Al10  1  0.11157958  0.42788614  0.32172689  1
  Al  Al11  1  0.22768351  0.53242560  0.06688790  1
  Al  Al12  1  0.77108803  0.43557511  0.81582928  1
  Al  Al13  1  0.88798808  0.55099313  0.56967874  1
  Al  Al14  1  0.44397811  0.42696464  0.32227380  1
  Al  Al15  1  0.56163640  0.53396990  0.07204179  1
  Al  Al16  1  0.10750293  0.42826723  0.82076278  1
  Al  Al17  1  0.21066390  0.55063938  0.57322464  1
  Al  Al18  1  0.78195069  0.42032588  0.32791957  1
  Al  Al19  1  0.88593069  0.53463432  0.07628652  1
  Al  Al20  1  0.44825477  0.42688568  0.81643104  1
  Al  Al21  1  0.55254243  0.54632118  0.56799768  1
  Al  Al22  1  0.10767761  0.75832261  0.31281884  1
  Al  Al23  1  0.21715314  0.88380511  0.12792652  1
  Al  Al24  1  0.45212748  0.76299076  0.31431704  1
  Al  Al25  1  0.09190707  0.75756861  0.84013870  1
  Al  Al26  1  0.21269704  0.87842575  0.65538945  1
  Al  Al27  1  0.77130515  0.76292634  0.32174917  1
  Al  Al28  1  0.88361758  0.87226536  0.08955422  1
  Al  Al29  1  0.45511944  0.75905462  0.83539502  1
  Al  Al30  1  0.56115712  0.87429648  0.57376483  1
  B  B31  1  0.75612828  0.13138020  0.80119253  1
  B  B32  1  0.88707101  0.20683373  0.10836602  1
  B  B33  1  0.77914613  0.75712061  0.88273988  1
  B  B34  1  0.87994714  0.86973866  0.62879244  1
  B  B35  1  0.56480130  0.86261417  0.07279181  1
  N  N36  1  0.22717899  0.20729368  0.38039096  1
  N  N37  1  0.07544033  0.11384977  0.08245023  1
  N  N38  1  0.86723854  0.20034081  0.83293797  1
  N  N39  1  0.78119175  0.06972463  0.65203302  1
  N  N40  1  0.55591034  0.20372466  0.38219972  1
  N  N41  1  0.46385102  0.06850757  0.12040080  1
  N  N42  1  0.22540504  0.20183514  0.88150080  1
  N  N43  1  0.11818471  0.08785807  0.58851076  1
  N  N44  1  0.87895862  0.20704691  0.39779458  1
  N  N45  1  0.79494975  0.11215041  0.12712222  1
  N  N46  1  0.58376895  0.19563565  0.87001893  1
  N  N47  1  0.44643025  0.09377065  0.63963073  1
  N  N48  1  0.21976743  0.54284012  0.38476986  1
  N  N49  1  0.11248378  0.42634204  0.13271688  1
  N  N50  1  0.87446676  0.55749497  0.88482670  1
  N  N51  1  0.77425374  0.43937156  0.62945236  1
  N  N52  1  0.55276838  0.54307243  0.37800102  1
  N  N53  1  0.44858818  0.42147131  0.13171636  1
  N  N54  1  0.22812672  0.52795247  0.88048403  1
  N  N55  1  0.10879521  0.42995935  0.63408209  1
  N  N56  1  0.88766828  0.53840903  0.37973307  1
  N  N57  1  0.79336574  0.39737982  0.13203556  1
  N  N58  1  0.55472243  0.53664603  0.88661497  1
  N  N59  1  0.44334021  0.43082924  0.62855856  1
  N  N60  1  0.21979420  0.87869586  0.32117746  1
  N  N61  1  0.11733785  0.75262190  0.11935876  1
  N  N62  1  0.87348257  0.84391665  0.90164549  1
  N  N63  1  0.79021479  0.77951569  0.61430469  1
  N  N64  1  0.55065823  0.87461340  0.38742632  1
  N  N65  1  0.46215402  0.77125385  0.11903639  1
  N  N66  1  0.21600771  0.87172978  0.84848999  1
  N  N67  1  0.07388013  0.77695442  0.64280796  1
  N  N68  1  0.88454410  0.87343577  0.33811133  1
  N  N69  1  0.74905946  0.76437223  0.13125165  1
  N  N70  1  0.58273020  0.85663697  0.90357311  1
  N  N71  1  0.45062875  0.76203536  0.64223766  1
