# generated using pymatgen
data_Al31B5N36
_symmetry_space_group_name_H-M   'P 1'
_cell_length_a   9.16808101
_cell_length_b   9.17020665
_cell_length_c   9.86455575
_cell_angle_alpha   89.98992856
_cell_angle_beta   90.25203316
_cell_angle_gamma   60.08642818
_symmetry_Int_Tables_number   1
_chemical_formula_structural   Al31B5N36
_chemical_formula_sum   'Al31 B5 N36'
_cell_volume   718.84867277
_cell_formula_units_Z   1
loop_
 _symmetry_equiv_pos_site_id
 _symmetry_equiv_pos_as_xyz
  1  'x, y, z'
loop_
 _atom_site_type_symbol
 _atom_site_label
 _atom_site_symmetry_multiplicity
 _atom_site_fract_x
 _atom_site_fract_y
 _atom_site_fract_z
 _atom_site_occupancy
  Al  Al0  1  0.10587075  0.09630260  0.39738985  1
  Al  Al1  1  0.21855392  0.20246595  0.15283543  1
  Al  Al2  1  0.88865721  0.19301407  0.65681570  1
  Al  Al3  1  0.44648336  0.09025989  0.39746014  1
  Al  Al4  1  0.56099612  0.20151905  0.14985781  1
  Al  Al5  1  0.10056038  0.09334589  0.90794685  1
  Al  Al6  1  0.22263121  0.20280753  0.65428529  1
  Al  Al7  1  0.78143760  0.08934131  0.38948883  1
  Al  Al8  1  0.45449484  0.08578151  0.90947656  1
  Al  Al9  1  0.56779689  0.19198701  0.65919136  1
  Al  Al10  1  0.10869650  0.42720996  0.40366572  1
  Al  Al11  1  0.22224699  0.53878994  0.15521965  1
  Al  Al12  1  0.77888392  0.42048155  0.90649735  1
  Al  Al13  1  0.88802484  0.54704725  0.65942038  1
  Al  Al14  1  0.44615304  0.42477522  0.40542287  1
  Al  Al15  1  0.55980025  0.53673100  0.15354279  1
  Al  Al16  1  0.10551263  0.43311806  0.90404574  1
  Al  Al17  1  0.21705222  0.54083622  0.65256253  1
  Al  Al18  1  0.78016461  0.42311343  0.39841932  1
  Al  Al19  1  0.88206040  0.53997972  0.14675068  1
  Al  Al20  1  0.44690341  0.42521747  0.90366061  1
  Al  Al21  1  0.55829856  0.53770494  0.65533068  1
  Al  Al22  1  0.10489902  0.76345676  0.39492564  1
  Al  Al23  1  0.21955756  0.87708067  0.15405285  1
  Al  Al24  1  0.44738008  0.76166164  0.39808077  1
  Al  Al25  1  0.09739231  0.76667885  0.90294198  1
  Al  Al26  1  0.21854352  0.87378097  0.65220053  1
  Al  Al27  1  0.77751590  0.76401956  0.38906060  1
  Al  Al28  1  0.88181772  0.87894187  0.12516291  1
  Al  Al29  1  0.45124259  0.76263592  0.90771955  1
  Al  Al30  1  0.56833614  0.87082018  0.65720187  1
  B  B31  1  0.77457507  0.09323017  0.91625239  1
  B  B32  1  0.88465777  0.20724595  0.14937473  1
  B  B33  1  0.75797235  0.78684920  0.91937208  1
  B  B34  1  0.88895176  0.87102398  0.60668142  1
  B  B35  1  0.55355855  0.87101073  0.15166053  1
  N  N36  1  0.22142289  0.20507091  0.34387059  1
  N  N37  1  0.08345764  0.10719700  0.10032039  1
  N  N38  1  0.87408981  0.18709783  0.84757883  1
  N  N39  1  0.79379053  0.06230787  0.58769102  1
  N  N40  1  0.55627899  0.20441727  0.34171748  1
  N  N41  1  0.45429545  0.06984544  0.10159771  1
  N  N42  1  0.22235979  0.20217999  0.84829545  1
  N  N43  1  0.10730395  0.09530825  0.59078933  1
  N  N44  1  0.88643202  0.20457059  0.32017814  1
  N  N45  1  0.78468786  0.11410947  0.08472628  1
  N  N46  1  0.57926192  0.19208963  0.85538268  1
  N  N47  1  0.44698401  0.09110178  0.59321864  1
  N  N48  1  0.22239879  0.53779605  0.34780627  1
  N  N49  1  0.11015559  0.42819767  0.09459836  1
  N  N50  1  0.87533612  0.56032753  0.85336276  1
  N  N51  1  0.78247960  0.42185278  0.59460487  1
  N  N52  1  0.55542289  0.53757016  0.34457281  1
  N  N53  1  0.44322509  0.42752365  0.09430182  1
  N  N54  1  0.22046965  0.54073206  0.84216847  1
  N  N55  1  0.10877254  0.42655869  0.59554414  1
  N  N56  1  0.88705291  0.53946226  0.33996607  1
  N  N57  1  0.78928410  0.40242238  0.09903635  1
  N  N58  1  0.55582751  0.54011390  0.84699658  1
  N  N59  1  0.44756677  0.42226181  0.59852148  1
  N  N60  1  0.22211747  0.87153217  0.34569376  1
  N  N61  1  0.11677801  0.75829972  0.09407262  1
  N  N62  1  0.85746747  0.88792785  0.89237944  1
  N  N63  1  0.79329063  0.77486939  0.58800534  1
  N  N64  1  0.55661118  0.87081658  0.32075044  1
  N  N65  1  0.45374880  0.77428537  0.10134183  1
  N  N66  1  0.22286303  0.87065848  0.84457525  1
  N  N67  1  0.08177121  0.77507636  0.59476373  1
  N  N68  1  0.88782116  0.87173515  0.32402857  1
  N  N69  1  0.74525753  0.77250420  0.08543420  1
  N  N70  1  0.57980172  0.86183424  0.84861651  1
  N  N71  1  0.44882162  0.76239989  0.59312704  1
