# generated using pymatgen
data_Al31B5N36
_symmetry_space_group_name_H-M   'P 1'
_cell_length_a   9.20064215
_cell_length_b   9.20174416
_cell_length_c   9.82540754
_cell_angle_alpha   89.71993472
_cell_angle_beta   89.39402749
_cell_angle_gamma   59.98564880
_symmetry_Int_Tables_number   1
_chemical_formula_structural   Al31B5N36
_chemical_formula_sum   'Al31 B5 N36'
_cell_volume   720.24846252
_cell_formula_units_Z   1
loop_
 _symmetry_equiv_pos_site_id
 _symmetry_equiv_pos_as_xyz
  1  'x, y, z'
loop_
 _atom_site_type_symbol
 _atom_site_label
 _atom_site_symmetry_multiplicity
 _atom_site_fract_x
 _atom_site_fract_y
 _atom_site_fract_z
 _atom_site_occupancy
  Al  Al0  1  0.10662182  0.09640873  0.37611374  1
  Al  Al1  1  0.21921763  0.20358174  0.06303437  1
  Al  Al2  1  0.88362943  0.19946773  0.59762036  1
  Al  Al3  1  0.44920749  0.08783849  0.30485526  1
  Al  Al4  1  0.57117955  0.20004144  0.05498047  1
  Al  Al5  1  0.09811442  0.09467468  0.83930061  1
  Al  Al6  1  0.22842568  0.20767732  0.56634253  1
  Al  Al7  1  0.78168828  0.09244553  0.32273842  1
  Al  Al8  1  0.45500001  0.08695355  0.81895636  1
  Al  Al9  1  0.56025936  0.19698246  0.56388361  1
  Al  Al10  1  0.10969808  0.42964487  0.31093456  1
  Al  Al11  1  0.22137368  0.54011480  0.06008610  1
  Al  Al12  1  0.77510351  0.42817584  0.80982013  1
  Al  Al13  1  0.88712677  0.54882022  0.56736448  1
  Al  Al14  1  0.44462935  0.42598350  0.31140224  1
  Al  Al15  1  0.56316085  0.53398879  0.06383305  1
  Al  Al16  1  0.10670069  0.43333796  0.81198886  1
  Al  Al17  1  0.21764059  0.54300331  0.56218603  1
  Al  Al18  1  0.78211440  0.42263024  0.31807652  1
  Al  Al19  1  0.88308368  0.54425609  0.05831733  1
  Al  Al20  1  0.45199307  0.42245561  0.81009893  1
  Al  Al21  1  0.55621501  0.54102478  0.55847941  1
  Al  Al22  1  0.10369569  0.76346388  0.31904618  1
  Al  Al23  1  0.21798399  0.87557620  0.06605009  1
  Al  Al24  1  0.44793747  0.76525774  0.30595530  1
  Al  Al25  1  0.09728457  0.76650852  0.80927641  1
  Al  Al26  1  0.22334096  0.86408419  0.56831351  1
  Al  Al27  1  0.77328603  0.76680886  0.31470154  1
  Al  Al28  1  0.88035727  0.88252043  0.05507693  1
  Al  Al29  1  0.45172552  0.75950983  0.82112928  1
  Al  Al30  1  0.56035349  0.87218144  0.56982739  1
  B  B31  1  0.77486037  0.08311779  0.79667962  1
  B  B32  1  0.89294658  0.20300104  0.10269237  1
  B  B33  1  0.77613050  0.77363680  0.81156125  1
  B  B34  1  0.88212449  0.87311010  0.57298800  1
  B  B35  1  0.56631596  0.86920038  0.05458994  1
  N  N36  1  0.22686488  0.20691882  0.36718750  1
  N  N37  1  0.07796337  0.11038052  0.09223946  1
  N  N38  1  0.87026387  0.18878074  0.81824241  1
  N  N39  1  0.78321028  0.06147769  0.63010097  1
  N  N40  1  0.55514650  0.20243198  0.36980196  1
  N  N41  1  0.46099155  0.06942186  0.10689900  1
  N  N42  1  0.22046851  0.20615180  0.86984254  1
  N  N43  1  0.11721211  0.09114922  0.59767444  1
  N  N44  1  0.87889623  0.20887977  0.38945188  1
  N  N45  1  0.79511929  0.10731627  0.12433612  1
  N  N46  1  0.58293942  0.19069397  0.86074103  1
  N  N47  1  0.44535669  0.09291098  0.62801885  1
  N  N48  1  0.22167702  0.53900676  0.37070173  1
  N  N49  1  0.10817052  0.42962356  0.11875164  1
  N  N50  1  0.87601967  0.56584867  0.86494847  1
  N  N51  1  0.77462486  0.43680953  0.61918111  1
  N  N52  1  0.55441765  0.54161241  0.36426456  1
  N  N53  1  0.44515889  0.42443842  0.11827753  1
  N  N54  1  0.22371259  0.53947597  0.86813942  1
  N  N55  1  0.11028803  0.42926916  0.62142105  1
  N  N56  1  0.88672950  0.54330277  0.37154931  1
  N  N57  1  0.79523914  0.39805825  0.11810226  1
  N  N58  1  0.55725286  0.53614645  0.87491643  1
  N  N59  1  0.44604690  0.42667934  0.61759291  1
  N  N60  1  0.22590722  0.86573997  0.36847245  1
  N  N61  1  0.10258698  0.76329859  0.12360654  1
  N  N62  1  0.86391155  0.88369926  0.86213995  1
  N  N63  1  0.78588795  0.77403285  0.63979415  1
  N  N64  1  0.55463325  0.87276426  0.37868241  1
  N  N65  1  0.45940547  0.77395389  0.10999357  1
  N  N66  1  0.22198660  0.86622218  0.87189159  1
  N  N67  1  0.08391098  0.77301317  0.61675386  1
  N  N68  1  0.88346502  0.87225702  0.39824855  1
  N  N69  1  0.75434187  0.77702573  0.11851228  1
  N  N70  1  0.58179947  0.85973084  0.88236089  1
  N  N71  1  0.44615171  0.75977172  0.62772604  1
