# generated using pymatgen
data_GdAl17N18
_symmetry_space_group_name_H-M   'P 1'
_cell_length_a   9.69087146
_cell_length_b   9.73018535
_cell_length_c   9.57948430
_cell_angle_alpha   90.04365806
_cell_angle_beta   90.00000218
_cell_angle_gamma   60.13358114
_symmetry_Int_Tables_number   1
_chemical_formula_structural   GdAl17N18
_chemical_formula_sum   'Gd2 Al34 N36'
_cell_volume   783.32060568
_cell_formula_units_Z   2
loop_
 _symmetry_equiv_pos_site_id
 _symmetry_equiv_pos_as_xyz
  1  'x, y, z'
loop_
 _atom_site_type_symbol
 _atom_site_label
 _atom_site_symmetry_multiplicity
 _atom_site_fract_x
 _atom_site_fract_y
 _atom_site_fract_z
 _atom_site_occupancy
  Al  Al0  1  0.11017726  0.09631219  0.37876709  1
  Al  Al1  1  0.22211698  0.20126651  0.12860590  1
  Al  Al2  1  0.77703982  0.09316656  0.88111936  1
  Al  Al3  1  0.89097119  0.20122777  0.63022171  1
  Al  Al4  1  0.44411119  0.09348458  0.37846182  1
  Al  Al5  1  0.55998749  0.19669165  0.13143060  1
  Al  Al6  1  0.11113486  0.09439704  0.88165346  1
  Al  Al7  1  0.22446771  0.20122787  0.63022170  1
  Al  Al8  1  0.77907085  0.09348464  0.37846173  1
  Al  Al9  1  0.89328336  0.20126646  0.12860586  1
  Al  Al10  1  0.44646029  0.09316655  0.88111929  1
  Al  Al11  1  0.55966121  0.19734429  0.62812984  1
  Al  Al12  1  0.11085479  0.42406388  0.38884954  1
  Al  Al13  1  0.78517541  0.42315585  0.87077429  1
  Al  Al14  1  0.88772867  0.54120947  0.62999594  1
  Al  Al15  1  0.44626080  0.42414506  0.39722905  1
  Al  Al16  1  0.10833549  0.42315592  0.87077447  1
  Al  Al17  1  0.21842059  0.54115172  0.62688970  1
  Al  Al18  1  0.78174807  0.42406383  0.38884968  1
  Al  Al19  1  0.89260406  0.53145865  0.12919664  1
  Al  Al20  1  0.44876069  0.41914532  0.86010809  1
  Al  Al21  1  0.55709440  0.54115168  0.62688970  1
  Al  Al22  1  0.10885235  0.76497497  0.38824752  1
  Al  Al23  1  0.21558176  0.88550304  0.13018999  1
  Al  Al24  1  0.77809183  0.76048290  0.88101685  1
  Al  Al25  1  0.88491992  0.87380647  0.62990608  1
  Al  Al26  1  0.44283927  0.76497490  0.38824740  1
  Al  Al27  1  0.55316010  0.87753768  0.12901864  1
  Al  Al28  1  0.10549649  0.77225768  0.87080648  1
  Al  Al29  1  0.21948783  0.87769105  0.62810810  1
  Al  Al30  1  0.77848079  0.75970493  0.37679956  1
  Al  Al31  1  0.88596874  0.87753772  0.12901866  1
  Al  Al32  1  0.43891244  0.77225756  0.87080663  1
  Al  Al33  1  0.55794019  0.87380638  0.62990612  1
  Gd  Gd34  1  0.21780955  0.54149071  0.11897348  1
  Gd  Gd35  1  0.55736685  0.54149040  0.11897348  1
  N  N36  1  0.22234561  0.20629864  0.32987921  1
  N  N37  1  0.10971038  0.09724605  0.08099703  1
  N  N38  1  0.89051313  0.20054861  0.82802711  1
  N  N39  1  0.77956570  0.09248136  0.57655804  1
  N  N40  1  0.55495394  0.20675877  0.33329261  1
  N  N41  1  0.44543708  0.09404869  0.08179394  1
  N  N42  1  0.22560494  0.20054875  0.82802713  1
  N  N43  1  0.11025923  0.09614826  0.57663122  1
  N  N44  1  0.88802251  0.20629864  0.32987919  1
  N  N45  1  0.77718085  0.09404875  0.08179402  1
  N  N46  1  0.56044717  0.19577240  0.82343713  1
  N  N47  1  0.44461962  0.09248130  0.57655813  1
  N  N48  1  0.22281688  0.53865617  0.35927298  1
  N  N49  1  0.10050838  0.40976343  0.06852296  1
  N  N50  1  0.88701271  0.54264143  0.82618252  1
  N  N51  1  0.78227475  0.42408528  0.58719522  1
  N  N52  1  0.55519376  0.53865605  0.35927298  1
  N  N53  1  0.46131083  0.39404506  0.05656340  1
  N  N54  1  0.21726867  0.54304961  0.83248290  1
  N  N55  1  0.11030666  0.42408532  0.58719509  1
  N  N56  1  0.89034572  0.53597523  0.33145124  1
  N  N57  1  0.80639522  0.40976326  0.06852275  1
  N  N58  1  0.55634852  0.54304956  0.83248289  1
  N  N59  1  0.44658174  0.42350316  0.59659713  1
  N  N60  1  0.22209957  0.87246742  0.33283710  1
  N  N61  1  0.09462633  0.79708047  0.06832388  1
  N  N62  1  0.88360565  0.87418342  0.82784638  1
  N  N63  1  0.77812927  0.76040798  0.57602446  1
  N  N64  1  0.55561129  0.87109681  0.32945999  1
  N  N65  1  0.42495980  0.79708020  0.06832405  1
  N  N66  1  0.21904472  0.87857728  0.82332908  1
  N  N67  1  0.10774200  0.76580042  0.58622787  1
  N  N68  1  0.88995850  0.87109680  0.32946002  1
  N  N69  1  0.77963796  0.75739058  0.08251997  1
  N  N70  1  0.55887749  0.87418335  0.82784643  1
  N  N71  1  0.44312416  0.76580034  0.58622775  1
