# generated using pymatgen
data_GdAl17N18
_symmetry_space_group_name_H-M   'P 1'
_cell_length_a   9.49323120
_cell_length_b   9.51113820
_cell_length_c   10.14333504
_cell_angle_alpha   90.08968842
_cell_angle_beta   90.00000018
_cell_angle_gamma   60.06226178
_symmetry_Int_Tables_number   1
_chemical_formula_structural   GdAl17N18
_chemical_formula_sum   'Gd2 Al34 N36'
_cell_volume   793.65064709
_cell_formula_units_Z   2
loop_
 _symmetry_equiv_pos_site_id
 _symmetry_equiv_pos_as_xyz
  1  'x, y, z'
loop_
 _atom_site_type_symbol
 _atom_site_label
 _atom_site_symmetry_multiplicity
 _atom_site_fract_x
 _atom_site_fract_y
 _atom_site_fract_z
 _atom_site_occupancy
  Al  Al0  1  0.11121194  0.09424278  0.39101627  1
  Al  Al1  1  0.22187648  0.20112585  0.14033535  1
  Al  Al2  1  0.77735997  0.09389041  0.89231325  1
  Al  Al3  1  0.89065767  0.20241832  0.64240832  1
  Al  Al4  1  0.44449305  0.09385788  0.39115116  1
  Al  Al5  1  0.55932159  0.19802349  0.14132764  1
  Al  Al6  1  0.11097992  0.09470683  0.89279442  1
  Al  Al7  1  0.22359068  0.20241833  0.64240831  1
  Al  Al8  1  0.77831573  0.09385787  0.39115116  1
  Al  Al9  1  0.89366435  0.20112585  0.14033535  1
  Al  Al10  1  0.44541629  0.09389042  0.89231324  1
  Al  Al11  1  0.55824400  0.20017867  0.64288163  1
  Al  Al12  1  0.11056500  0.42456752  0.40127221  1
  Al  Al13  1  0.78354498  0.42412638  0.88616877  1
  Al  Al14  1  0.88827406  0.54011858  0.64362809  1
  Al  Al15  1  0.44628245  0.42410177  0.40996811  1
  Al  Al16  1  0.10899533  0.42412639  0.88616877  1
  Al  Al17  1  0.21966692  0.53997265  0.64304267  1
  Al  Al18  1  0.78153418  0.42456750  0.40127222  1
  Al  Al19  1  0.89205992  0.53254684  0.13982376  1
  Al  Al20  1  0.44742076  0.42182517  0.88001227  1
  Al  Al21  1  0.55702713  0.53997265  0.64304267  1
  Al  Al22  1  0.11002543  0.76353956  0.40112485  1
  Al  Al23  1  0.21605807  0.88455055  0.13965328  1
  Al  Al24  1  0.77785089  0.76096489  0.89150355  1
  Al  Al25  1  0.88613652  0.87362197  0.64232580  1
  Al  Al26  1  0.44310170  0.76353955  0.40112485  1
  Al  Al27  1  0.55346512  0.87806593  0.14078320  1
  Al  Al28  1  0.10661733  0.76951763  0.88582967  1
  Al  Al29  1  0.22044717  0.87577236  0.64293556  1
  Al  Al30  1  0.77850785  0.75965096  0.39052991  1
  Al  Al31  1  0.88513565  0.87806593  0.14078321  1
  Al  Al32  1  0.44053172  0.76951763  0.88582967  1
  Al  Al33  1  0.55690818  0.87362197  0.64232580  1
  Gd  Gd34  1  0.21671960  0.54157297  0.14196121  1
  Gd  Gd35  1  0.55837411  0.54157298  0.14196121  1
  N  N36  1  0.22227027  0.20594636  0.33233283  1
  N  N37  1  0.10974243  0.09718182  0.08231823  1
  N  N38  1  0.89022878  0.20187473  0.83085039  1
  N  N39  1  0.77840054  0.09359784  0.58047020  1
  N  N40  1  0.55478437  0.20709791  0.33385979  1
  N  N41  1  0.44468213  0.09493275  0.08334621  1
  N  N42  1  0.22456317  0.20187475  0.83085038  1
  N  N43  1  0.11105051  0.09456564  0.58020011  1
  N  N44  1  0.88845005  0.20594634  0.33233283  1
  N  N45  1  0.77705180  0.09493274  0.08334621  1
  N  N46  1  0.55893655  0.19879359  0.82894868  1
  N  N47  1  0.44466827  0.09359784  0.58047020  1
  N  N48  1  0.22338939  0.53755374  0.36434181  1
  N  N49  1  0.10092971  0.41087009  0.07157093  1
  N  N50  1  0.88755353  0.54155963  0.83023291  1
  N  N51  1  0.78177494  0.42493379  0.58918135  1
  N  N52  1  0.55572357  0.53755372  0.36434181  1
  N  N53  1  0.45903005  0.39860659  0.06261917  1
  N  N54  1  0.21851556  0.54171444  0.83576345  1
  N  N55  1  0.10995796  0.42493380  0.58918134  1
  N  N56  1  0.89023897  0.53618875  0.33278484  1
  N  N57  1  0.80486688  0.41087009  0.07157093  1
  N  N58  1  0.55643670  0.54171445  0.83576346  1
  N  N59  1  0.44623082  0.42420506  0.59730904  1
  N  N60  1  0.22325187  0.87016296  0.33300379  1
  N  N61  1  0.09498708  0.79442322  0.07123517  1
  N  N62  1  0.88491704  0.87391589  0.83071330  1
  N  N63  1  0.77817899  0.76030868  0.58053005  1
  N  N64  1  0.55550158  0.87048491  0.33217743  1
  N  N65  1  0.42725638  0.79442323  0.07123517  1
  N  N66  1  0.22006395  0.87653878  0.82874217  1
  N  N67  1  0.10891007  0.76470440  0.58893036  1
  N  N68  1  0.89068020  0.87048490  0.33217744  1
  N  N69  1  0.77910912  0.75844844  0.08381439  1
  N  N70  1  0.55783374  0.87391590  0.83071330  1
  N  N71  1  0.44305222  0.76470440  0.58893035  1
