# generated using pymatgen
data_GdAl17N18
_symmetry_space_group_name_H-M   'P 1'
_cell_length_a   9.99910817
_cell_length_b   10.05084103
_cell_length_c   8.65898093
_cell_angle_alpha   90.00888787
_cell_angle_beta   90.00000307
_cell_angle_gamma   60.17014381
_symmetry_Int_Tables_number   1
_chemical_formula_structural   GdAl17N18
_chemical_formula_sum   'Gd2 Al34 N36'
_cell_volume   754.92380179
_cell_formula_units_Z   2
loop_
 _symmetry_equiv_pos_site_id
 _symmetry_equiv_pos_as_xyz
  1  'x, y, z'
loop_
 _atom_site_type_symbol
 _atom_site_label
 _atom_site_symmetry_multiplicity
 _atom_site_fract_x
 _atom_site_fract_y
 _atom_site_fract_z
 _atom_site_occupancy
  Al  Al0  1  0.10975835  0.09715064  0.36505539  1
  Al  Al1  1  0.22313333  0.20036213  0.11228193  1
  Al  Al2  1  0.77755596  0.09300098  0.86134940  1
  Al  Al3  1  0.89051134  0.20162252  0.61277172  1
  Al  Al4  1  0.44455870  0.09304912  0.36440930  1
  Al  Al5  1  0.56151794  0.19363115  0.11618591  1
  Al  Al6  1  0.11084613  0.09497487  0.86148655  1
  Al  Al7  1  0.22453313  0.20162271  0.61277158  1
  Al  Al8  1  0.77905894  0.09304943  0.36440943  1
  Al  Al9  1  0.89317222  0.20036167  0.11228205  1
  Al  Al10  1  0.44610992  0.09300086  0.86134933  1
  Al  Al11  1  0.55913700  0.19839316  0.61126449  1
  Al  Al12  1  0.10994476  0.42260952  0.37235729  1
  Al  Al13  1  0.78479384  0.42283619  0.85137429  1
  Al  Al14  1  0.88809700  0.54047315  0.61205036  1
  Al  Al15  1  0.44751921  0.42162819  0.37947141  1
  Al  Al16  1  0.10903709  0.42283646  0.85137428  1
  Al  Al17  1  0.21939410  0.54062062  0.60861613  1
  Al  Al18  1  0.78411295  0.42260945  0.37235784  1
  Al  Al19  1  0.89149684  0.53367344  0.11246705  1
  Al  Al20  1  0.44878483  0.41909673  0.84574518  1
  Al  Al21  1  0.55665225  0.54062044  0.60861622  1
  Al  Al22  1  0.10673222  0.76873387  0.37224063  1
  Al  Al23  1  0.21506627  0.88653355  0.11568885  1
  Al  Al24  1  0.77838306  0.75989970  0.86203747  1
  Al  Al25  1  0.88514532  0.87337956  0.61246245  1
  Al  Al26  1  0.44120004  0.76873333  0.37224011  1
  Al  Al27  1  0.55423702  0.87765097  0.11248236  1
  Al  Al28  1  0.10632626  0.77118113  0.85126404  1
  Al  Al29  1  0.21935127  0.87796421  0.61043923  1
  Al  Al30  1  0.77848272  0.75970047  0.36188010  1
  Al  Al31  1  0.88477755  0.87765128  0.11248267  1
  Al  Al32  1  0.43915840  0.77118051  0.85126424  1
  Al  Al33  1  0.55814113  0.87337959  0.61246250  1
  Gd  Gd34  1  0.21615055  0.54300808  0.10600785  1
  Gd  Gd35  1  0.55750932  0.54300698  0.10600782  1
  N  N36  1  0.22357542  0.20433523  0.34900926  1
  N  N37  1  0.10955159  0.09756438  0.09731408  1
  N  N38  1  0.88991262  0.20154668  0.84401354  1
  N  N39  1  0.77981385  0.09200192  0.59492201  1
  N  N40  1  0.55678859  0.20308971  0.35231379  1
  N  N41  1  0.44551354  0.09347655  0.09780166  1
  N  N42  1  0.22520762  0.20154703  0.84401372  1
  N  N43  1  0.10977927  0.09710867  0.59511619  1
  N  N44  1  0.88875665  0.20433519  0.34900923  1
  N  N45  1  0.77767676  0.09347680  0.09780167  1
  N  N46  1  0.55927281  0.19812124  0.83888947  1
  N  N47  1  0.44485123  0.09200190  0.59492215  1
  N  N48  1  0.22104017  0.54009960  0.37322176  1
  N  N49  1  0.10138283  0.41080760  0.09181833  1
  N  N50  1  0.88781409  0.54103910  0.84235784  1
  N  N51  1  0.78305728  0.42326248  0.60147478  1
  N  N52  1  0.55552747  0.54009906  0.37322178  1
  N  N53  1  0.45982959  0.39700745  0.08518647  1
  N  N54  1  0.21868159  0.54207043  0.83494842  1
  N  N55  1  0.11034725  0.42326253  0.60147455  1
  N  N56  1  0.88947389  0.53771928  0.35121392  1
  N  N57  1  0.80447746  0.41080700  0.09181760  1
  N  N58  1  0.55591495  0.54207005  0.83494844  1
  N  N59  1  0.44742463  0.42181742  0.60483170  1
  N  N60  1  0.22049210  0.87568189  0.35404308  1
  N  N61  1  0.09574135  0.79513503  0.09204929  1
  N  N62  1  0.88467827  0.87349550  0.84460726  1
  N  N63  1  0.77834024  0.75998544  0.59465929  1
  N  N64  1  0.55696192  0.87238735  0.34825687  1
  N  N65  1  0.42578980  0.79513393  0.09204983  1
  N  N66  1  0.21938633  0.87789338  0.83801761  1
  N  N67  1  0.10700568  0.76666548  0.60065797  1
  N  N68  1  0.88731652  0.87238760  0.34825698  1
  N  N69  1  0.77955655  0.75755276  0.09890438  1
  N  N70  1  0.55849195  0.87349519  0.84460761  1
  N  N71  1  0.44299519  0.76666517  0.60065781  1
