# generated using pymatgen
data_GdAl17N18
_symmetry_space_group_name_H-M   'P 1'
_cell_length_a   10.01458525
_cell_length_b   10.06675425
_cell_length_c   8.61305266
_cell_angle_alpha   90.00806558
_cell_angle_beta   90.00000466
_cell_angle_gamma   60.17130637
_symmetry_Int_Tables_number   1
_chemical_formula_structural   GdAl17N18
_chemical_formula_sum   'Gd2 Al34 N36'
_cell_volume   753.28141986
_cell_formula_units_Z   2
loop_
 _symmetry_equiv_pos_site_id
 _symmetry_equiv_pos_as_xyz
  1  'x, y, z'
loop_
 _atom_site_type_symbol
 _atom_site_label
 _atom_site_symmetry_multiplicity
 _atom_site_fract_x
 _atom_site_fract_y
 _atom_site_fract_z
 _atom_site_occupancy
  Al  Al0  1  0.10984548  0.09697695  0.36355340  1
  Al  Al1  1  0.22323123  0.20021987  0.11051262  1
  Al  Al2  1  0.77770517  0.09301249  0.85902071  1
  Al  Al3  1  0.89041453  0.20180525  0.61086604  1
  Al  Al4  1  0.44471279  0.09302691  0.36292586  1
  Al  Al5  1  0.56165900  0.19334960  0.11381514  1
  Al  Al6  1  0.11073492  0.09519749  0.85914853  1
  Al  Al7  1  0.22444707  0.20180534  0.61086591  1
  Al  Al8  1  0.77892698  0.09302737  0.36292614  1
  Al  Al9  1  0.89321710  0.20021896  0.11051284  1
  Al  Al10  1  0.44594908  0.09301238  0.85902073  1
  Al  Al11  1  0.55898235  0.19870309  0.60975366  1
  Al  Al12  1  0.10982813  0.42259438  0.37038137  1
  Al  Al13  1  0.78477598  0.42275723  0.84996236  1
  Al  Al14  1  0.88820599  0.54025536  0.61028723  1
  Al  Al15  1  0.44766822  0.42132990  0.37701304  1
  Al  Al16  1  0.10913421  0.42275742  0.84996223  1
  Al  Al17  1  0.21955057  0.54051158  0.60765265  1
  Al  Al18  1  0.78424495  0.42259459  0.37038193  1
  Al  Al19  1  0.89137786  0.53391158  0.11052583  1
  Al  Al20  1  0.44868914  0.41928758  0.84479777  1
  Al  Al21  1  0.55660489  0.54051150  0.60765280  1
  Al  Al22  1  0.10666318  0.76903966  0.37040260  1
  Al  Al23  1  0.21500006  0.88666601  0.11351851  1
  Al  Al24  1  0.77839838  0.75986871  0.85977237  1
  Al  Al25  1  0.88530927  0.87328740  0.61059610  1
  Al  Al26  1  0.44096294  0.76903875  0.37040201  1
  Al  Al27  1  0.55437279  0.87770556  0.11062920  1
  Al  Al28  1  0.10635207  0.77102106  0.84985573  1
  Al  Al29  1  0.21942265  0.87782241  0.60910222  1
  Al  Al30  1  0.77849518  0.75967546  0.36052651  1
  Al  Al31  1  0.88458657  0.87770605  0.11062964  1
  Al  Al32  1  0.43929152  0.77102029  0.84985600  1
  Al  Al33  1  0.55806903  0.87328809  0.61059618  1
  Gd  Gd34  1  0.21593777  0.54316032  0.10559723  1
  Gd  Gd35  1  0.55757019  0.54315891  0.10559715  1
  N  N36  1  0.22375403  0.20403237  0.35103158  1
  N  N37  1  0.10950495  0.09765823  0.09891672  1
  N  N38  1  0.88979729  0.20183581  0.84568640  1
  N  N39  1  0.77975300  0.09202061  0.59713542  1
  N  N40  1  0.55708251  0.20250195  0.35407149  1
  N  N41  1  0.44545219  0.09343068  0.09932813  1
  N  N42  1  0.22503388  0.20183622  0.84568659  1
  N  N43  1  0.10981111  0.09704507  0.59724398  1
  N  N44  1  0.88888118  0.20403231  0.35103152  1
  N  N45  1  0.77778421  0.09343086  0.09932806  1
  N  N46  1  0.55900770  0.19865147  0.84100361  1
  N  N47  1  0.44489343  0.09202092  0.59713556  1
  N  N48  1  0.22080874  0.54027455  0.37357181  1
  N  N49  1  0.10144381  0.41085311  0.09464678  1
  N  N50  1  0.88799889  0.54066979  0.84421621  1
  N  N51  1  0.78307139  0.42327597  0.60228187  1
  N  N52  1  0.55558401  0.54027393  0.37357185  1
  N  N53  1  0.45964891  0.39736880  0.08931572  1
  N  N54  1  0.21896146  0.54183983  0.83495295  1
  N  N55  1  0.11031984  0.42327592  0.60228163  1
  N  N56  1  0.88930595  0.53805559  0.35301177  1
  N  N57  1  0.80437137  0.41085231  0.09464597  1
  N  N58  1  0.55586561  0.54183934  0.83495298  1
  N  N59  1  0.44747605  0.42171472  0.60479731  1
  N  N60  1  0.22035066  0.87596459  0.35571008  1
  N  N61  1  0.09574397  0.79497101  0.09477956  1
  N  N62  1  0.88493430  0.87338619  0.84635368  1
  N  N63  1  0.77838522  0.75989524  0.59697839  1
  N  N64  1  0.55714966  0.87250680  0.35026085  1
  N  N65  1  0.42595106  0.79496951  0.09478010  1
  N  N66  1  0.21948495  0.87769545  0.84000441  1
  N  N67  1  0.10705883  0.76668618  0.60160204  1
  N  N68  1  0.88700895  0.87250727  0.35026094  1
  N  N69  1  0.77953127  0.75760305  0.10026550  1
  N  N70  1  0.55834477  0.87338574  0.84635415  1
  N  N71  1  0.44292165  0.76668588  0.60160193  1
