# generated using pymatgen
data_GdAl17N18
_symmetry_space_group_name_H-M   'P 1'
_cell_length_a   9.83816356
_cell_length_b   9.88430144
_cell_length_c   9.14411215
_cell_angle_alpha   89.98093759
_cell_angle_beta   90.00000142
_cell_angle_gamma   60.15430710
_symmetry_Int_Tables_number   1
_chemical_formula_structural   GdAl17N18
_chemical_formula_sum   'Gd2 Al34 N36'
_cell_volume   771.26806681
_cell_formula_units_Z   2
loop_
 _symmetry_equiv_pos_site_id
 _symmetry_equiv_pos_as_xyz
  1  'x, y, z'
loop_
 _atom_site_type_symbol
 _atom_site_label
 _atom_site_symmetry_multiplicity
 _atom_site_fract_x
 _atom_site_fract_y
 _atom_site_fract_z
 _atom_site_occupancy
  Al  Al0  1  0.11126058  0.09414566  0.33332661  1
  Al  Al1  1  0.22224729  0.20130080  0.08589561  1
  Al  Al2  1  0.77943914  0.09329850  0.83599624  1
  Al  Al3  1  0.89104849  0.20070980  0.58425206  1
  Al  Al4  1  0.44673228  0.09295338  0.33344181  1
  Al  Al5  1  0.56042847  0.19580987  0.08156581  1
  Al  Al6  1  0.10967098  0.09732491  0.83513587  1
  Al  Al7  1  0.22490863  0.20070974  0.58425199  1
  Al  Al8  1  0.77698106  0.09295343  0.33344196  1
  Al  Al9  1  0.89311882  0.20130063  0.08589555  1
  Al  Al10  1  0.44392913  0.09329841  0.83599640  1
  Al  Al11  1  0.56011393  0.19643887  0.58748045  1
  Al  Al12  1  0.10841012  0.42318520  0.34641298  1
  Al  Al13  1  0.78308801  0.42310729  0.82481948  1
  Al  Al14  1  0.88751849  0.54162969  0.58511656  1
  Al  Al15  1  0.44896558  0.41873552  0.35744957  1
  Al  Al16  1  0.11047148  0.42310734  0.82481928  1
  Al  Al17  1  0.21826597  0.54134105  0.59148794  1
  Al  Al18  1  0.78507151  0.42318511  0.34641279  1
  Al  Al19  1  0.89239868  0.53186951  0.08484907  1
  Al  Al20  1  0.44679375  0.42307921  0.81630061  1
  Al  Al21  1  0.55705988  0.54134088  0.59148794  1
  Al  Al22  1  0.10578701  0.77217253  0.34610601  1
  Al  Al23  1  0.21552805  0.88561042  0.08255839  1
  Al  Al24  1  0.77841296  0.75984052  0.83811546  1
  Al  Al25  1  0.88440478  0.87393584  0.58468470  1
  Al  Al26  1  0.43870694  0.77217240  0.34610612  1
  Al  Al27  1  0.55331844  0.87728580  0.08531188  1
  Al  Al28  1  0.10757702  0.76678540  0.82556884  1
  Al  Al29  1  0.21911777  0.87843097  0.58787242  1
  Al  Al30  1  0.77819833  0.76026985  0.33312311  1
  Al  Al31  1  0.88606207  0.87728592  0.08531180  1
  Al  Al32  1  0.44230409  0.76678529  0.82556873  1
  Al  Al33  1  0.55832592  0.87393581  0.58468461  1
  Gd  Gd34  1  0.21768500  0.54171788  0.09745010  1
  Gd  Gd35  1  0.55726400  0.54171775  0.09745011  1
  N  N36  1  0.22596581  0.20021836  0.37547159  1
  N  N37  1  0.10978328  0.09710027  0.12210973  1
  N  N38  1  0.88812048  0.20603284  0.87308316  1
  N  N39  1  0.78001600  0.09206540  0.62731662  1
  N  N40  1  0.56063541  0.19539589  0.38124483  1
  N  N41  1  0.44566836  0.09375036  0.12106136  1
  N  N42  1  0.22251345  0.20603298  0.87308321  1
  N  N43  1  0.10983862  0.09698959  0.62680164  1
  N  N44  1  0.89048272  0.20021837  0.37547163  1
  N  N45  1  0.77724797  0.09375042  0.12106149  1
  N  N46  1  0.55530213  0.20606255  0.86848404  1
  N  N47  1  0.44458538  0.09206532  0.62731675  1
  N  N48  1  0.21723728  0.54318807  0.37488795  1
  N  N49  1  0.10072524  0.41019773  0.13396558  1
  N  N50  1  0.89025068  0.53616555  0.87060291  1
  N  N51  1  0.78298788  0.42340301  0.61538657  1
  N  N52  1  0.55624159  0.54318789  0.37488795  1
  N  N53  1  0.46114340  0.39437988  0.14522673  1
  N  N54  1  0.22223931  0.53918891  0.84189762  1
  N  N55  1  0.11027586  0.42340303  0.61538635  1
  N  N56  1  0.88688022  0.54290627  0.37783062  1
  N  N57  1  0.80574394  0.41019760  0.13396535  1
  N  N58  1  0.55523857  0.53918885  0.84189765  1
  N  N59  1  0.44705176  0.42256314  0.60656319  1
  N  N60  1  0.21890993  0.87884660  0.38169814  1
  N  N61  1  0.09528113  0.79648583  0.13368605  1
  N  N62  1  0.88922901  0.87152269  0.87357110  1
  N  N63  1  0.77809069  0.76048505  0.62796056  1
  N  N64  1  0.55911578  0.87414127  0.37547510  1
  N  N65  1  0.42489948  0.79648565  0.13368619  1
  N  N66  1  0.22145830  0.87375000  0.86800291  1
  N  N67  1  0.10694310  0.76662314  0.61672639  1
  N  N68  1  0.88340944  0.87414129  0.37547518  1
  N  N69  1  0.77967214  0.75732213  0.12008426  1
  N  N70  1  0.55591480  0.87152256  0.87357118  1
  N  N71  1  0.44310027  0.76662304  0.61672625  1
