# generated using pymatgen
data_GdAl17N18
_symmetry_space_group_name_H-M   'P 1'
_cell_length_a   9.49323275
_cell_length_b   9.51113901
_cell_length_c   10.14333780
_cell_angle_alpha   90.08970263
_cell_angle_beta   90.00000017
_cell_angle_gamma   60.06225921
_symmetry_Int_Tables_number   1
_chemical_formula_structural   GdAl17N18
_chemical_formula_sum   'Gd2 Al34 N36'
_cell_volume   793.65103965
_cell_formula_units_Z   2
loop_
 _symmetry_equiv_pos_site_id
 _symmetry_equiv_pos_as_xyz
  1  'x, y, z'
loop_
 _atom_site_type_symbol
 _atom_site_label
 _atom_site_symmetry_multiplicity
 _atom_site_fract_x
 _atom_site_fract_y
 _atom_site_fract_z
 _atom_site_occupancy
  Al  Al0  1  0.11122019  0.09422628  0.39719878  1
  Al  Al1  1  0.22188483  0.20110942  0.14651892  1
  Al  Al2  1  0.77736812  0.09387401  0.89849714  1
  Al  Al3  1  0.89066609  0.20240167  0.64859234  1
  Al  Al4  1  0.44450129  0.09384138  0.39733398  1
  Al  Al5  1  0.55932974  0.19800719  0.14751225  1
  Al  Al6  1  0.11098822  0.09469025  0.89897870  1
  Al  Al7  1  0.22359890  0.20240168  0.64859233  1
  Al  Al8  1  0.77832398  0.09384138  0.39733397  1
  Al  Al9  1  0.89367243  0.20110942  0.14651891  1
  Al  Al10  1  0.44542454  0.09387402  0.89849714  1
  Al  Al11  1  0.55825214  0.20016238  0.64906610  1
  Al  Al12  1  0.11057314  0.42455108  0.40745857  1
  Al  Al13  1  0.78355313  0.42410989  0.89235522  1
  Al  Al14  1  0.88828219  0.54010232  0.64981417  1
  Al  Al15  1  0.44629061  0.42408547  0.41615624  1
  Al  Al16  1  0.10900368  0.42410990  0.89235521  1
  Al  Al17  1  0.21967515  0.53995621  0.64923078  1
  Al  Al18  1  0.78154248  0.42455106  0.40745858  1
  Al  Al19  1  0.89206815  0.53253037  0.14600803  1
  Al  Al20  1  0.44742891  0.42180888  0.88620140  1
  Al  Al21  1  0.55703535  0.53995620  0.64923078  1
  Al  Al22  1  0.11003371  0.76352295  0.40731073  1
  Al  Al23  1  0.21606636  0.88453397  0.14583722  1
  Al  Al24  1  0.77785896  0.76094875  0.89768712  1
  Al  Al25  1  0.88614443  0.87360584  0.64850937  1
  Al  Al26  1  0.44311002  0.76352295  0.40731073  1
  Al  Al27  1  0.55347341  0.87804957  0.14696625  1
  Al  Al28  1  0.10662550  0.76950135  0.89201516  1
  Al  Al29  1  0.22045519  0.87575632  0.64911979  1
  Al  Al30  1  0.77851617  0.75963432  0.39671304  1
  Al  Al31  1  0.88514372  0.87804958  0.14696625  1
  Al  Al32  1  0.44053983  0.76950135  0.89201517  1
  Al  Al33  1  0.55691640  0.87360584  0.64850937  1
  Gd  Gd34  1  0.21672678  0.54155733  0.14814893  1
  Gd  Gd35  1  0.55838257  0.54155734  0.14814893  1
  N  N36  1  0.22227838  0.20593032  0.33851687  1
  N  N37  1  0.10975069  0.09716531  0.08850278  1
  N  N38  1  0.89023700  0.20185841  0.83703522  1
  N  N39  1  0.77840858  0.09358166  0.58665394  1
  N  N40  1  0.55479240  0.20708187  0.34004477  1
  N  N41  1  0.44469043  0.09491653  0.08953044  1
  N  N42  1  0.22457127  0.20185842  0.83703521  1
  N  N43  1  0.11105872  0.09454922  0.58638350  1
  N  N44  1  0.88845797  0.20593031  0.33851687  1
  N  N45  1  0.77705972  0.09491652  0.08953045  1
  N  N46  1  0.55894436  0.19877797  0.83513391  1
  N  N47  1  0.44467642  0.09358166  0.58665395  1
  N  N48  1  0.22339783  0.53753701  0.37052912  1
  N  N49  1  0.10093817  0.41085382  0.07775668  1
  N  N50  1  0.88756181  0.54154308  0.83641909  1
  N  N51  1  0.78178302  0.42491762  0.59536796  1
  N  N52  1  0.55573186  0.53753700  0.37052912  1
  N  N53  1  0.45903755  0.39859160  0.06880764  1
  N  N54  1  0.21852399  0.54169791  0.84195115  1
  N  N55  1  0.10996606  0.42491763  0.59536796  1
  N  N56  1  0.89024738  0.53617194  0.33896966  1
  N  N57  1  0.80487470  0.41085382  0.07775669  1
  N  N58  1  0.55644481  0.54169791  0.84195115  1
  N  N59  1  0.44623877  0.42418915  0.60349679  1
  N  N60  1  0.22326048  0.87014575  0.33918827  1
  N  N61  1  0.09499544  0.79440665  0.07742023  1
  N  N62  1  0.88492530  0.87389954  0.83689762  1
  N  N63  1  0.77818732  0.76029203  0.58671410  1
  N  N64  1  0.55550971  0.87046804  0.33836121  1
  N  N65  1  0.42726460  0.79440665  0.07742022  1
  N  N66  1  0.22007220  0.87652229  0.83492680  1
  N  N67  1  0.10891839  0.76468775  0.59511641  1
  N  N68  1  0.89068894  0.87046803  0.33836121  1
  N  N69  1  0.77911735  0.75843198  0.08999854  1
  N  N70  1  0.55784184  0.87389955  0.83689762  1
  N  N71  1  0.44306055  0.76468774  0.59511641  1
