# generated using pymatgen
data_GdAl17N18
_symmetry_space_group_name_H-M   'P 1'
_cell_length_a   9.49323210
_cell_length_b   9.51113843
_cell_length_c   10.14333738
_cell_angle_alpha   89.91030455
_cell_angle_beta   89.99999994
_cell_angle_gamma   60.06225935
_symmetry_Int_Tables_number   1
_chemical_formula_structural   GdAl17N18
_chemical_formula_sum   'Gd2 Al34 N36'
_cell_volume   793.65090473
_cell_formula_units_Z   2
loop_
 _symmetry_equiv_pos_site_id
 _symmetry_equiv_pos_as_xyz
  1  'x, y, z'
loop_
 _atom_site_type_symbol
 _atom_site_label
 _atom_site_symmetry_multiplicity
 _atom_site_fract_x
 _atom_site_fract_y
 _atom_site_fract_z
 _atom_site_occupancy
  Al  Al0  1  0.11095204  0.09476260  0.31158515  1
  Al  Al1  1  0.22184864  0.20118175  0.06404501  1
  Al  Al2  1  0.77828782  0.09391375  0.81322978  1
  Al  Al3  1  0.89062988  0.20247405  0.56197146  1
  Al  Al4  1  0.44538839  0.09394632  0.31206661  1
  Al  Al5  1  0.55929356  0.19807953  0.06305172  1
  Al  Al6  1  0.11118400  0.09429866  0.81336496  1
  Al  Al7  1  0.22356273  0.20247406  0.56197146  1
  Al  Al8  1  0.77733195  0.09394632  0.31206661  1
  Al  Al9  1  0.89363629  0.20118175  0.06404501  1
  Al  Al10  1  0.44446508  0.09391375  0.81322978  1
  Al  Al11  1  0.55821601  0.20023464  0.56149786  1
  Al  Al12  1  0.10896751  0.42418223  0.31820910  1
  Al  Al13  1  0.78150630  0.42462343  0.80310571  1
  Al  Al14  1  0.88824601  0.54017467  0.56074999  1
  Al  Al15  1  0.44739276  0.42188116  0.32436370  1
  Al  Al16  1  0.11053695  0.42462345  0.80310571  1
  Al  Al17  1  0.21963893  0.54002858  0.56133389  1
  Al  Al18  1  0.78351695  0.42418222  0.31820910  1
  Al  Al19  1  0.89203199  0.53260268  0.06455607  1
  Al  Al20  1  0.44625440  0.42415786  0.79440840  1
  Al  Al21  1  0.55699918  0.54002857  0.56133390  1
  Al  Al22  1  0.10658935  0.76957362  0.31854897  1
  Al  Al23  1  0.21603020  0.88460627  0.06472682  1
  Al  Al24  1  0.77847999  0.75970669  0.81385089  1
  Al  Al25  1  0.88610828  0.87367814  0.56205436  1
  Al  Al26  1  0.44050371  0.76957362  0.31854898  1
  Al  Al27  1  0.55343722  0.87812186  0.06359751  1
  Al  Al28  1  0.10999750  0.76359539  0.80325346  1
  Al  Al29  1  0.22041902  0.87582865  0.56144406  1
  Al  Al30  1  0.77782282  0.76102102  0.31287659  1
  Al  Al31  1  0.88510760  0.87812187  0.06359751  1
  Al  Al32  1  0.44307379  0.76359538  0.80325346  1
  Al  Al33  1  0.55688025  0.87367814  0.56205436  1
  Gd  Gd34  1  0.21669089  0.54162943  0.06241575  1
  Gd  Gd35  1  0.55834634  0.54162945  0.06241575  1
  N  N36  1  0.22453515  0.20193072  0.37352877  1
  N  N37  1  0.10971452  0.09723763  0.12206130  1
  N  N38  1  0.88842182  0.20600263  0.87204718  1
  N  N39  1  0.77837246  0.09365396  0.62390994  1
  N  N40  1  0.55890831  0.19885006  0.37543025  1
  N  N41  1  0.44465426  0.09498880  0.12103349  1
  N  N42  1  0.22224220  0.20600265  0.87204718  1
  N  N43  1  0.11102253  0.09462161  0.62418032  1
  N  N44  1  0.89020082  0.20193070  0.37352876  1
  N  N45  1  0.77702360  0.09498879  0.12103349  1
  N  N46  1  0.55475622  0.20715421  0.87051934  1
  N  N47  1  0.44464023  0.09365397  0.62390994  1
  N  N48  1  0.21848775  0.54177026  0.36861358  1
  N  N49  1  0.10090197  0.41092611  0.13280761  1
  N  N50  1  0.89021118  0.53624433  0.87159454  1
  N  N51  1  0.78174688  0.42498992  0.61519642  1
  N  N52  1  0.55640867  0.54177027  0.36861358  1
  N  N53  1  0.45900155  0.39866358  0.14175737  1
  N  N54  1  0.22336157  0.53760946  0.84003548  1
  N  N55  1  0.10992988  0.42498993  0.61519642  1
  N  N56  1  0.88752562  0.54161544  0.37414513  1
  N  N57  1  0.80483859  0.41092611  0.13280760  1
  N  N58  1  0.55569566  0.53760944  0.84003547  1
  N  N59  1  0.44620264  0.42426139  0.60706783  1
  N  N60  1  0.22003601  0.87659465  0.37563719  1
  N  N61  1  0.09495925  0.79447895  0.13314394  1
  N  N62  1  0.89065267  0.87054048  0.87220278  1
  N  N63  1  0.77815112  0.76036443  0.62384988  1
  N  N64  1  0.55780571  0.87397186  0.37366627  1
  N  N65  1  0.42722847  0.79447895  0.13314394  1
  N  N66  1  0.22322422  0.87021825  0.87137584  1
  N  N67  1  0.10888217  0.76476019  0.61544785  1
  N  N68  1  0.88488910  0.87397186  0.37366626  1
  N  N69  1  0.77908118  0.75850431  0.12056537  1
  N  N70  1  0.55547353  0.87054048  0.87220278  1
  N  N71  1  0.44302432  0.76476019  0.61544785  1
