# generated using pymatgen
data_GdAl17N18
_symmetry_space_group_name_H-M   'P 1'
_cell_length_a   9.49323366
_cell_length_b   9.51116047
_cell_length_c   10.14334088
_cell_angle_alpha   90.08943862
_cell_angle_beta   89.99999897
_cell_angle_gamma   60.06232948
_symmetry_Int_Tables_number   1
_chemical_formula_structural   GdAl17N18
_chemical_formula_sum   'Gd2 Al34 N36'
_cell_volume   793.65371579
_cell_formula_units_Z   2
loop_
 _symmetry_equiv_pos_site_id
 _symmetry_equiv_pos_as_xyz
  1  'x, y, z'
loop_
 _atom_site_type_symbol
 _atom_site_label
 _atom_site_symmetry_multiplicity
 _atom_site_fract_x
 _atom_site_fract_y
 _atom_site_fract_z
 _atom_site_occupancy
  Al  Al0  1  0.11122996  0.09420676  0.41233725  1
  Al  Al1  1  0.22190522  0.20107792  0.16165216  1
  Al  Al2  1  0.77739419  0.09381886  0.91362741  1
  Al  Al3  1  0.89068301  0.20235907  0.66372814  1
  Al  Al4  1  0.44452011  0.09380540  0.41246924  1
  Al  Al5  1  0.55935093  0.19796480  0.16264724  1
  Al  Al6  1  0.11100897  0.09464874  0.91410973  1
  Al  Al7  1  0.22362461  0.20235907  0.66372814  1
  Al  Al8  1  0.77834118  0.09380539  0.41246925  1
  Al  Al9  1  0.89368350  0.20107794  0.16165216  1
  Al  Al10  1  0.44545362  0.09381887  0.91362741  1
  Al  Al11  1  0.55827651  0.20011368  0.66419827  1
  Al  Al12  1  0.11059391  0.42452272  0.42259386  1
  Al  Al13  1  0.78357426  0.42406211  0.90749472  1
  Al  Al14  1  0.88830945  0.54004781  0.66494907  1
  Al  Al15  1  0.44630667  0.42405337  0.43128794  1
  Al  Al16  1  0.10903030  0.42406210  0.90749470  1
  Al  Al17  1  0.21970202  0.53991145  0.66437128  1
  Al  Al18  1  0.78155010  0.42452270  0.42259386  1
  Al  Al19  1  0.89208579  0.53249503  0.16115047  1
  Al  Al20  1  0.44745690  0.42175288  0.90134248  1
  Al  Al21  1  0.55705325  0.53991146  0.66437129  1
  Al  Al22  1  0.11005100  0.76349324  0.42244479  1
  Al  Al23  1  0.21607676  0.88451317  0.16097502  1
  Al  Al24  1  0.77788766  0.76089135  0.91281803  1
  Al  Al25  1  0.88617155  0.87355255  0.66364298  1
  Al  Al26  1  0.44312249  0.76349324  0.42244479  1
  Al  Al27  1  0.55349273  0.87801258  0.16209856  1
  Al  Al28  1  0.10665112  0.76945734  0.90714927  1
  Al  Al29  1  0.22047524  0.87571624  0.66425149  1
  Al  Al30  1  0.77853445  0.75959781  0.41185193  1
  Al  Al31  1  0.88516141  0.87801258  0.16209857  1
  Al  Al32  1  0.44055823  0.76945736  0.90714926  1
  Al  Al33  1  0.55694261  0.87355257  0.66364298  1
  Gd  Gd34  1  0.21674695  0.54152772  0.16328021  1
  Gd  Gd35  1  0.55839189  0.54152778  0.16328022  1
  N  N36  1  0.22229631  0.20590230  0.35365145  1
  N  N37  1  0.10976266  0.09714131  0.10363593  1
  N  N38  1  0.89025575  0.20181321  0.85217169  1
  N  N39  1  0.77843402  0.09353025  0.60178823  1
  N  N40  1  0.55481009  0.20704653  0.35518020  1
  N  N41  1  0.44471161  0.09487545  0.10466245  1
  N  N42  1  0.22459773  0.20181320  0.85217168  1
  N  N43  1  0.11107673  0.09451323  0.60152081  1
  N  N44  1  0.88846809  0.20590229  0.35365145  1
  N  N45  1  0.77707961  0.09487544  0.10466245  1
  N  N46  1  0.55896993  0.19872683  0.85026630  1
  N  N47  1  0.44470242  0.09353026  0.60178823  1
  N  N48  1  0.22341457  0.53751052  0.38565738  1
  N  N49  1  0.10095411  0.41082465  0.09289791  1
  N  N50  1  0.88759054  0.54148559  0.85155462  1
  N  N51  1  0.78179776  0.42487500  0.61050261  1
  N  N52  1  0.55574163  0.53751052  0.38565739  1
  N  N53  1  0.45905799  0.39855065  0.08394821  1
  N  N54  1  0.21855179  0.54165107  0.85709249  1
  N  N55  1  0.10999396  0.42487500  0.61050261  1
  N  N56  1  0.89026410  0.53613853  0.35410982  1
  N  N57  1  0.80488781  0.41082469  0.09289795  1
  N  N58  1  0.55646381  0.54165109  0.85709251  1
  N  N59  1  0.44626227  0.42414218  0.61862887  1
  N  N60  1  0.22326941  0.87012792  0.35432585  1
  N  N61  1  0.09501346  0.79437992  0.09255456  1
  N  N62  1  0.88495418  0.87384241  0.85203076  1
  N  N63  1  0.77821363  0.76023945  0.60185029  1
  N  N64  1  0.55552856  0.87043304  0.35349483  1
  N  N65  1  0.42727330  0.79437997  0.09255455  1
  N  N66  1  0.22009337  0.87647994  0.85005923  1
  N  N67  1  0.10894434  0.76464172  0.61025029  1
  N  N68  1  0.89070514  0.87043302  0.35349484  1
  N  N69  1  0.77913801  0.75839068  0.10513162  1
  N  N70  1  0.55787009  0.87384243  0.85203075  1
  N  N71  1  0.44308066  0.76464173  0.61025029  1
