# generated using pymatgen
data_GdAl17N18
_symmetry_space_group_name_H-M   'P 1'
_cell_length_a   9.86117214
_cell_length_b   9.90817396
_cell_length_c   9.07512262
_cell_angle_alpha   89.98425773
_cell_angle_beta   90.00000158
_cell_angle_gamma   60.15681623
_symmetry_Int_Tables_number   1
_chemical_formula_structural   GdAl17N18
_chemical_formula_sum   'Gd2 Al34 N36'
_cell_volume   769.11162058
_cell_formula_units_Z   2
loop_
 _symmetry_equiv_pos_site_id
 _symmetry_equiv_pos_as_xyz
  1  'x, y, z'
loop_
 _atom_site_type_symbol
 _atom_site_label
 _atom_site_symmetry_multiplicity
 _atom_site_fract_x
 _atom_site_fract_y
 _atom_site_fract_z
 _atom_site_occupancy
  Al  Al0  1  0.11125239  0.09416204  0.33469935  1
  Al  Al1  1  0.22231352  0.20124013  0.08699717  1
  Al  Al2  1  0.77944700  0.09327694  0.83697217  1
  Al  Al3  1  0.89100589  0.20073290  0.58543476  1
  Al  Al4  1  0.44672014  0.09293762  0.33473629  1
  Al  Al5  1  0.56053557  0.19559568  0.08249264  1
  Al  Al6  1  0.10962311  0.09742068  0.83603315  1
  Al  Al7  1  0.22492815  0.20073284  0.58543467  1
  Al  Al8  1  0.77700898  0.09293767  0.33473646  1
  Al  Al9  1  0.89311329  0.20123993  0.08699711  1
  Al  Al10  1  0.44394285  0.09327684  0.83697234  1
  Al  Al11  1  0.56008403  0.19649867  0.58869241  1
  Al  Al12  1  0.10845521  0.42317899  0.34783186  1
  Al  Al13  1  0.78325384  0.42299458  0.82591534  1
  Al  Al14  1  0.88754020  0.54158627  0.58636785  1
  Al  Al15  1  0.44898627  0.41869414  0.35847382  1
  Al  Al16  1  0.11041839  0.42299463  0.82591512  1
  Al  Al17  1  0.21832799  0.54131030  0.59283696  1
  Al  Al18  1  0.78503265  0.42317889  0.34783168  1
  Al  Al19  1  0.89231034  0.53204623  0.08594209  1
  Al  Al20  1  0.44686932  0.42292807  0.81739350  1
  Al  Al21  1  0.55702863  0.54131011  0.59283697  1
  Al  Al22  1  0.10586662  0.77208162  0.34754793  1
  Al  Al23  1  0.21549084  0.88568482  0.08344644  1
  Al  Al24  1  0.77840766  0.75985109  0.83913897  1
  Al  Al25  1  0.88441269  0.87391560  0.58588065  1
  Al  Al26  1  0.43871821  0.77208148  0.34754803  1
  Al  Al27  1  0.55340501  0.87728486  0.08640287  1
  Al  Al28  1  0.10741407  0.76704270  0.82665811  1
  Al  Al29  1  0.21910877  0.87844895  0.58918803  1
  Al  Al30  1  0.77822128  0.76022392  0.33438368  1
  Al  Al31  1  0.88597640  0.87728500  0.08640279  1
  Al  Al32  1  0.44220971  0.76704257  0.82665800  1
  Al  Al33  1  0.55833822  0.87391558  0.58588055  1
  Gd  Gd34  1  0.21758910  0.54181437  0.09843320  1
  Gd  Gd35  1  0.55726344  0.54181422  0.09843321  1
  N  N36  1  0.22595580  0.20027711  0.37438738  1
  N  N37  1  0.10977686  0.09711314  0.12102459  1
  N  N38  1  0.88817707  0.20590345  0.87179134  1
  N  N39  1  0.78003850  0.09203166  0.62613117  1
  N  N40  1  0.56057245  0.19552184  0.38027317  1
  N  N41  1  0.44568371  0.09371214  0.11994290  1
  N  N42  1  0.22258627  0.20590361  0.87179141  1
  N  N43  1  0.10979339  0.09708008  0.62554613  1
  N  N44  1  0.89043399  0.20027712  0.37438743  1
  N  N45  1  0.77727085  0.09371221  0.11994304  1
  N  N46  1  0.55540251  0.20586179  0.86714598  1
  N  N47  1  0.44459664  0.09203157  0.62613131  1
  N  N48  1  0.21732046  0.54312984  0.37470492  1
  N  N49  1  0.10079393  0.41029627  0.13241923  1
  N  N50  1  0.89019563  0.53627567  0.86921070  1
  N  N51  1  0.78302874  0.42334602  0.61430966  1
  N  N52  1  0.55621666  0.54312965  0.37470493  1
  N  N53  1  0.46104178  0.39458311  0.14343400  1
  N  N54  1  0.22213575  0.53927668  0.84078706  1
  N  N55  1  0.11029200  0.42334604  0.61430944  1
  N  N56  1  0.88692950  0.54280772  0.37676954  1
  N  N57  1  0.80557675  0.41029611  0.13241898  1
  N  N58  1  0.55525438  0.53927660  0.84078709  1
  N  N59  1  0.44710763  0.42245143  0.60589229  1
  N  N60  1  0.21893764  0.87879116  0.38077073  1
  N  N61  1  0.09538442  0.79631565  0.13207203  1
  N  N62  1  0.88903952  0.87161829  0.87229722  1
  N  N63  1  0.77810110  0.76046422  0.62674124  1
  N  N64  1  0.55908958  0.87409691  0.37434214  1
  N  N65  1  0.42496633  0.79631544  0.13207218  1
  N  N66  1  0.22133904  0.87398850  0.86644209  1
  N  N67  1  0.10688836  0.76666454  0.61565610  1
  N  N68  1  0.88347996  0.87409694  0.37434223  1
  N  N69  1  0.77966482  0.75733673  0.11893771  1
  N  N70  1  0.55600867  0.87161814  0.87229731  1
  N  N71  1  0.44311359  0.76666442  0.61565596  1
