# generated using pymatgen
data_GdAl17N18
_symmetry_space_group_name_H-M   'P 1'
_cell_length_a   9.98233435
_cell_length_b   10.03361865
_cell_length_c   8.70909913
_cell_angle_alpha   90.01046898
_cell_angle_beta   90.00000262
_cell_angle_gamma   60.16895864
_symmetry_Int_Tables_number   1
_chemical_formula_structural   GdAl17N18
_chemical_formula_sum   'Gd2 Al34 N36'
_cell_volume   756.71169756
_cell_formula_units_Z   2
loop_
 _symmetry_equiv_pos_site_id
 _symmetry_equiv_pos_as_xyz
  1  'x, y, z'
loop_
 _atom_site_type_symbol
 _atom_site_label
 _atom_site_symmetry_multiplicity
 _atom_site_fract_x
 _atom_site_fract_y
 _atom_site_fract_z
 _atom_site_occupancy
  Al  Al0  1  0.10968742  0.09729230  0.36641371  1
  Al  Al1  1  0.22302698  0.20051213  0.11395359  1
  Al  Al2  1  0.77742392  0.09299604  0.86356592  1
  Al  Al3  1  0.89061544  0.20143385  0.61459659  1
  Al  Al4  1  0.44442737  0.09306446  0.36575844  1
  Al  Al5  1  0.56137688  0.19391311  0.11825511  1
  Al  Al6  1  0.11094280  0.09478148  0.86373701  1
  Al  Al7  1  0.22461767  0.20143405  0.61459647  1
  Al  Al8  1  0.77917490  0.09306471  0.36575847  1
  Al  Al9  1  0.89312833  0.20051181  0.11395366  1
  Al  Al10  1  0.44624690  0.09299593  0.86356581  1
  Al  Al11  1  0.55928987  0.19808725  0.61265507  1
  Al  Al12  1  0.11004754  0.42262998  0.37424635  1
  Al  Al13  1  0.78482246  0.42290528  0.85275926  1
  Al  Al14  1  0.88798589  0.54069528  0.61375799  1
  Al  Al15  1  0.44740016  0.42186634  0.38160714  1
  Al  Al16  1  0.10893926  0.42290554  0.85275933  1
  Al  Al17  1  0.21924800  0.54072074  0.60956148  1
  Al  Al18  1  0.78398957  0.42262986  0.37424686  1
  Al  Al19  1  0.89162922  0.53340859  0.11433129  1
  Al  Al20  1  0.44884713  0.41897227  0.84649865  1
  Al  Al21  1  0.55669817  0.54072056  0.60956153  1
  Al  Al22  1  0.10679899  0.76845166  0.37400728  1
  Al  Al23  1  0.21513769  0.88639079  0.11764208  1
  Al  Al24  1  0.77836764  0.75993078  0.86425828  1
  Al  Al25  1  0.88498000  0.87346836  0.61426456  1
  Al  Al26  1  0.44141558  0.76845128  0.37400681  1
  Al  Al27  1  0.55409003  0.87759679  0.11422860  1
  Al  Al28  1  0.10628696  0.77134343  0.85267149  1
  Al  Al29  1  0.21928134  0.87810392  0.61177029  1
  Al  Al30  1  0.77846765  0.75973074  0.36314734  1
  Al  Al31  1  0.88497899  0.87759703  0.11422883  1
  Al  Al32  1  0.43903574  0.77134290  0.85267168  1
  Al  Al33  1  0.55821778  0.87346823  0.61426460  1
  Gd  Gd34  1  0.21634463  0.54286190  0.10645749  1
  Gd  Gd35  1  0.55746123  0.54286099  0.10645748  1
  N  N36  1  0.22341353  0.20461933  0.34706580  1
  N  N37  1  0.10959752  0.09747229  0.09582670  1
  N  N38  1  0.89002808  0.20127656  0.84244658  1
  N  N39  1  0.77987418  0.09198296  0.59286460  1
  N  N40  1  0.55654608  0.20357466  0.35070725  1
  N  N41  1  0.44556890  0.09351887  0.09636569  1
  N  N42  1  0.22536223  0.20127689  0.84244672  1
  N  N43  1  0.10975295  0.09716121  0.59308782  1
  N  N44  1  0.88863431  0.20461929  0.34706577  1
  N  N45  1  0.77757899  0.09351910  0.09636574  1
  N  N46  1  0.55949479  0.19767729  0.83702453  1
  N  N47  1  0.44480980  0.09198285  0.59286475  1
  N  N48  1  0.22122222  0.53995674  0.37278873  1
  N  N49  1  0.10131013  0.41074898  0.08914362  1
  N  N50  1  0.88763725  0.54139268  0.84059937  1
  N  N51  1  0.78305259  0.42324779  0.60064299  1
  N  N52  1  0.55548822  0.53995626  0.37278874  1
  N  N53  1  0.46000909  0.39664846  0.08171481  1
  N  N54  1  0.21845194  0.54226429  0.83492984  1
  N  N55  1  0.11036653  0.42324788  0.60064275  1
  N  N56  1  0.88962875  0.53740937  0.34944844  1
  N  N57  1  0.80460857  0.41074848  0.08914295  1
  N  N58  1  0.55595075  0.54226398  0.83492986  1
  N  N59  1  0.44737606  0.42191453  0.60476650  1
  N  N60  1  0.22063337  0.87539944  0.35240624  1
  N  N61  1  0.09572218  0.79532015  0.08944231  1
  N  N62  1  0.88443022  0.87359995  0.84295985  1
  N  N63  1  0.77829678  0.76007249  0.59244482  1
  N  N64  1  0.55678055  0.87226979  0.34633332  1
  N  N65  1  0.42562396  0.79531926  0.08944283  1
  N  N66  1  0.21928693  0.87809246  0.83619334  1
  N  N67  1  0.10695487  0.76665376  0.59971322  1
  N  N68  1  0.88761566  0.87226996  0.34633341  1
  N  N69  1  0.77958242  0.75750118  0.09758829  1
  N  N70  1  0.55863581  0.87359969  0.84296012  1
  N  N71  1  0.44305770  0.76665346  0.59971303  1
