# generated using pymatgen
data_GdAl17N18
_symmetry_space_group_name_H-M   'P 1'
_cell_length_a   9.81460295
_cell_length_b   9.86003702
_cell_length_c   9.21410285
_cell_angle_alpha   90.03011458
_cell_angle_beta   90.00000245
_cell_angle_gamma   60.15233045
_symmetry_Int_Tables_number   1
_chemical_formula_structural   GdAl17N18
_chemical_formula_sum   'Gd2 Al34 N36'
_cell_volume   773.39164829
_cell_formula_units_Z   2
loop_
 _symmetry_equiv_pos_site_id
 _symmetry_equiv_pos_as_xyz
  1  'x, y, z'
loop_
 _atom_site_type_symbol
 _atom_site_label
 _atom_site_symmetry_multiplicity
 _atom_site_fract_x
 _atom_site_fract_y
 _atom_site_fract_z
 _atom_site_occupancy
  Al  Al0  1  0.10973886  0.09718905  0.37462037  1
  Al  Al1  1  0.22227734  0.20135677  0.12425069  1
  Al  Al2  1  0.77693338  0.09301735  0.87670328  1
  Al  Al3  1  0.89116512  0.20066440  0.62592212  1
  Al  Al4  1  0.44397408  0.09324674  0.37421331  1
  Al  Al5  1  0.56035173  0.19596318  0.12843056  1
  Al  Al6  1  0.11125542  0.09415600  0.87721267  1
  Al  Al7  1  0.22483719  0.20066455  0.62592210  1
  Al  Al8  1  0.77944582  0.09324685  0.37421318  1
  Al  Al9  1  0.89303284  0.20135669  0.12425065  1
  Al  Al10  1  0.44671598  0.09301731  0.87670316  1
  Al  Al11  1  0.56001457  0.19663764  0.62279440  1
  Al  Al12  1  0.11055897  0.42320296  0.38531156  1
  Al  Al13  1  0.78512320  0.42315376  0.86399111  1
  Al  Al14  1  0.88749957  0.54166773  0.62511900  1
  Al  Al15  1  0.44673601  0.42319466  0.39339772  1
  Al  Al16  1  0.10838983  0.42315388  0.86399137  1
  Al  Al17  1  0.21839056  0.54124250  0.61899250  1
  Al  Al18  1  0.78290486  0.42320289  0.38531179  1
  Al  Al19  1  0.89253435  0.53159811  0.12524499  1
  Al  Al20  1  0.44890122  0.41886422  0.85322008  1
  Al  Al21  1  0.55703368  0.54124245  0.61899251  1
  Al  Al22  1  0.10775514  0.76647716  0.38464059  1
  Al  Al23  1  0.21557210  0.88552224  0.12735297  1
  Al  Al24  1  0.77819584  0.76027482  0.87723471  1
  Al  Al25  1  0.88437724  0.87388510  0.62555946  1
  Al  Al26  1  0.44243419  0.76647704  0.38464037  1
  Al  Al27  1  0.55316068  0.87738986  0.12473265  1
  Al  Al28  1  0.10570823  0.77229525  0.86423237  1
  Al  Al29  1  0.21910160  0.87846350  0.62244851  1
  Al  Al30  1  0.77843769  0.75979104  0.37180595  1
  Al  Al31  1  0.88611586  0.87738993  0.12473270  1
  Al  Al32  1  0.43866307  0.77229504  0.86423262  1
  Al  Al33  1  0.55840417  0.87388495  0.62555951  1
  Gd  Gd34  1  0.21750084  0.54185188  0.11269201  1
  Gd  Gd35  1  0.55731456  0.54185143  0.11269200  1
  N  N36  1  0.22254476  0.20612215  0.33483231  1
  N  N37  1  0.10977240  0.09712209  0.08616336  1
  N  N38  1  0.89060418  0.20014965  0.83257828  1
  N  N39  1  0.77997510  0.09207814  0.58086294  1
  N  N40  1  0.55532018  0.20602631  0.33937716  1
  N  N41  1  0.44565781  0.09382684  0.08681247  1
  N  N42  1  0.22591287  0.20014986  0.83257831  1
  N  N43  1  0.10989646  0.09687386  0.58093951  1
  N  N44  1  0.88799992  0.20612216  0.33483229  1
  N  N45  1  0.77718197  0.09382694  0.08681260  1
  N  N46  1  0.56054055  0.19558568  0.82702846  1
  N  N47  1  0.44461350  0.09207806  0.58086308  1
  N  N48  1  0.22225636  0.53912767  0.36595561  1
  N  N49  1  0.10068787  0.41005297  0.07363804  1
  N  N50  1  0.88683604  0.54299485  0.83025227  1
  N  N51  1  0.78292319  0.42344805  0.59268636  1
  N  N52  1  0.55528287  0.53912748  0.36595560  1
  N  N53  1  0.46113526  0.39439618  0.06283805  1
  N  N54  1  0.21730193  0.54315966  0.83401706  1
  N  N55  1  0.11029547  0.42344811  0.59268614  1
  N  N56  1  0.89034542  0.53597582  0.33716979  1
  N  N57  1  0.80592631  0.41005273  0.07363770  1
  N  N58  1  0.55620524  0.54315958  0.83401706  1
  N  N59  1  0.44698868  0.42268927  0.60140968  1
  N  N60  1  0.22163701  0.87339244  0.33961837  1
  N  N61  1  0.09511305  0.79678663  0.07375176  1
  N  N62  1  0.88330141  0.87415687  0.83256035  1
  N  N63  1  0.77810379  0.76045886  0.57988482  1
  N  N64  1  0.55578184  0.87142886  0.33430323  1
  N  N65  1  0.42476685  0.79678623  0.07375205  1
  N  N66  1  0.21883787  0.87899095  0.82648789  1
  N  N67  1  0.10702382  0.76651663  0.59143187  1
  N  N68  1  0.88945579  0.87142888  0.33430328  1
  N  N69  1  0.77969818  0.75727006  0.08802268  1
  N  N70  1  0.55920821  0.87415672  0.83256044  1
  N  N71  1  0.44312608  0.76651650  0.59143166  1
