# generated using pymatgen
data_GdAl17N18
_symmetry_space_group_name_H-M   'P 1'
_cell_length_a   9.49323415
_cell_length_b   9.51114028
_cell_length_c   10.14333720
_cell_angle_alpha   89.91029079
_cell_angle_beta   89.99999997
_cell_angle_gamma   60.06225864
_symmetry_Int_Tables_number   1
_chemical_formula_structural   GdAl17N18
_chemical_formula_sum   'Gd2 Al34 N36'
_cell_volume   793.65120974
_cell_formula_units_Z   2
loop_
 _symmetry_equiv_pos_site_id
 _symmetry_equiv_pos_as_xyz
  1  'x, y, z'
loop_
 _atom_site_type_symbol
 _atom_site_label
 _atom_site_symmetry_multiplicity
 _atom_site_fract_x
 _atom_site_fract_y
 _atom_site_fract_z
 _atom_site_occupancy
  Al  Al0  1  0.11094285  0.09478097  0.30465212  1
  Al  Al1  1  0.22183946  0.20120018  0.05711157  1
  Al  Al2  1  0.77827859  0.09393202  0.80629669  1
  Al  Al3  1  0.89062073  0.20249238  0.55503852  1
  Al  Al4  1  0.44537913  0.09396476  0.30513378  1
  Al  Al5  1  0.55928435  0.19809794  0.05611835  1
  Al  Al6  1  0.11117486  0.09431693  0.80643180  1
  Al  Al7  1  0.22355355  0.20249239  0.55503853  1
  Al  Al8  1  0.77732277  0.09396476  0.30513377  1
  Al  Al9  1  0.89362703  0.20120018  0.05711157  1
  Al  Al10  1  0.44445603  0.09393202  0.80629668  1
  Al  Al11  1  0.55820673  0.20025319  0.55456451  1
  Al  Al12  1  0.10895826  0.42420063  0.31127514  1
  Al  Al13  1  0.78149712  0.42464169  0.79617185  1
  Al  Al14  1  0.88823688  0.54019292  0.55381653  1
  Al  Al15  1  0.44738346  0.42189975  0.31742795  1
  Al  Al16  1  0.11052786  0.42464171  0.79617185  1
  Al  Al17  1  0.21962985  0.54004686  0.55439930  1
  Al  Al18  1  0.78350780  0.42420062  0.31127514  1
  Al  Al19  1  0.89202275  0.53262116  0.05762222  1
  Al  Al20  1  0.44624529  0.42417609  0.78747381  1
  Al  Al21  1  0.55698998  0.54004686  0.55439930  1
  Al  Al22  1  0.10658010  0.76959218  0.31161535  1
  Al  Al23  1  0.21602093  0.88462482  0.05779314  1
  Al  Al24  1  0.77847083  0.75972499  0.80691736  1
  Al  Al25  1  0.88609911  0.87369654  0.55512154  1
  Al  Al26  1  0.44049440  0.76959218  0.31161535  1
  Al  Al27  1  0.55342804  0.87814043  0.05666448  1
  Al  Al28  1  0.10998837  0.76361359  0.79631979  1
  Al  Al29  1  0.22040985  0.87584698  0.55451106  1
  Al  Al30  1  0.77781360  0.76103946  0.30594385  1
  Al  Al31  1  0.88509821  0.87814043  0.05666448  1
  Al  Al32  1  0.44306472  0.76361358  0.79631979  1
  Al  Al33  1  0.55687102  0.87369654  0.55512154  1
  Gd  Gd34  1  0.21668103  0.54164840  0.05548096  1
  Gd  Gd35  1  0.55833723  0.54164841  0.05548096  1
  N  N36  1  0.22452585  0.20194921  0.36659544  1
  N  N37  1  0.10970528  0.09725611  0.11512765  1
  N  N38  1  0.88841263  0.20602097  0.86511345  1
  N  N39  1  0.77836315  0.09367239  0.61697665  1
  N  N40  1  0.55889882  0.19886903  0.36849641  1
  N  N41  1  0.44464500  0.09500738  0.11410013  1
  N  N42  1  0.22223306  0.20602098  0.86511345  1
  N  N43  1  0.11101339  0.09463988  0.61724712  1
  N  N44  1  0.89019163  0.20194920  0.36659544  1
  N  N45  1  0.77701428  0.09500738  0.11410013  1
  N  N46  1  0.55474707  0.20717251  0.86358562  1
  N  N47  1  0.44463111  0.09367239  0.61697664  1
  N  N48  1  0.21847867  0.54178863  0.36167869  1
  N  N49  1  0.10089277  0.41094464  0.12587350  1
  N  N50  1  0.89020204  0.53626261  0.86466050  1
  N  N51  1  0.78173758  0.42500833  0.60826236  1
  N  N52  1  0.55639939  0.54178863  0.36167869  1
  N  N53  1  0.45899195  0.39868278  0.13482175  1
  N  N54  1  0.22335257  0.53762761  0.83310081  1
  N  N55  1  0.10992077  0.42500833  0.60826236  1
  N  N56  1  0.88751648  0.54163373  0.36721149  1
  N  N57  1  0.80482925  0.41094464  0.12587350  1
  N  N58  1  0.55568651  0.53762760  0.83310080  1
  N  N59  1  0.44619339  0.42427990  0.60013321  1
  N  N60  1  0.22002684  0.87661299  0.36870385  1
  N  N61  1  0.09495003  0.79449752  0.12621011  1
  N  N62  1  0.89064363  0.87055862  0.86526923  1
  N  N63  1  0.77814199  0.76038269  0.61691639  1
  N  N64  1  0.55779643  0.87399028  0.36673312  1
  N  N65  1  0.42721912  0.79449753  0.12621012  1
  N  N66  1  0.22321517  0.87023635  0.86444201  1
  N  N67  1  0.10887307  0.76477835  0.60851400  1
  N  N68  1  0.88487996  0.87399027  0.36673311  1
  N  N69  1  0.77907198  0.75852272  0.11363211  1
  N  N70  1  0.55546443  0.87055862  0.86526924  1
  N  N71  1  0.44301525  0.76477835  0.60851401  1
