# generated using pymatgen
data_GdAl17N18
_symmetry_space_group_name_H-M   'P 1'
_cell_length_a   9.49323531
_cell_length_b   9.51114251
_cell_length_c   10.14333675
_cell_angle_alpha   89.91030479
_cell_angle_beta   89.99999998
_cell_angle_gamma   60.06226234
_symmetry_Int_Tables_number   1
_chemical_formula_structural   GdAl17N18
_chemical_formula_sum   'Gd2 Al34 N36'
_cell_volume   793.65148845
_cell_formula_units_Z   2
loop_
 _symmetry_equiv_pos_site_id
 _symmetry_equiv_pos_as_xyz
  1  'x, y, z'
loop_
 _atom_site_type_symbol
 _atom_site_label
 _atom_site_symmetry_multiplicity
 _atom_site_fract_x
 _atom_site_fract_y
 _atom_site_fract_z
 _atom_site_occupancy
  Al  Al0  1  0.11094635  0.09477398  0.30730615  1
  Al  Al1  1  0.22184284  0.20119289  0.05976267  1
  Al  Al2  1  0.77828191  0.09392505  0.80894690  1
  Al  Al3  1  0.89062376  0.20248600  0.55769180  1
  Al  Al4  1  0.44538242  0.09395781  0.30778732  1
  Al  Al5  1  0.55928821  0.19809024  0.05877191  1
  Al  Al6  1  0.11117828  0.09431011  0.80908117  1
  Al  Al7  1  0.22355689  0.20248601  0.55769181  1
  Al  Al8  1  0.77732643  0.09395780  0.30778732  1
  Al  Al9  1  0.89363093  0.20119289  0.05976268  1
  Al  Al10  1  0.44445968  0.09392505  0.80894690  1
  Al  Al11  1  0.55821003  0.20024660  0.55721811  1
  Al  Al12  1  0.10896142  0.42419372  0.31393062  1
  Al  Al13  1  0.78150049  0.42463456  0.79882780  1
  Al  Al14  1  0.88824065  0.54018538  0.55647254  1
  Al  Al15  1  0.44738698  0.42189271  0.32008459  1
  Al  Al16  1  0.11053162  0.42463458  0.79882780  1
  Al  Al17  1  0.21963348  0.54003980  0.55705700  1
  Al  Al18  1  0.78351156  0.42419371  0.31393062  1
  Al  Al19  1  0.89202619  0.53261428  0.06027315  1
  Al  Al20  1  0.44624895  0.42416877  0.79013142  1
  Al  Al21  1  0.55699341  0.54003980  0.55705700  1
  Al  Al22  1  0.10658378  0.76958511  0.31427012  1
  Al  Al23  1  0.21602420  0.88461827  0.06044421  1
  Al  Al24  1  0.77847405  0.75971855  0.80956691  1
  Al  Al25  1  0.88610326  0.87368911  0.55777403  1
  Al  Al26  1  0.44049780  0.76958510  0.31427012  1
  Al  Al27  1  0.55343154  0.87813342  0.05931553  1
  Al  Al28  1  0.10999160  0.76360679  0.79897536  1
  Al  Al29  1  0.22041379  0.87583911  0.55716522  1
  Al  Al30  1  0.77781740  0.76103187  0.30859631  1
  Al  Al31  1  0.88510172  0.87813343  0.05931553  1
  Al  Al32  1  0.44306830  0.76360678  0.79897536  1
  Al  Al33  1  0.55687429  0.87368911  0.55777404  1
  Gd  Gd34  1  0.21668537  0.54164074  0.05813709  1
  Gd  Gd35  1  0.55834055  0.54164075  0.05813709  1
  N  N36  1  0.22452928  0.20194235  0.36924922  1
  N  N37  1  0.10970879  0.09724909  0.11778063  1
  N  N38  1  0.88841672  0.20601310  0.86776488  1
  N  N39  1  0.77836680  0.09366512  0.61962813  1
  N  N40  1  0.55890250  0.19886166  0.37115045  1
  N  N41  1  0.44464827  0.09500009  0.11675282  1
  N  N42  1  0.22223684  0.20601311  0.86776488  1
  N  N43  1  0.11101685  0.09463295  0.61989817  1
  N  N44  1  0.89019505  0.20194234  0.36924922  1
  N  N45  1  0.77701830  0.09500009  0.11675282  1
  N  N46  1  0.55475098  0.20716469  0.86623846  1
  N  N47  1  0.44463474  0.09366512  0.61962813  1
  N  N48  1  0.21848209  0.54178161  0.36433480  1
  N  N49  1  0.10089586  0.41093741  0.12852710  1
  N  N50  1  0.89020515  0.53625640  0.86731246  1
  N  N51  1  0.78174110  0.42500110  0.61091820  1
  N  N52  1  0.55640298  0.54178161  0.36433480  1
  N  N53  1  0.45899620  0.39867428  0.13747771  1
  N  N54  1  0.22335579  0.53762094  0.83575652  1
  N  N55  1  0.10992448  0.42500110  0.61091821  1
  N  N56  1  0.88752001  0.54162667  0.36986687  1
  N  N57  1  0.80483340  0.41093741  0.12852709  1
  N  N58  1  0.55568996  0.53762092  0.83575651  1
  N  N59  1  0.44619710  0.42427247  0.60279017  1
  N  N60  1  0.22003038  0.87660591  0.37135806  1
  N  N61  1  0.09495345  0.79449080  0.12886335  1
  N  N62  1  0.89064619  0.87055224  0.86792063  1
  N  N63  1  0.77814528  0.76037610  0.61956781  1
  N  N64  1  0.55780004  0.87398310  0.36938608  1
  N  N65  1  0.42722242  0.79449080  0.12886335  1
  N  N66  1  0.22321805  0.87023059  0.86709392  1
  N  N67  1  0.10887641  0.76477146  0.61116928  1
  N  N68  1  0.88488353  0.87398310  0.36938607  1
  N  N69  1  0.77907556  0.75851554  0.11628403  1
  N  N70  1  0.55546824  0.87055225  0.86792063  1
  N  N71  1  0.44301881  0.76477146  0.61116929  1
