# generated using pymatgen
data_GdAl17N18
_symmetry_space_group_name_H-M   'P 1'
_cell_length_a   9.49452139
_cell_length_b   9.51296890
_cell_length_c   10.13939497
_cell_angle_alpha   89.91230197
_cell_angle_beta   89.99999931
_cell_angle_gamma   60.06412898
_symmetry_Int_Tables_number   1
_chemical_formula_structural   GdAl17N18
_chemical_formula_sum   'Gd2 Al34 N36'
_cell_volume   793.61785563
_cell_formula_units_Z   2
loop_
 _symmetry_equiv_pos_site_id
 _symmetry_equiv_pos_as_xyz
  1  'x, y, z'
loop_
 _atom_site_type_symbol
 _atom_site_label
 _atom_site_symmetry_multiplicity
 _atom_site_fract_x
 _atom_site_fract_y
 _atom_site_fract_z
 _atom_site_occupancy
  Al  Al0  1  0.11096574  0.09473520  0.32344029  1
  Al  Al1  1  0.22187815  0.20113715  0.07588871  1
  Al  Al2  1  0.77831133  0.09387841  0.82508661  1
  Al  Al3  1  0.89063101  0.20245216  0.57384222  1
  Al  Al4  1  0.44542234  0.09389837  0.32392437  1
  Al  Al5  1  0.55933816  0.19799034  0.07488081  1
  Al  Al6  1  0.11117941  0.09430784  0.82520730  1
  Al  Al7  1  0.22358350  0.20245217  0.57384222  1
  Al  Al8  1  0.77734596  0.09389837  0.32392436  1
  Al  Al9  1  0.89365138  0.20113715  0.07588872  1
  Al  Al10  1  0.44447691  0.09387841  0.82508661  1
  Al  Al11  1  0.55823828  0.20019011  0.57341677  1
  Al  Al12  1  0.10896890  0.42412342  0.33008555  1
  Al  Al13  1  0.78147943  0.42461338  0.81501894  1
  Al  Al14  1  0.88826225  0.54014219  0.57265658  1
  Al  Al15  1  0.44744527  0.42177616  0.33629926  1
  Al  Al16  1  0.11057387  0.42461340  0.81501894  1
  Al  Al17  1  0.21964663  0.54001628  0.57319090  1
  Al  Al18  1  0.78357439  0.42412341  0.33008555  1
  Al  Al19  1  0.89205887  0.53254894  0.07637727  1
  Al  Al20  1  0.44625208  0.42416251  0.80635493  1
  Al  Al21  1  0.55700379  0.54001628  0.57319090  1
  Al  Al22  1  0.10658324  0.76960271  0.33043004  1
  Al  Al23  1  0.21602437  0.88461793  0.07654739  1
  Al  Al24  1  0.77849318  0.75968029  0.82571163  1
  Al  Al25  1  0.88612662  0.87363930  0.57393070  1
  Al  Al26  1  0.44048073  0.76960271  0.33043004  1
  Al  Al27  1  0.55345977  0.87807494  0.07544648  1
  Al  Al28  1  0.11001500  0.76355811  0.81517520  1
  Al  Al29  1  0.22042825  0.87581019  0.57335880  1
  Al  Al30  1  0.77785016  0.76096635  0.32473569  1
  Al  Al31  1  0.88513198  0.87807494  0.07544648  1
  Al  Al32  1  0.44309358  0.76355810  0.81517520  1
  Al  Al33  1  0.55690075  0.87363930  0.57393070  1
  Gd  Gd34  1  0.21674111  0.54159065  0.07449485  1
  Gd  Gd35  1  0.55833493  0.54159067  0.07449485  1
  N  N36  1  0.22456181  0.20189396  0.38534394  1
  N  N37  1  0.10972361  0.09721946  0.13386025  1
  N  N38  1  0.88842712  0.20598087  0.88384746  1
  N  N39  1  0.77840527  0.09360701  0.63572813  1
  N  N40  1  0.55894598  0.19877472  0.38729949  1
  N  N41  1  0.44468879  0.09492597  0.13283371  1
  N  N42  1  0.22225867  0.20598088  0.88384746  1
  N  N43  1  0.11102355  0.09461956  0.63598450  1
  N  N44  1  0.89021092  0.20189395  0.38534393  1
  N  N45  1  0.77705191  0.09492596  0.13283371  1
  N  N46  1  0.55477597  0.20711471  0.88230721  1
  N  N47  1  0.44465438  0.09360701  0.63572813  1
  N  N48  1  0.21849120  0.54175687  0.38038537  1
  N  N49  1  0.10090509  0.41085674  0.14461493  1
  N  N50  1  0.89022105  0.53622459  0.88338452  1
  N  N51  1  0.78172960  0.42496979  0.62703529  1
  N  N52  1  0.55641863  0.54175687  0.38038537  1
  N  N53  1  0.45909141  0.39848387  0.15364012  1
  N  N54  1  0.22337374  0.53760426  0.85201756  1
  N  N55  1  0.10996730  0.42496979  0.62703529  1
  N  N56  1  0.88754451  0.54157768  0.38598845  1
  N  N57  1  0.80490486  0.41085674  0.14461493  1
  N  N58  1  0.55568869  0.53760425  0.85201756  1
  N  N59  1  0.44620822  0.42425025  0.61891515  1
  N  N60  1  0.22003413  0.87659843  0.38749309  1
  N  N61  1  0.09495519  0.79452269  0.14496198  1
  N  N62  1  0.89064876  0.87052529  0.88400854  1
  N  N63  1  0.77816708  0.76033251  0.63566805  1
  N  N64  1  0.55783202  0.87393814  0.38548733  1
  N  N65  1  0.42718879  0.79452270  0.14496198  1
  N  N66  1  0.22320913  0.87024843  0.88316165  1
  N  N67  1  0.10890381  0.76471230  0.62729500  1
  N  N68  1  0.88489652  0.87393813  0.38548733  1
  N  N69  1  0.77911471  0.75843726  0.13237044  1
  N  N70  1  0.55549263  0.87052530  0.88400854  1
  N  N71  1  0.44305056  0.76471230  0.62729501  1
