# generated using pymatgen
data_GdAl17N18
_symmetry_space_group_name_H-M   'P 1'
_cell_length_a   10.01441175
_cell_length_b   10.06601224
_cell_length_c   8.61481161
_cell_angle_alpha   90.01359657
_cell_angle_beta   90.00000413
_cell_angle_gamma   60.16944998
_symmetry_Int_Tables_number   1
_chemical_formula_structural   GdAl17N18
_chemical_formula_sum   'Gd2 Al34 N36'
_cell_volume   753.35265374
_cell_formula_units_Z   2
loop_
 _symmetry_equiv_pos_site_id
 _symmetry_equiv_pos_as_xyz
  1  'x, y, z'
loop_
 _atom_site_type_symbol
 _atom_site_label
 _atom_site_symmetry_multiplicity
 _atom_site_fract_x
 _atom_site_fract_y
 _atom_site_fract_z
 _atom_site_occupancy
  Al  Al0  1  0.11070562  0.09525604  0.35058772  1
  Al  Al1  1  0.22314309  0.20021431  0.09877112  1
  Al  Al2  1  0.77879275  0.09328801  0.84636287  1
  Al  Al3  1  0.89028203  0.20187623  0.59840604  1
  Al  Al4  1  0.44605337  0.09282533  0.34968865  1
  Al  Al5  1  0.56148282  0.19370211  0.09481142  1
  Al  Al6  1  0.10987146  0.09692502  0.84560736  1
  Al  Al7  1  0.22450875  0.20187609  0.59840561  1
  Al  Al8  1  0.77778788  0.09282549  0.34968922  1
  Al  Al9  1  0.89331080  0.20021329  0.09877122  1
  Al  Al10  1  0.44458641  0.09328763  0.84636310  1
  Al  Al11  1  0.55922719  0.19821345  0.59844131  1
  Al  Al12  1  0.10912869  0.42291272  0.35915251  1
  Al  Al13  1  0.78431280  0.42256640  0.83903132  1
  Al  Al14  1  0.88823054  0.54020613  0.59898852  1
  Al  Al15  1  0.44899844  0.41866895  0.36353204  1
  Al  Al16  1  0.10978869  0.42256623  0.83903062  1
  Al  Al17  1  0.21909183  0.54079225  0.60096567  1
  Al  Al18  1  0.78462589  0.42291273  0.35915279  1
  Al  Al19  1  0.89128485  0.53409772  0.09885285  1
  Al  Al20  1  0.44745479  0.42175703  0.82883418  1
  Al  Al21  1  0.55678318  0.54079214  0.60096562  1
  Al  Al22  1  0.10636596  0.77071318  0.35947043  1
  Al  Al23  1  0.21499274  0.88668068  0.09645705  1
  Al  Al24  1  0.77847566  0.75971440  0.84855965  1
  Al  Al25  1  0.88535247  0.87339289  0.59889634  1
  Al  Al26  1  0.43958546  0.77071261  0.35946989  1
  Al  Al27  1  0.55450197  0.87760683  0.09843344  1
  Al  Al28  1  0.10665385  0.76926344  0.83941872  1
  Al  Al29  1  0.21948144  0.87770465  0.60027624  1
  Al  Al30  1  0.77836570  0.75993407  0.34975481  1
  Al  Al31  1  0.88455597  0.87760730  0.09843339  1
  Al  Al32  1  0.44074836  0.76926254  0.83941855  1
  Al  Al33  1  0.55792022  0.87339377  0.59889585  1
  Gd  Gd34  1  0.21660715  0.54269757  0.10331015  1
  Gd  Gd35  1  0.55736329  0.54269643  0.10331025  1
  N  N36  1  0.22514197  0.20194933  0.36328846  1
  N  N37  1  0.10950040  0.09766732  0.11040719  1
  N  N38  1  0.88905356  0.20399666  0.85799446  1
  N  N39  1  0.77974706  0.09206797  0.61258641  1
  N  N40  1  0.55961909  0.19742849  0.36905017  1
  N  N41  1  0.44546966  0.09345985  0.10955745  1
  N  N42  1  0.22361713  0.20399700  0.85799480  1
  N  N43  1  0.10980588  0.09705552  0.61125242  1
  N  N44  1  0.88957591  0.20194932  0.36328837  1
  N  N45  1  0.77773765  0.09345997  0.10955758  1
  N  N46  1  0.55650306  0.20366097  0.85590385  1
  N  N47  1  0.44485206  0.09206831  0.61258673  1
  N  N48  1  0.21827939  0.54221110  0.37410598  1
  N  N49  1  0.10146217  0.41096919  0.11378750  1
  N  N50  1  0.88920367  0.53826068  0.85583568  1
  N  N51  1  0.78308324  0.42331302  0.60692295  1
  N  N52  1  0.55617657  0.54221054  0.37410597  1
  N  N53  1  0.45987289  0.39692091  0.12526773  1
  N  N54  1  0.22135422  0.54002776  0.83533904  1
  N  N55  1  0.11027100  0.42331290  0.60692270  1
  N  N56  1  0.88806651  0.54053419  0.36460076  1
  N  N57  1  0.80423676  0.41096850  0.11378654  1
  N  N58  1  0.55528518  0.54002744  0.83533907  1
  N  N59  1  0.44749923  0.42166855  0.60302944  1
  N  N60  1  0.21963634  0.87739240  0.36852792  1
  N  N61  1  0.09585082  0.79464722  0.11321660  1
  N  N62  1  0.88678984  0.87259845  0.85864701  1
  N  N63  1  0.77835964  0.75994630  0.61164970  1
  N  N64  1  0.55815328  0.87337305  0.36260478  1
  N  N65  1  0.42616787  0.79464591  0.11321721  1
  N  N66  1  0.22020424  0.87625755  0.85306020  1
  N  N67  1  0.10703361  0.76676186  0.60766816  1
  N  N68  1  0.88513868  0.87337336  0.36260501  1
  N  N69  1  0.77949477  0.75767595  0.10887723  1
  N  N70  1  0.55727742  0.87259790  0.85864742  1
  N  N71  1  0.44287112  0.76676166  0.60766803  1
