# generated using pymatgen
data_GdAl17N18
_symmetry_space_group_name_H-M   'P 1'
_cell_length_a   9.71654221
_cell_length_b   9.75710077
_cell_length_c   9.50473422
_cell_angle_alpha   89.96502775
_cell_angle_beta   90.00000099
_cell_angle_gamma   60.13742519
_symmetry_Int_Tables_number   1
_chemical_formula_structural   GdAl17N18
_chemical_formula_sum   'Gd2 Al34 N36'
_cell_volume   781.45284146
_cell_formula_units_Z   2
loop_
 _symmetry_equiv_pos_site_id
 _symmetry_equiv_pos_as_xyz
  1  'x, y, z'
loop_
 _atom_site_type_symbol
 _atom_site_label
 _atom_site_symmetry_multiplicity
 _atom_site_fract_x
 _atom_site_fract_y
 _atom_site_fract_z
 _atom_site_occupancy
  Al  Al0  1  0.11117153  0.09432367  0.32826083  1
  Al  Al1  1  0.22208008  0.20129868  0.08127136  1
  Al  Al2  1  0.77914963  0.09348155  0.83152869  1
  Al  Al3  1  0.89098476  0.20110199  0.57959770  1
  Al  Al4  1  0.44654501  0.09309720  0.32862101  1
  Al  Al5  1  0.56003496  0.19659682  0.07820889  1
  Al  Al6  1  0.11006868  0.09652939  0.83099431  1
  Al  Al7  1  0.22458006  0.20110195  0.57959768  1
  Al  Al8  1  0.77702449  0.09309721  0.32862109  1
  Al  Al9  1  0.89328803  0.20129859  0.08127134  1
  Al  Al10  1  0.44403553  0.09348150  0.83152878  1
  Al  Al11  1  0.55985499  0.19695671  0.58195956  1
  Al  Al12  1  0.10831764  0.42317024  0.33955403  1
  Al  Al13  1  0.78199240  0.42390806  0.82084983  1
  Al  Al14  1  0.88766310  0.54134049  0.57993175  1
  Al  Al15  1  0.44882541  0.41901587  0.35085324  1
  Al  Al16  1  0.11076626  0.42390809  0.82084972  1
  Al  Al17  1  0.21824796  0.54128481  0.58380205  1
  Al  Al18  1  0.78517887  0.42317020  0.33955390  1
  Al  Al19  1  0.89257676  0.53151325  0.08056685  1
  Al  Al20  1  0.44634466  0.42397737  0.81225334  1
  Al  Al21  1  0.55713404  0.54128469  0.58380205  1
  Al  Al22  1  0.10551561  0.77228224  0.33940797  1
  Al  Al23  1  0.21558551  0.88549559  0.07936686  1
  Al  Al24  1  0.77845774  0.75975108  0.83314880  1
  Al  Al25  1  0.88479633  0.87388030  0.57995063  1
  Al  Al26  1  0.43886873  0.77228218  0.33940806  1
  Al  Al27  1  0.55318422  0.87742637  0.08079238  1
  Al  Al28  1  0.10861789  0.76531946  0.82152241  1
  Al  Al29  1  0.21940349  0.87785961  0.58198310  1
  Al  Al30  1  0.77809571  0.76047515  0.32872685  1
  Al  Al31  1  0.88605588  0.87742644  0.08079234  1
  Al  Al32  1  0.44272925  0.76531941  0.82152234  1
  Al  Al33  1  0.55798999  0.87388028  0.57995060  1
  Gd  Gd34  1  0.21798144  0.54136835  0.09149571  1
  Gd  Gd35  1  0.55731698  0.54136831  0.09149571  1
  N  N36  1  0.22571947  0.20044489  0.38021784  1
  N  N37  1  0.10974070  0.09718535  0.12723101  1
  N  N38  1  0.88804001  0.20631915  0.87835294  1
  N  N39  1  0.77967642  0.09240412  0.63190096  1
  N  N40  1  0.56060722  0.19545227  0.38509005  1
  N  N41  1  0.44548049  0.09396773  0.12626618  1
  N  N42  1  0.22230756  0.20631923  0.87835296  1
  N  N43  1  0.11017224  0.09632227  0.63162066  1
  N  N44  1  0.89050244  0.20044490  0.38021785  1
  N  N45  1  0.77721845  0.09396775  0.12626626  1
  N  N46  1  0.55494221  0.20678233  0.87469831  1
  N  N47  1  0.44458619  0.09240407  0.63190104  1
  N  N48  1  0.21714331  0.54315711  0.37627366  1
  N  N49  1  0.10050747  0.40982700  0.13967771  1
  N  N50  1  0.89032524  0.53601633  0.87660405  1
  N  N51  1  0.78245202  0.42395142  0.62086822  1
  N  N52  1  0.55636641  0.54315702  0.37627366  1
  N  N53  1  0.46139007  0.39388653  0.15195825  1
  N  N54  1  0.22275689  0.53874460  0.84844421  1
  N  N55  1  0.11026327  0.42395143  0.62086809  1
  N  N56  1  0.88695361  0.54275947  0.38216606  1
  N  N57  1  0.80633231  0.40982693  0.13967758  1
  N  N58  1  0.55516526  0.53874457  0.84844423  1
  N  N59  1  0.44667572  0.42331523  0.61116860  1
  N  N60  1  0.21901303  0.87864051  0.38517926  1
  N  N61  1  0.09476573  0.79696288  0.13975017  1
  N  N62  1  0.88984915  0.87116289  0.87875830  1
  N  N63  1  0.77810228  0.76046200  0.63235270  1
  N  N64  1  0.55892029  0.87420503  0.38038494  1
  N  N65  1  0.42493791  0.79696281  0.13975026  1
  N  N66  1  0.22196809  0.87273049  0.87502782  1
  N  N67  1  0.10755246  0.76603604  0.62194783  1
  N  N68  1  0.88354129  0.87420503  0.38038497  1
  N  N69  1  0.77964252  0.75738147  0.12559209  1
  N  N70  1  0.55565456  0.87116282  0.87875834  1
  N  N71  1  0.44307809  0.76603598  0.62194775  1
