# generated using pymatgen
data_GdAl17N18
_symmetry_space_group_name_H-M   'P 1'
_cell_length_a   9.49323191
_cell_length_b   9.51113822
_cell_length_c   10.14333421
_cell_angle_alpha   89.91031862
_cell_angle_beta   89.99999995
_cell_angle_gamma   60.06225928
_symmetry_Int_Tables_number   1
_chemical_formula_structural   GdAl17N18
_chemical_formula_sum   'Gd2 Al34 N36'
_cell_volume   793.65062335
_cell_formula_units_Z   2
loop_
 _symmetry_equiv_pos_site_id
 _symmetry_equiv_pos_as_xyz
  1  'x, y, z'
loop_
 _atom_site_type_symbol
 _atom_site_label
 _atom_site_symmetry_multiplicity
 _atom_site_fract_x
 _atom_site_fract_y
 _atom_site_fract_z
 _atom_site_occupancy
  Al  Al0  1  0.11095001  0.09476666  0.31011223  1
  Al  Al1  1  0.22184651  0.20118570  0.06257106  1
  Al  Al2  1  0.77828576  0.09391776  0.81175516  1
  Al  Al3  1  0.89062771  0.20247821  0.56049829  1
  Al  Al4  1  0.44538632  0.09395029  0.31059339  1
  Al  Al5  1  0.55929165  0.19808335  0.06157904  1
  Al  Al6  1  0.11118201  0.09430263  0.81189000  1
  Al  Al7  1  0.22356073  0.20247822  0.56049830  1
  Al  Al8  1  0.77733005  0.09395029  0.31059338  1
  Al  Al9  1  0.89363445  0.20118570  0.06257106  1
  Al  Al10  1  0.44446313  0.09391776  0.81175516  1
  Al  Al11  1  0.55821405  0.20023855  0.56002500  1
  Al  Al12  1  0.10896535  0.42418624  0.31673814  1
  Al  Al13  1  0.78150424  0.42462735  0.80163467  1
  Al  Al14  1  0.88824414  0.54017841  0.55927883  1
  Al  Al15  1  0.44739080  0.42188508  0.32289480  1
  Al  Al16  1  0.11053508  0.42462737  0.80163467  1
  Al  Al17  1  0.21963698  0.54003250  0.55986442  1
  Al  Al18  1  0.78351509  0.42418624  0.31673814  1
  Al  Al19  1  0.89202997  0.53260671  0.06308270  1
  Al  Al20  1  0.44625253  0.42416161  0.79293898  1
  Al  Al21  1  0.55699721  0.54003250  0.55986443  1
  Al  Al22  1  0.10658739  0.76957748  0.31707711  1
  Al  Al23  1  0.21602814  0.88461040  0.06325315  1
  Al  Al24  1  0.77847790  0.75971087  0.81237638  1
  Al  Al25  1  0.88610663  0.87368180  0.56058074  1
  Al  Al26  1  0.44050181  0.76957747  0.31707711  1
  Al  Al27  1  0.55343516  0.87812583  0.06212318  1
  Al  Al28  1  0.10999548  0.76359944  0.80178199  1
  Al  Al29  1  0.22041728  0.87583213  0.55997110  1
  Al  Al30  1  0.77782098  0.76102470  0.31140299  1
  Al  Al31  1  0.88510569  0.87812583  0.06212318  1
  Al  Al32  1  0.44307177  0.76359943  0.80178199  1
  Al  Al33  1  0.55687824  0.87368180  0.56058074  1
  Gd  Gd34  1  0.21668973  0.54163275  0.06094577  1
  Gd  Gd35  1  0.55834419  0.54163276  0.06094576  1
  N  N36  1  0.22453323  0.20193458  0.37205630  1
  N  N37  1  0.10971250  0.09724167  0.12058833  1
  N  N38  1  0.88842016  0.20600613  0.87057361  1
  N  N39  1  0.77837060  0.09365771  0.62243626  1
  N  N40  1  0.55890662  0.19885344  0.37395801  1
  N  N41  1  0.44465215  0.09499263  0.11956037  1
  N  N42  1  0.22224036  0.20600615  0.87057361  1
  N  N43  1  0.11102059  0.09462549  0.62270632  1
  N  N44  1  0.89019887  0.20193457  0.37205630  1
  N  N45  1  0.77702188  0.09499263  0.11956037  1
  N  N46  1  0.55475447  0.20715771  0.86904685  1
  N  N47  1  0.44463835  0.09365771  0.62243625  1
  N  N48  1  0.21848559  0.54177430  0.36714348  1
  N  N49  1  0.10089971  0.41092993  0.13133582  1
  N  N50  1  0.89020900  0.53624868  0.87012169  1
  N  N51  1  0.78174502  0.42499362  0.61372552  1
  N  N52  1  0.55640679  0.54177431  0.36714348  1
  N  N53  1  0.45900015  0.39866637  0.14028779  1
  N  N54  1  0.22335942  0.53761362  0.83856510  1
  N  N55  1  0.10992804  0.42499363  0.61372553  1
  N  N56  1  0.88752359  0.54161951  0.37267399  1
  N  N57  1  0.80483703  0.41092993  0.13133581  1
  N  N58  1  0.55569364  0.53761361  0.83856509  1
  N  N59  1  0.44620090  0.42426487  0.60559793  1
  N  N60  1  0.22003404  0.87659860  0.37416451  1
  N  N61  1  0.09495711  0.79448313  0.13167147  1
  N  N62  1  0.89065017  0.87054483  0.87072898  1
  N  N63  1  0.77814903  0.76036861  0.62237643  1
  N  N64  1  0.55780381  0.87397575  0.37219331  1
  N  N65  1  0.42722644  0.79448313  0.13167147  1
  N  N66  1  0.22322189  0.87022291  0.86990272  1
  N  N67  1  0.10888011  0.76476429  0.61397646  1
  N  N68  1  0.88488710  0.87397575  0.37219330  1
  N  N69  1  0.77907917  0.75850832  0.11909215  1
  N  N70  1  0.55547167  0.87054484  0.87072898  1
  N  N71  1  0.44302228  0.76476428  0.61397646  1
