# generated using pymatgen
data_GdAl17N18
_symmetry_space_group_name_H-M   'P 1'
_cell_length_a   9.71609936
_cell_length_b   9.75681472
_cell_length_c   9.50575640
_cell_angle_alpha   90.04082819
_cell_angle_beta   90.00000213
_cell_angle_gamma   60.13796278
_symmetry_Int_Tables_number   1
_chemical_formula_structural   GdAl17N18
_chemical_formula_sum   'Gd2 Al34 N36'
_cell_volume   781.48249092
_cell_formula_units_Z   2
loop_
 _symmetry_equiv_pos_site_id
 _symmetry_equiv_pos_as_xyz
  1  'x, y, z'
loop_
 _atom_site_type_symbol
 _atom_site_label
 _atom_site_symmetry_multiplicity
 _atom_site_fract_x
 _atom_site_fract_y
 _atom_site_fract_z
 _atom_site_occupancy
  Al  Al0  1  0.11007820  0.09651031  0.37799404  1
  Al  Al1  1  0.22213149  0.20131285  0.12784433  1
  Al  Al2  1  0.77700481  0.09312249  0.88042308  1
  Al  Al3  1  0.89103910  0.20106301  0.62950057  1
  Al  Al4  1  0.44406838  0.09343421  0.37767115  1
  Al  Al5  1  0.56003653  0.19659357  0.13094923  1
  Al  Al6  1  0.11116775  0.09433127  0.88095677  1
  Al  Al7  1  0.22456457  0.20106312  0.62950057  1
  Al  Al8  1  0.77916404  0.09343427  0.37767105  1
  Al  Al9  1  0.89322253  0.20131279  0.12784429  1
  Al  Al10  1  0.44653938  0.09312247  0.88042300  1
  Al  Al11  1  0.55979035  0.19708602  0.62716642  1
  Al  Al12  1  0.11079551  0.42387989  0.38828372  1
  Al  Al13  1  0.78518738  0.42315023  0.86950216  1
  Al  Al14  1  0.88765899  0.54134885  0.62915193  1
  Al  Al15  1  0.44635660  0.42395347  0.39665431  1
  Al  Al16  1  0.10832914  0.42315031  0.86950236  1
  Al  Al17  1  0.21835665  0.54120821  0.62531086  1
  Al  Al18  1  0.78199135  0.42387983  0.38828387  1
  Al  Al19  1  0.89262056  0.53142566  0.12853180  1
  Al  Al20  1  0.44880152  0.41906365  0.85858724  1
  Al  Al21  1  0.55710186  0.54120816  0.62531086  1
  Al  Al22  1  0.10862321  0.76528608  0.38765143  1
  Al  Al23  1  0.21558901  0.88548852  0.12973736  1
  Al  Al24  1  0.77810866  0.76044924  0.88045316  1
  Al  Al25  1  0.88476706  0.87384063  0.62917092  1
  Al  Al26  1  0.44275727  0.76528601  0.38765130  1
  Al  Al27  1  0.55312962  0.87749326  0.12827455  1
  Al  Al28  1  0.10550658  0.77231898  0.86959932  1
  Al  Al29  1  0.21938314  0.87790043  0.62709289  1
  Al  Al30  1  0.77847390  0.75971871  0.37584875  1
  Al  Al31  1  0.88604362  0.87749331  0.12827457  1
  Al  Al32  1  0.43884103  0.77231884  0.86959950  1
  Al  Al33  1  0.55805888  0.87384052  0.62917095  1
  Gd  Gd34  1  0.21779475  0.54153177  0.11761890  1
  Gd  Gd35  1  0.55734062  0.54153144  0.11761889  1
  N  N36  1  0.22236782  0.20630060  0.33074182  1
  N  N37  1  0.10972794  0.09721096  0.08197985  1
  N  N38  1  0.89055227  0.20041555  0.82885623  1
  N  N39  1  0.77967032  0.09238230  0.57727315  1
  N  N40  1  0.55500285  0.20666094  0.33441801  1
  N  N41  1  0.44549103  0.09400106  0.08274529  1
  N  N42  1  0.22569887  0.20041571  0.82885625  1
  N  N43  1  0.11017906  0.09630861  0.57734685  1
  N  N44  1  0.88799835  0.20630061  0.33074180  1
  N  N45  1  0.77717452  0.09400114  0.08274537  1
  N  N46  1  0.56052289  0.19562097  0.82404480  1
  N  N47  1  0.44461407  0.09238224  0.57727324  1
  N  N48  1  0.22271396  0.53875043  0.36059904  1
  N  N49  1  0.10052797  0.40979404  0.06934775  1
  N  N50  1  0.88694657  0.54277373  0.82689985  1
  N  N51  1  0.78244715  0.42392889  0.58825025  1
  N  N52  1  0.55520244  0.53875029  0.36059904  1
  N  N53  1  0.46132219  0.39402234  0.05746466  1
  N  N54  1  0.21721683  0.54312142  0.83284091  1
  N  N55  1  0.11029066  0.42392894  0.58825011  1
  N  N56  1  0.89036399  0.53593869  0.33247281  1
  N  N57  1  0.80634504  0.40979385  0.06934752  1
  N  N58  1  0.55632856  0.54312137  0.83284090  1
  N  N59  1  0.44667644  0.42331376  0.59768969  1
  N  N60  1  0.22201197  0.87264260  0.33406406  1
  N  N61  1  0.09471242  0.79707706  0.06921384  1
  N  N62  1  0.88349467  0.87419655  0.82869896  1
  N  N63  1  0.77811913  0.76042825  0.57663632  1
  N  N64  1  0.55562645  0.87115195  0.33030253  1
  N  N65  1  0.42487711  0.79707677  0.06921403  1
  N  N66  1  0.21897689  0.87871294  0.82386027  1
  N  N67  1  0.10756087  0.76599848  0.58720516  1
  N  N68  1  0.88988817  0.87115195  0.33030256  1
  N  N69  1  0.77965798  0.75735052  0.08356513  1
  N  N70  1  0.55897533  0.87419647  0.82869902  1
  N  N71  1  0.44310722  0.76599839  0.58720503  1
