# generated using pymatgen
data_GdAl17N18
_symmetry_space_group_name_H-M   'P 1'
_cell_length_a   9.49323323
_cell_length_b   9.51113937
_cell_length_c   10.14332956
_cell_angle_alpha   89.91030680
_cell_angle_beta   89.99999998
_cell_angle_gamma   60.06225871
_symmetry_Int_Tables_number   1
_chemical_formula_structural   GdAl17N18
_chemical_formula_sum   'Gd2 Al34 N36'
_cell_volume   793.65046083
_cell_formula_units_Z   2
loop_
 _symmetry_equiv_pos_site_id
 _symmetry_equiv_pos_as_xyz
  1  'x, y, z'
loop_
 _atom_site_type_symbol
 _atom_site_label
 _atom_site_symmetry_multiplicity
 _atom_site_fract_x
 _atom_site_fract_y
 _atom_site_fract_z
 _atom_site_occupancy
  Al  Al0  1  0.11093936  0.09478796  0.30212030  1
  Al  Al1  1  0.22183587  0.20120700  0.05457890  1
  Al  Al2  1  0.77827519  0.09393887  0.80376294  1
  Al  Al3  1  0.89061712  0.20249939  0.55250634  1
  Al  Al4  1  0.44537566  0.09397161  0.30260144  1
  Al  Al5  1  0.55928098  0.19810469  0.05358706  1
  Al  Al6  1  0.11117147  0.09432372  0.80389775  1
  Al  Al7  1  0.22355015  0.20249940  0.55250634  1
  Al  Al8  1  0.77731939  0.09397160  0.30260144  1
  Al  Al9  1  0.89362380  0.20120700  0.05457890  1
  Al  Al10  1  0.44445259  0.09393887  0.80376294  1
  Al  Al11  1  0.55820345  0.20025976  0.55203305  1
  Al  Al12  1  0.10895468  0.42420751  0.30874640  1
  Al  Al13  1  0.78149366  0.42464844  0.79364295  1
  Al  Al14  1  0.88823358  0.54019953  0.55128711  1
  Al  Al15  1  0.44738013  0.42190640  0.31490311  1
  Al  Al16  1  0.11052456  0.42464846  0.79364295  1
  Al  Al17  1  0.21962641  0.54005365  0.55187281  1
  Al  Al18  1  0.78350450  0.42420750  0.30874640  1
  Al  Al19  1  0.89201933  0.53262799  0.05509058  1
  Al  Al20  1  0.44624198  0.42418270  0.78494743  1
  Al  Al21  1  0.55698663  0.54005365  0.55187281  1
  Al  Al22  1  0.10657671  0.76959883  0.30908533  1
  Al  Al23  1  0.21601744  0.88463179  0.05526105  1
  Al  Al24  1  0.77846732  0.75973202  0.80438415  1
  Al  Al25  1  0.88609607  0.87370294  0.55258873  1
  Al  Al26  1  0.44049114  0.76959883  0.30908533  1
  Al  Al27  1  0.55342449  0.87814720  0.05413106  1
  Al  Al28  1  0.10998491  0.76362054  0.79379021  1
  Al  Al29  1  0.22040673  0.87585322  0.55197921  1
  Al  Al30  1  0.77781036  0.76104594  0.30341098  1
  Al  Al31  1  0.88509499  0.87814720  0.05413105  1
  Al  Al32  1  0.44306123  0.76362053  0.79379021  1
  Al  Al33  1  0.55686766  0.87370293  0.55258873  1
  Gd  Gd34  1  0.21667901  0.54165417  0.05295420  1
  Gd  Gd35  1  0.55833348  0.54165418  0.05295420  1
  N  N36  1  0.22452260  0.20195583  0.36406435  1
  N  N37  1  0.10970182  0.09726303  0.11259625  1
  N  N38  1  0.88840966  0.20602716  0.86258143  1
  N  N39  1  0.77836003  0.09367883  0.61444411  1
  N  N40  1  0.55889597  0.19887472  0.36596604  1
  N  N41  1  0.44464148  0.09501398  0.11156832  1
  N  N42  1  0.22222984  0.20602717  0.86258142  1
  N  N43  1  0.11101003  0.09464660  0.61471418  1
  N  N44  1  0.89018825  0.20195582  0.36406435  1
  N  N45  1  0.77701120  0.09501398  0.11156831  1
  N  N46  1  0.55474397  0.20717872  0.86105480  1
  N  N47  1  0.44462779  0.09367883  0.61444410  1
  N  N48  1  0.21847492  0.54179560  0.35915165  1
  N  N49  1  0.10088904  0.41095118  0.12334387  1
  N  N50  1  0.89019842  0.53626985  0.86212959  1
  N  N51  1  0.78173444  0.42501474  0.60573371  1
  N  N52  1  0.55639617  0.54179560  0.35915165  1
  N  N53  1  0.45898951  0.39868766  0.13229595  1
  N  N54  1  0.22334886  0.53763473  0.83057338  1
  N  N55  1  0.10991750  0.42501474  0.60573372  1
  N  N56  1  0.88751296  0.54164077  0.36468219  1
  N  N57  1  0.80482643  0.41095119  0.12334387  1
  N  N58  1  0.55568309  0.53763472  0.83057337  1
  N  N59  1  0.44619033  0.42428601  0.59760622  1
  N  N60  1  0.22002340  0.87661987  0.36617259  1
  N  N61  1  0.09494635  0.79450464  0.12367954  1
  N  N62  1  0.89063956  0.87056598  0.86273682  1
  N  N63  1  0.77813844  0.76038978  0.61438432  1
  N  N64  1  0.55779320  0.87399703  0.36420130  1
  N  N65  1  0.42721569  0.79450464  0.12367954  1
  N  N66  1  0.22321132  0.87024405  0.86191064  1
  N  N67  1  0.10886952  0.76478543  0.60598460  1
  N  N68  1  0.88487643  0.87399703  0.36420130  1
  N  N69  1  0.77906853  0.75852962  0.11110007  1
  N  N70  1  0.55546113  0.87056599  0.86273682  1
  N  N71  1  0.44301173  0.76478542  0.60598460  1
