# generated using pymatgen
data_GdAl17N18
_symmetry_space_group_name_H-M   'P 1'
_cell_length_a   9.76611950
_cell_length_b   9.80918192
_cell_length_c   9.35861096
_cell_angle_alpha   89.97133545
_cell_angle_beta   90.00000113
_cell_angle_gamma   60.14512953
_symmetry_Int_Tables_number   1
_chemical_formula_structural   GdAl17N18
_chemical_formula_sum   'Gd2 Al34 N36'
_cell_volume   777.55307345
_cell_formula_units_Z   2
loop_
 _symmetry_equiv_pos_site_id
 _symmetry_equiv_pos_as_xyz
  1  'x, y, z'
loop_
 _atom_site_type_symbol
 _atom_site_label
 _atom_site_symmetry_multiplicity
 _atom_site_fract_x
 _atom_site_fract_y
 _atom_site_fract_z
 _atom_site_occupancy
  Al  Al0  1  0.11122731  0.09421214  0.32995745  1
  Al  Al1  1  0.22211727  0.20135311  0.08295057  1
  Al  Al2  1  0.77930643  0.09339617  0.83322621  1
  Al  Al3  1  0.89106291  0.20085279  0.58122551  1
  Al  Al4  1  0.44666624  0.09302320  0.33024456  1
  Al  Al5  1  0.56015900  0.19634878  0.07933657  1
  Al  Al6  1  0.10988649  0.09689381  0.83257885  1
  Al  Al7  1  0.22475115  0.20085274  0.58122547  1
  Al  Al8  1  0.77697726  0.09302323  0.33024467  1
  Al  Al9  1  0.89319645  0.20135298  0.08295053  1
  Al  Al10  1  0.44396414  0.09339610  0.83322633  1
  Al  Al11  1  0.56004437  0.19657796  0.58402884  1
  Al  Al12  1  0.10832940  0.42317764  0.34220806  1
  Al  Al13  1  0.78247272  0.42355150  0.82217384  1
  Al  Al14  1  0.88756056  0.54154555  0.58179388  1
  Al  Al15  1  0.44889128  0.41888412  0.35375759  1
  Al  Al16  1  0.11064252  0.42355154  0.82217370  1
  Al  Al17  1  0.21818219  0.54135715  0.58698691  1
  Al  Al18  1  0.78515973  0.42317758  0.34220790  1
  Al  Al19  1  0.89255647  0.53155387  0.08206952  1
  Al  Al20  1  0.44653564  0.42359543  0.81358503  1
  Al  Al21  1  0.55712750  0.54135701  0.58698692  1
  Al  Al22  1  0.10558770  0.77231199  0.34195106  1
  Al  Al23  1  0.21558341  0.88549976  0.08043626  1
  Al  Al24  1  0.77843967  0.75978717  0.83508725  1
  Al  Al25  1  0.88456151  0.87393226  0.58161372  1
  Al  Al26  1  0.43876686  0.77231190  0.34195116  1
  Al  Al27  1  0.55318180  0.87734674  0.08242393  1
  Al  Al28  1  0.10816999  0.76593595  0.82289901  1
  Al  Al29  1  0.21924310  0.87818036  0.58417284  1
  Al  Al30  1  0.77813249  0.76040158  0.33014598  1
  Al  Al31  1  0.88613788  0.87734683  0.08242388  1
  Al  Al32  1  0.44256062  0.76593588  0.82289892  1
  Al  Al33  1  0.55817283  0.87393223  0.58161367  1
  Gd  Gd34  1  0.21791273  0.54147369  0.09404962  1
  Gd  Gd35  1  0.55728038  0.54147362  0.09404962  1
  N  N36  1  0.22587146  0.20026064  0.37844879  1
  N  N37  1  0.10976913  0.09712851  0.12524735  1
  N  N38  1  0.88803555  0.20626983  0.87646285  1
  N  N39  1  0.77985274  0.09223707  0.63030988  1
  N  N40  1  0.56069424  0.19527822  0.38373440  1
  N  N41  1  0.44557364  0.09387621  0.12426674  1
  N  N42  1  0.22236136  0.20626993  0.87646288  1
  N  N43  1  0.11002303  0.09662072  0.62995517  1
  N  N44  1  0.89053472  0.20026066  0.37844882  1
  N  N45  1  0.77721683  0.09387624  0.12426684  1
  N  N46  1  0.55505577  0.20655525  0.87233277  1
  N  N47  1  0.44457695  0.09223700  0.63030998  1
  N  N48  1  0.21710490  0.54323979  0.37563579  1
  N  N49  1  0.10056984  0.40994155  0.13774894  1
  N  N50  1  0.89033003  0.53600679  0.87439691  1
  N  N51  1  0.78273689  0.42368109  0.61870109  1
  N  N52  1  0.55632218  0.54323966  0.37563579  1
  N  N53  1  0.46135055  0.39396558  0.14975096  1
  N  N54  1  0.22255515  0.53892301  0.84572043  1
  N  N55  1  0.11024874  0.42368111  0.61870092  1
  N  N56  1  0.88686777  0.54293114  0.38060037  1
  N  N57  1  0.80615542  0.40994146  0.13774877  1
  N  N58  1  0.55518860  0.53892297  0.84572045  1
  N  N59  1  0.44684737  0.42297193  0.60909902  1
  N  N60  1  0.21892667  0.87881319  0.38397656  1
  N  N61  1  0.09496276  0.79685256  0.13767936  1
  N  N62  1  0.88965938  0.87128520  0.87690002  1
  N  N63  1  0.77808744  0.76049165  0.63089036  1
  N  N64  1  0.55905634  0.87420959  0.37856428  1
  N  N65  1  0.42485117  0.79685245  0.13767947  1
  N  N66  1  0.22177844  0.87310976  0.87240259  1
  N  N67  1  0.10724446  0.76635538  0.61992248  1
  N  N68  1  0.88340064  0.87420960  0.37856433  1
  N  N69  1  0.77966714  0.75733219  0.12345302  1
  N  N70  1  0.55572199  0.87128510  0.87690007  1
  N  N71  1  0.44306672  0.76635531  0.61992237  1
