# generated using pymatgen
data_GdAl17N18
_symmetry_space_group_name_H-M   'P 1'
_cell_length_a   9.63992152
_cell_length_b   9.67608167
_cell_length_c   9.72690873
_cell_angle_alpha   90.04997058
_cell_angle_beta   90.00000213
_cell_angle_gamma   60.12355777
_symmetry_Int_Tables_number   1
_chemical_formula_structural   GdAl17N18
_chemical_formula_sum   'Gd2 Al34 N36'
_cell_volume   786.71539591
_cell_formula_units_Z   2
loop_
 _symmetry_equiv_pos_site_id
 _symmetry_equiv_pos_as_xyz
  1  'x, y, z'
loop_
 _atom_site_type_symbol
 _atom_site_label
 _atom_site_symmetry_multiplicity
 _atom_site_fract_x
 _atom_site_fract_y
 _atom_site_fract_z
 _atom_site_occupancy
  Al  Al0  1  0.11038348  0.09589972  0.38020967  1
  Al  Al1  1  0.22210161  0.20115353  0.12996297  1
  Al  Al2  1  0.77711885  0.09327839  0.88228369  1
  Al  Al3  1  0.89080908  0.20160502  0.63149817  1
  Al  Al4  1  0.44420517  0.09358676  0.37993558  1
  Al  Al5  1  0.55991807  0.19683050  0.13225520  1
  Al  Al6  1  0.11106670  0.09453333  0.88281037  1
  Al  Al7  1  0.22425256  0.20160509  0.63149817  1
  Al  Al8  1  0.77887468  0.09358681  0.37993551  1
  Al  Al9  1  0.89341168  0.20115348  0.12996293  1
  Al  Al10  1  0.44626943  0.09327838  0.88228364  1
  Al  Al11  1  0.55933437  0.19799794  0.62990708  1
  Al  Al12  1  0.11095048  0.42441188  0.38985760  1
  Al  Al13  1  0.78508499  0.42320219  0.87313609  1
  Al  Al14  1  0.88788658  0.54089363  0.63152450  1
  Al  Al15  1  0.44609121  0.42448423  0.39819527  1
  Al  Al16  1  0.10837957  0.42320225  0.87313623  1
  Al  Al17  1  0.21863324  0.54098215  0.62982898  1
  Al  Al18  1  0.78130436  0.42441184  0.38985769  1
  Al  Al19  1  0.89253261  0.53160155  0.13035163  1
  Al  Al20  1  0.44864273  0.41938125  0.86322782  1
  Al  Al21  1  0.55705132  0.54098211  0.62982898  1
  Al  Al22  1  0.10928889  0.76438515  0.38933250  1
  Al  Al23  1  0.21557113  0.88552434  0.13095066  1
  Al  Al24  1  0.77806238  0.76054182  0.88192208  1
  Al  Al25  1  0.88526678  0.87372456  0.63121717  1
  Al  Al26  1  0.44299256  0.76438510  0.38933242  1
  Al  Al27  1  0.55325312  0.87763724  0.13034512  1
  Al  Al28  1  0.10554794  0.77202174  0.87302975  1
  Al  Al29  1  0.21972615  0.87721441  0.62997329  1
  Al  Al30  1  0.77848721  0.75969213  0.37859537  1
  Al  Al31  1  0.88577619  0.87763728  0.13034513  1
  Al  Al32  1  0.43909694  0.77202165  0.87302985  1
  Al  Al33  1  0.55767526  0.87372449  0.63121720  1
  Gd  Gd34  1  0.21776632  0.54144629  0.12182851  1
  Gd  Gd35  1  0.55745445  0.54144605  0.12182851  1
  N  N36  1  0.22231563  0.20625946  0.32829757  1
  N  N37  1  0.10967521  0.09731637  0.07911130  1
  N  N38  1  0.89041486  0.20086836  0.82648007  1
  N  N39  1  0.77933103  0.09270520  0.57528578  1
  N  N40  1  0.55488540  0.20689585  0.33118109  1
  N  N41  1  0.44531687  0.09415153  0.07997830  1
  N  N42  1  0.22538346  0.20086847  0.82648009  1
  N  N43  1  0.11042412  0.09581845  0.57535840  1
  N  N44  1  0.88809164  0.20625946  0.32829755  1
  N  N45  1  0.77719822  0.09415158  0.07997836  1
  N  N46  1  0.56021708  0.19623256  0.82236231  1
  N  N47  1  0.44463042  0.09270516  0.57528584  1
  N  N48  1  0.22300515  0.53846409  0.35690123  1
  N  N49  1  0.10049610  0.40976363  0.06707442  1
  N  N50  1  0.88717099  0.54232485  0.82486731  1
  N  N51  1  0.78190406  0.42441847  0.58520792  1
  N  N52  1  0.55519754  0.53846400  0.35690124  1
  N  N53  1  0.46120027  0.39426619  0.05522401  1
  N  N54  1  0.21745442  0.54283927  0.83168539  1
  N  N55  1  0.11034416  0.42441851  0.58520782  1
  N  N56  1  0.89029201  0.53608265  0.32956456  1
  N  N57  1  0.80640724  0.40976349  0.06707426  1
  N  N58  1  0.55637310  0.54283924  0.83168538  1
  N  N59  1  0.44638682  0.42389300  0.59434948  1
  N  N60  1  0.22227679  0.87211303  0.33057015  1
  N  N61  1  0.09449633  0.79697003  0.06675419  1
  N  N62  1  0.88388372  0.87413582  0.82626475  1
  N  N63  1  0.77815016  0.76036623  0.57496330  1
  N  N64  1  0.55559630  0.87099554  0.32792058  1
  N  N65  1  0.42520025  0.79696982  0.06675431  1
  N  N66  1  0.21921498  0.87823676  0.82237664  1
  N  N67  1  0.10813144  0.76536058  0.58440841  1
  N  N68  1  0.89007477  0.87099554  0.32792060  1
  N  N69  1  0.77958378  0.75749897  0.08053726  1
  N  N70  1  0.55864705  0.87413578  0.82626478  1
  N  N71  1  0.44317459  0.76536051  0.58440833  1
