# generated using pymatgen
data_GdAl17N18
_symmetry_space_group_name_H-M   'P 1'
_cell_length_a   9.90518467
_cell_length_b   9.95403747
_cell_length_c   8.94192897
_cell_angle_alpha   90.01973068
_cell_angle_beta   90.00000258
_cell_angle_gamma   60.16223900
_symmetry_Int_Tables_number   1
_chemical_formula_structural   GdAl17N18
_chemical_formula_sum   'Gd2 Al34 N36'
_cell_volume   764.77087313
_cell_formula_units_Z   2
loop_
 _symmetry_equiv_pos_site_id
 _symmetry_equiv_pos_as_xyz
  1  'x, y, z'
loop_
 _atom_site_type_symbol
 _atom_site_label
 _atom_site_symmetry_multiplicity
 _atom_site_fract_x
 _atom_site_fract_y
 _atom_site_fract_z
 _atom_site_occupancy
  Al  Al0  1  0.10957815  0.09751057  0.37088249  1
  Al  Al1  1  0.22259333  0.20107048  0.11970525  1
  Al  Al2  1  0.77705674  0.09299018  0.87116502  1
  Al  Al3  1  0.89099787  0.20081419  0.62099667  1
  Al  Al4  1  0.44407601  0.09312379  0.37032250  1
  Al  Al5  1  0.56082837  0.19500995  0.12447059  1
  Al  Al6  1  0.11119905  0.09426882  0.87154121  1
  Al  Al7  1  0.22485473  0.20081437  0.62099662  1
  Al  Al8  1  0.77946687  0.09312395  0.37032238  1
  Al  Al9  1  0.89300328  0.20107034  0.11970523  1
  Al  Al10  1  0.44661985  0.09299012  0.87116487  1
  Al  Al11  1  0.55980102  0.19706481  0.61783687  1
  Al  Al12  1  0.11034356  0.42278982  0.38071394  1
  Al  Al13  1  0.78497941  0.42309198  0.85828943  1
  Al  Al14  1  0.88761477  0.54143738  0.61996542  1
  Al  Al15  1  0.44705427  0.42255814  0.38841670  1
  Al  Al16  1  0.10859545  0.42309216  0.85828967  1
  Al  Al17  1  0.21874307  0.54104959  0.61369265  1
  Al  Al18  1  0.78353349  0.42278972  0.38071429  1
  Al  Al19  1  0.89216899  0.53232888  0.12066291  1
  Al  Al20  1  0.44893515  0.41879633  0.84932333  1
  Al  Al21  1  0.55687412  0.54104950  0.61369267  1
  Al  Al22  1  0.10714067  0.76747383  0.38015542  1
  Al  Al23  1  0.21541333  0.88583968  0.12360299  1
  Al  Al24  1  0.77829274  0.76008092  0.87194654  1
  Al  Al25  1  0.88446023  0.87375646  0.62063349  1
  Al  Al26  1  0.44205189  0.76747364  0.38015510  1
  Al  Al27  1  0.55351094  0.87742886  0.12016367  1
  Al  Al28  1  0.10602808  0.77193030  0.85841725  1
  Al  Al29  1  0.21907870  0.87850925  0.61714901  1
  Al  Al30  1  0.77842551  0.75981530  0.36762869  1
  Al  Al31  1  0.88572645  0.87742897  0.12016377  1
  Al  Al32  1  0.43870807  0.77192998  0.85841750  1
  Al  Al33  1  0.55844972  0.87375628  0.62063354  1
  Gd  Gd34  1  0.21699012  0.54232105  0.10890840  1
  Gd  Gd35  1  0.55735626  0.54232046  0.10890839  1
  N  N36  1  0.22288948  0.20555884  0.34020879  1
  N  N37  1  0.10973578  0.09719545  0.09067894  1
  N  N38  1  0.89042205  0.20044353  0.83702765  1
  N  N39  1  0.78003912  0.09195368  0.58594870  1
  N  N40  1  0.55582435  0.20501801  0.34486152  1
  N  N41  1  0.44569632  0.09367097  0.09128404  1
  N  N42  1  0.22580119  0.20044379  0.83702771  1
  N  N43  1  0.10973733  0.09719222  0.58609974  1
  N  N44  1  0.88821861  0.20555885  0.34020877  1
  N  N45  1  0.77729935  0.09367112  0.09128418  1
  N  N46  1  0.56016564  0.19633555  0.83117158  1
  N  N47  1  0.44467401  0.09195356  0.58594886  1
  N  N48  1  0.22176963  0.53951395  0.37017414  1
  N  N49  1  0.10097106  0.41042382  0.08009688  1
  N  N50  1  0.88706980  0.54252740  0.83466707  1
  N  N51  1  0.78305813  0.42324607  0.59696313  1
  N  N52  1  0.55538342  0.53951366  0.37017414  1
  N  N53  1  0.46066315  0.39534038  0.07089054  1
  N  N54  1  0.21775597  0.54284225  0.83468578  1
  N  N55  1  0.11036256  0.42324615  0.59696287  1
  N  N56  1  0.89010854  0.53644963  0.34286508  1
  N  N57  1  0.80527243  0.41042350  0.08009642  1
  N  N58  1  0.55606868  0.54284210  0.83468578  1
  N  N59  1  0.44719735  0.42227194  0.60374241  1
  N  N60  1  0.22117410  0.87431813  0.34592321  1
  N  N61  1  0.09549692  0.79612849  0.08040795  1
  N  N62  1  0.88362584  0.87395041  0.83723367  1
  N  N63  1  0.77815897  0.76034836  0.58499415  1
  N  N64  1  0.55616462  0.87181549  0.33957560  1
  N  N65  1  0.42504104  0.79612795  0.08040834  1
  N  N66  1  0.21895442  0.87875778  0.83038143  1
  N  N67  1  0.10684675  0.76664761  0.59574307  1
  N  N68  1  0.88868624  0.87181554  0.33957567  1
  N  N69  1  0.77966870  0.75732890  0.09268914  1
  N  N70  1  0.55909011  0.87395021  0.83723380  1
  N  N71  1  0.44317208  0.76664741  0.59574283  1
