# generated using pymatgen
data_GdAl17N18
_symmetry_space_group_name_H-M   'P 1'
_cell_length_a   9.53823863
_cell_length_b   9.56528661
_cell_length_c   10.01499667
_cell_angle_alpha   89.93432425
_cell_angle_beta   90.00000078
_cell_angle_gamma   60.09350163
_symmetry_Int_Tables_number   1
_chemical_formula_structural   GdAl17N18
_chemical_formula_sum   'Gd2 Al34 N36'
_cell_volume   792.05556086
_cell_formula_units_Z   2
loop_
 _symmetry_equiv_pos_site_id
 _symmetry_equiv_pos_as_xyz
  1  'x, y, z'
loop_
 _atom_site_type_symbol
 _atom_site_label
 _atom_site_symmetry_multiplicity
 _atom_site_fract_x
 _atom_site_fract_y
 _atom_site_fract_z
 _atom_site_occupancy
  Al  Al0  1  0.11096503  0.09473663  0.32479417  1
  Al  Al1  1  0.22204705  0.20099368  0.07722343  1
  Al  Al2  1  0.77849359  0.09378822  0.82677985  1
  Al  Al3  1  0.89053001  0.20235708  0.57558593  1
  Al  Al4  1  0.44577131  0.09361716  0.32529893  1
  Al  Al5  1  0.55973673  0.19719321  0.07582588  1
  Al  Al6  1  0.11083816  0.09499034  0.82665169  1
  Al  Al7  1  0.22377960  0.20235708  0.57558593  1
  Al  Al8  1  0.77727820  0.09361715  0.32529894  1
  Al  Al9  1  0.89362596  0.20099366  0.07722343  1
  Al  Al10  1  0.44438485  0.09378821  0.82677986  1
  Al  Al11  1  0.55854283  0.19958100  0.57604744  1
  Al  Al12  1  0.10866235  0.42361019  0.33220600  1
  Al  Al13  1  0.78095923  0.42481623  0.81731383  1
  Al  Al14  1  0.88819208  0.54028254  0.57495298  1
  Al  Al15  1  0.44809482  0.42047707  0.33985573  1
  Al  Al16  1  0.11089121  0.42481625  0.81731382  1
  Al  Al17  1  0.21931382  0.54042268  0.57502435  1
  Al  Al18  1  0.78439416  0.42361019  0.33220598  1
  Al  Al19  1  0.89226337  0.53213993  0.07730754  1
  Al  Al20  1  0.44599985  0.42466697  0.80902764  1
  Al  Al21  1  0.55693021  0.54042266  0.57502436  1
  Al  Al22  1  0.10606724  0.77081873  0.33254541  1
  Al  Al23  1  0.21570583  0.88525500  0.07733128  1
  Al  Al24  1  0.77847260  0.75972145  0.82755892  1
  Al  Al25  1  0.88596986  0.87359108  0.57576763  1
  Al  Al26  1  0.43978068  0.77081873  0.33254543  1
  Al  Al27  1  0.55347438  0.87785592  0.07684550  1
  Al  Al28  1  0.10992656  0.76358586  0.81762858  1
  Al  Al29  1  0.22023456  0.87619757  0.57590429  1
  Al  Al30  1  0.77798596  0.76069473  0.32606489  1
  Al  Al31  1  0.88533635  0.87785593  0.07684548  1
  Al  Al32  1  0.44315425  0.76358585  0.81762857  1
  Al  Al33  1  0.55710574  0.87359107  0.57576763  1
  Gd  Gd34  1  0.21732983  0.54147192  0.08036947  1
  Gd  Gd35  1  0.55786493  0.54147195  0.08036946  1
  N  N36  1  0.22484672  0.20160956  0.38530093  1
  N  N37  1  0.10965263  0.09736142  0.13342804  1
  N  N38  1  0.88828072  0.20611076  0.88359650  1
  N  N39  1  0.77876620  0.09326433  0.63590760  1
  N  N40  1  0.55946379  0.19773911  0.38824851  1
  N  N41  1  0.44499538  0.09447146  0.13242826  1
  N  N42  1  0.22227519  0.20611079  0.88359650  1
  N  N43  1  0.11077594  0.09511480  0.63592895  1
  N  N44  1  0.89021043  0.20160955  0.38530092  1
  N  N45  1  0.77719984  0.09447144  0.13242827  1
  N  N46  1  0.55482388  0.20701891  0.88167509  1
  N  N47  1  0.44463613  0.09326433  0.63590761  1
  N  N48  1  0.21810630  0.54218102  0.37965784  1
  N  N49  1  0.10065280  0.41019134  0.14448680  1
  N  N50  1  0.89018065  0.53630541  0.88287246  1
  N  N51  1  0.78141078  0.42498153  0.62715672  1
  N  N52  1  0.55637940  0.54218102  0.37965784  1
  N  N53  1  0.46033829  0.39599013  0.15498464  1
  N  N54  1  0.22328789  0.53801081  0.85451096  1
  N  N55  1  0.11027438  0.42498154  0.62715671  1
  N  N56  1  0.88749352  0.54167967  0.38638671  1
  N  N57  1  0.80582253  0.41019133  0.14448677  1
  N  N58  1  0.55536800  0.53801080  0.85451095  1
  N  N59  1  0.44611590  0.42443488  0.61885541  1
  N  N60  1  0.21969421  0.87727825  0.38820853  1
  N  N61  1  0.09458863  0.79590416  0.14493924  1
  N  N62  1  0.89034095  0.87076744  0.88385627  1
  N  N63  1  0.77817038  0.76032589  0.63588741  1
  N  N64  1  0.55810026  0.87398155  0.38552071  1
  N  N65  1  0.42617384  0.79590417  0.14493926  1
  N  N66  1  0.22273545  0.87119580  0.88247042  1
  N  N67  1  0.10882251  0.76463763  0.62760469  1
  N  N68  1  0.88458487  0.87398154  0.38552071  1
  N  N69  1  0.77937763  0.75791138  0.13203638  1
  N  N70  1  0.55555828  0.87076744  0.88385628  1
  N  N71  1  0.44320653  0.76463761  0.62760469  1
