# generated using pymatgen
data_GdAl17N18
_symmetry_space_group_name_H-M   'P 1'
_cell_length_a   9.49323418
_cell_length_b   9.51114110
_cell_length_c   10.14334089
_cell_angle_alpha   90.08970627
_cell_angle_beta   90.00000015
_cell_angle_gamma   60.06226147
_symmetry_Int_Tables_number   1
_chemical_formula_structural   GdAl17N18
_chemical_formula_sum   'Gd2 Al34 N36'
_cell_volume   793.65159279
_cell_formula_units_Z   2
loop_
 _symmetry_equiv_pos_site_id
 _symmetry_equiv_pos_as_xyz
  1  'x, y, z'
loop_
 _atom_site_type_symbol
 _atom_site_label
 _atom_site_symmetry_multiplicity
 _atom_site_fract_x
 _atom_site_fract_y
 _atom_site_fract_z
 _atom_site_occupancy
  Al  Al0  1  0.11121822  0.09423023  0.39573109  1
  Al  Al1  1  0.22188290  0.20111317  0.14505095  1
  Al  Al2  1  0.77736638  0.09387781  0.89702761  1
  Al  Al3  1  0.89066399  0.20240575  0.64712296  1
  Al  Al4  1  0.44449955  0.09384524  0.39586582  1
  Al  Al5  1  0.55932798  0.19801071  0.14604336  1
  Al  Al6  1  0.11098631  0.09469406  0.89750920  1
  Al  Al7  1  0.22359692  0.20240576  0.64712295  1
  Al  Al8  1  0.77832186  0.09384524  0.39586582  1
  Al  Al9  1  0.89367061  0.20111317  0.14505095  1
  Al  Al10  1  0.44542248  0.09387782  0.89702761  1
  Al  Al11  1  0.55825004  0.20016658  0.64759729  1
  Al  Al12  1  0.11057136  0.42455486  0.40598956  1
  Al  Al13  1  0.78355133  0.42411376  0.89088650  1
  Al  Al14  1  0.88828043  0.54010584  0.64834453  1
  Al  Al15  1  0.44628878  0.42408911  0.41468776  1
  Al  Al16  1  0.10900160  0.42411377  0.89088650  1
  Al  Al17  1  0.21967337  0.53996000  0.64776206  1
  Al  Al18  1  0.78154048  0.42455484  0.40598957  1
  Al  Al19  1  0.89206615  0.53253437  0.14454069  1
  Al  Al20  1  0.44742690  0.42181289  0.88473461  1
  Al  Al21  1  0.55703333  0.53996000  0.64776206  1
  Al  Al22  1  0.11003170  0.76352684  0.40584160  1
  Al  Al23  1  0.21606430  0.88453810  0.14436967  1
  Al  Al24  1  0.77785713  0.76095240  0.89621777  1
  Al  Al25  1  0.88614277  0.87360960  0.64704007  1
  Al  Al26  1  0.44310815  0.76352683  0.40584160  1
  Al  Al27  1  0.55347157  0.87805351  0.14549784  1
  Al  Al28  1  0.10662365  0.76950524  0.89054635  1
  Al  Al29  1  0.22045340  0.87575990  0.64765032  1
  Al  Al30  1  0.77851414  0.75963839  0.39524570  1
  Al  Al31  1  0.88514163  0.87805351  0.14549785  1
  Al  Al32  1  0.44053780  0.76950524  0.89054635  1
  Al  Al33  1  0.55691430  0.87360961  0.64704007  1
  Gd  Gd34  1  0.21672444  0.54156147  0.14668133  1
  Gd  Gd35  1  0.55838078  0.54156148  0.14668133  1
  N  N36  1  0.22227654  0.20593398  0.33704912  1
  N  N37  1  0.10974875  0.09716918  0.08703439  1
  N  N38  1  0.89023503  0.20186245  0.83556609  1
  N  N39  1  0.77840651  0.09358554  0.58518556  1
  N  N40  1  0.55479055  0.20708557  0.33857651  1
  N  N41  1  0.44468837  0.09492039  0.08806187  1
  N  N42  1  0.22456921  0.20186246  0.83556609  1
  N  N43  1  0.11105679  0.09455309  0.58491524  1
  N  N44  1  0.88845616  0.20593396  0.33704912  1
  N  N45  1  0.77705791  0.09492039  0.08806187  1
  N  N46  1  0.55894218  0.19878232  0.83366560  1
  N  N47  1  0.44467461  0.09358554  0.58518556  1
  N  N48  1  0.22339600  0.53754085  0.36906144  1
  N  N49  1  0.10093612  0.41085776  0.07628879  1
  N  N50  1  0.88755998  0.54154674  0.83494985  1
  N  N51  1  0.78178090  0.42492149  0.59389908  1
  N  N52  1  0.55572985  0.53754084  0.36906144  1
  N  N53  1  0.45903540  0.39859589  0.06734085  1
  N  N54  1  0.21852222  0.54170167  0.84048327  1
  N  N55  1  0.10996430  0.42492150  0.59389908  1
  N  N56  1  0.89024533  0.53617605  0.33750218  1
  N  N57  1  0.80487280  0.41085776  0.07628880  1
  N  N58  1  0.55644281  0.54170168  0.84048328  1
  N  N59  1  0.44623685  0.42419300  0.60202845  1
  N  N60  1  0.22325840  0.87014991  0.33772063  1
  N  N61  1  0.09499361  0.79441055  0.07595220  1
  N  N62  1  0.88492356  0.87390328  0.83542854  1
  N  N63  1  0.77818538  0.76029592  0.58524599  1
  N  N64  1  0.55550795  0.87047193  0.33689326  1
  N  N65  1  0.42726253  0.79441055  0.07595220  1
  N  N66  1  0.22007034  0.87652600  0.83345779  1
  N  N67  1  0.10891652  0.76469147  0.59364748  1
  N  N68  1  0.89068682  0.87047192  0.33689327  1
  N  N69  1  0.77911548  0.75843573  0.08853008  1
  N  N70  1  0.55783983  0.87390329  0.83542855  1
  N  N71  1  0.44305869  0.76469147  0.59364747  1
