# generated using pymatgen
data_GdAl17N18
_symmetry_space_group_name_H-M   'P 1'
_cell_length_a   9.66547316
_cell_length_b   9.70328407
_cell_length_c   9.65323907
_cell_angle_alpha   90.04666850
_cell_angle_beta   90.00000218
_cell_angle_gamma   60.12883319
_symmetry_Int_Tables_number   1
_chemical_formula_structural   GdAl17N18
_chemical_formula_sum   'Gd2 Al34 N36'
_cell_volume   785.06878365
_cell_formula_units_Z   2
loop_
 _symmetry_equiv_pos_site_id
 _symmetry_equiv_pos_as_xyz
  1  'x, y, z'
loop_
 _atom_site_type_symbol
 _atom_site_label
 _atom_site_symmetry_multiplicity
 _atom_site_fract_x
 _atom_site_fract_y
 _atom_site_fract_z
 _atom_site_occupancy
  Al  Al0  1  0.11027905  0.09610859  0.37950718  1
  Al  Al1  1  0.22210789  0.20121161  0.12931270  1
  Al  Al2  1  0.77707812  0.09321895  0.88173754  1
  Al  Al3  1  0.89089337  0.20140995  0.63088570  1
  Al  Al4  1  0.44415716  0.09353625  0.37921748  1
  Al  Al5  1  0.55994927  0.19676808  0.13186508  1
  Al  Al6  1  0.11110033  0.09446608  0.88226874  1
  Al  Al7  1  0.22436334  0.20141004  0.63088570  1
  Al  Al8  1  0.77897322  0.09353630  0.37921740  1
  Al  Al9  1  0.89334733  0.20121156  0.12931266  1
  Al  Al10  1  0.44636960  0.09321894  0.88173748  1
  Al  Al11  1  0.55950805  0.19765061  0.62904218  1
  Al  Al12  1  0.11090769  0.42424394  0.38936942  1
  Al  Al13  1  0.78514319  0.42317203  0.87198861  1
  Al  Al14  1  0.88780563  0.54105555  0.63078469  1
  Al  Al15  1  0.44617064  0.42432537  0.39773616  1
  Al  Al16  1  0.10835153  0.42317210  0.87198877  1
  Al  Al17  1  0.21851359  0.54107584  0.62840638  1
  Al  Al18  1  0.78151510  0.42424389  0.38936954  1
  Al  Al19  1  0.89257441  0.53151795  0.12980364  1
  Al  Al20  1  0.44870879  0.41924913  0.86166255  1
  Al  Al21  1  0.55707728  0.54107580  0.62840637  1
  Al  Al22  1  0.10907598  0.76467218  0.38880347  1
  Al  Al23  1  0.21557495  0.88551668  0.13059414  1
  Al  Al24  1  0.77807629  0.76051400  0.88150313  1
  Al  Al25  1  0.88508831  0.87376663  0.63058618  1
  Al  Al26  1  0.44291843  0.76467213  0.38880336  1
  Al  Al27  1  0.55320242  0.87758566  0.12970905  1
  Al  Al28  1  0.10550888  0.77216106  0.87195176  1
  Al  Al29  1  0.21960321  0.87746029  0.62906726  1
  Al  Al30  1  0.77848505  0.75969644  0.37771752  1
  Al  Al31  1  0.88587847  0.87758570  0.12970907  1
  Al  Al32  1  0.43899669  0.77216095  0.87195189  1
  Al  Al33  1  0.55781164  0.87376655  0.63058621  1
  Gd  Gd34  1  0.21780147  0.54146087  0.12037369  1
  Gd  Gd35  1  0.55740475  0.54146059  0.12037369  1
  N  N36  1  0.22232847  0.20628432  0.32906684  1
  N  N37  1  0.10969262  0.09728156  0.08004040  1
  N  N38  1  0.89046640  0.20070132  0.82723566  1
  N  N39  1  0.77945235  0.09258891  0.57589818  1
  N  N40  1  0.55491496  0.20683672  0.33221406  1
  N  N41  1  0.44537910  0.09409808  0.08087156  1
  N  N42  1  0.22549896  0.20070144  0.82723567  1
  N  N43  1  0.11034123  0.09598424  0.57597174  1
  N  N44  1  0.88805396  0.20628432  0.32906682  1
  N  N45  1  0.77718943  0.09409814  0.08087163  1
  N  N46  1  0.56034468  0.19597737  0.82287673  1
  N  N47  1  0.44462541  0.09258886  0.57589825  1
  N  N48  1  0.22291414  0.53856124  0.35802600  1
  N  N49  1  0.10049734  0.40975190  0.06776988  1
  N  N50  1  0.88708845  0.54248994  0.82550590  1
  N  N51  1  0.78209073  0.42425008  0.58617856  1
  N  N52  1  0.55519141  0.53856114  0.35802600  1
  N  N53  1  0.46127202  0.39412268  0.05582016  1
  N  N54  1  0.21734827  0.54295524  0.83209913  1
  N  N55  1  0.11032588  0.42425012  0.58617844  1
  N  N56  1  0.89032087  0.53602492  0.33048366  1
  N  N57  1  0.80641776  0.40975174  0.06776969  1
  N  N58  1  0.55636328  0.54295521  0.83209912  1
  N  N59  1  0.44648406  0.42369851  0.59547637  1
  N  N60  1  0.22218701  0.87229256  0.33167371  1
  N  N61  1  0.09455315  0.79704663  0.06750810  1
  N  N62  1  0.88373629  0.87416321  0.82703550  1
  N  N63  1  0.77813998  0.76038657  0.57547069  1
  N  N64  1  0.55560184  0.87104549  0.32866827  1
  N  N65  1  0.42506684  0.79704639  0.06750825  1
  N  N66  1  0.21912420  0.87841832  0.82283616  1
  N  N67  1  0.10793425  0.76558457  0.58529376  1
  N  N68  1  0.89001928  0.87104548  0.32866829  1
  N  N69  1  0.77961346  0.75743960  0.08150953  1
  N  N70  1  0.55876709  0.87416314  0.82703554  1
  N  N71  1  0.44314777  0.76558449  0.58529366  1
