# generated using pymatgen
data_GdAl17N18
_symmetry_space_group_name_H-M   'P 1'
_cell_length_a   9.49323456
_cell_length_b   9.51114232
_cell_length_c   10.14333879
_cell_angle_alpha   90.08969361
_cell_angle_beta   90.00000013
_cell_angle_gamma   60.06226436
_symmetry_Int_Tables_number   1
_chemical_formula_structural   GdAl17N18
_chemical_formula_sum   'Gd2 Al34 N36'
_cell_volume   793.65158578
_cell_formula_units_Z   2
loop_
 _symmetry_equiv_pos_site_id
 _symmetry_equiv_pos_as_xyz
  1  'x, y, z'
loop_
 _atom_site_type_symbol
 _atom_site_label
 _atom_site_symmetry_multiplicity
 _atom_site_fract_x
 _atom_site_fract_y
 _atom_site_fract_z
 _atom_site_occupancy
  Al  Al0  1  0.11121613  0.09423440  0.39421608  1
  Al  Al1  1  0.22188078  0.20111706  0.14353467  1
  Al  Al2  1  0.77736438  0.09388195  0.89551006  1
  Al  Al3  1  0.89066165  0.20241023  0.64560557  1
  Al  Al4  1  0.44449756  0.09384931  0.39435034  1
  Al  Al5  1  0.55932616  0.19801434  0.14452554  1
  Al  Al6  1  0.11098426  0.09469817  0.89599125  1
  Al  Al7  1  0.22359478  0.20241024  0.64560556  1
  Al  Al8  1  0.77831978  0.09384931  0.39435034  1
  Al  Al9  1  0.89366884  0.20111706  0.14353467  1
  Al  Al10  1  0.44542034  0.09388196  0.89551005  1
  Al  Al11  1  0.55824791  0.20017084  0.64607934  1
  Al  Al12  1  0.11056946  0.42455887  0.40446986  1
  Al  Al13  1  0.78354944  0.42411790  0.88936708  1
  Al  Al14  1  0.88827854  0.54010962  0.64682507  1
  Al  Al15  1  0.44628682  0.42409304  0.41316648  1
  Al  Al16  1  0.10899936  0.42411791  0.88936708  1
  Al  Al17  1  0.21967138  0.53996405  0.64624085  1
  Al  Al18  1  0.78153837  0.42455885  0.40446987  1
  Al  Al19  1  0.89206410  0.53253848  0.14302428  1
  Al  Al20  1  0.44742492  0.42181684  0.88321343  1
  Al  Al21  1  0.55703127  0.53996405  0.64624085  1
  Al  Al22  1  0.11002947  0.76353105  0.40432224  1
  Al  Al23  1  0.21606212  0.88454244  0.14285322  1
  Al  Al24  1  0.77785530  0.76095608  0.89470100  1
  Al  Al25  1  0.88614114  0.87361337  0.64552328  1
  Al  Al26  1  0.44310616  0.76353104  0.40432224  1
  Al  Al27  1  0.55346949  0.87805754  0.14398177  1
  Al  Al28  1  0.10662172  0.76950926  0.88902750  1
  Al  Al29  1  0.22045165  0.87576339  0.64613222  1
  Al  Al30  1  0.77851193  0.75964281  0.39373040  1
  Al  Al31  1  0.88513966  0.87805755  0.14398177  1
  Al  Al32  1  0.44053570  0.76950926  0.88902750  1
  Al  Al33  1  0.55691216  0.87361337  0.64552328  1
  Gd  Gd34  1  0.21672325  0.54156492  0.14516085  1
  Gd  Gd35  1  0.55837851  0.54156493  0.14516085  1
  N  N36  1  0.22227469  0.20593744  0.33553250  1
  N  N37  1  0.10974672  0.09717325  0.08551680  1
  N  N38  1  0.89023295  0.20186656  0.83404822  1
  N  N39  1  0.77840466  0.09358937  0.58366919  1
  N  N40  1  0.55478882  0.20708903  0.33705900  1
  N  N41  1  0.44468621  0.09492422  0.08654459  1
  N  N42  1  0.22456717  0.20186658  0.83404821  1
  N  N43  1  0.11105473  0.09455721  0.58339914  1
  N  N44  1  0.88845454  0.20593743  0.33553250  1
  N  N45  1  0.77705624  0.09492422  0.08654459  1
  N  N46  1  0.55894039  0.19878589  0.83214709  1
  N  N47  1  0.44467262  0.09358937  0.58366919  1
  N  N48  1  0.22339369  0.53754519  0.36754132  1
  N  N49  1  0.10093381  0.41086162  0.07477052  1
  N  N50  1  0.88755793  0.54155084  0.83343074  1
  N  N51  1  0.78177896  0.42492537  0.59237943  1
  N  N52  1  0.55572781  0.53754518  0.36754132  1
  N  N53  1  0.45903408  0.39859852  0.06582020  1
  N  N54  1  0.21852006  0.54170578  0.83896298  1
  N  N55  1  0.10996236  0.42492538  0.59237943  1
  N  N56  1  0.89024303  0.53618064  0.33598502  1
  N  N57  1  0.80487126  0.41086162  0.07477053  1
  N  N58  1  0.55644086  0.54170578  0.83896298  1
  N  N59  1  0.44623498  0.42419674  0.60050762  1
  N  N60  1  0.22325593  0.87015484  0.33620356  1
  N  N61  1  0.09499146  0.79441485  0.07443423  1
  N  N62  1  0.88492149  0.87390727  0.83391130  1
  N  N63  1  0.77818319  0.76030030  0.58372957  1
  N  N64  1  0.55550611  0.87047647  0.33537673  1
  N  N65  1  0.42726037  0.79441485  0.07443423  1
  N  N66  1  0.22006829  0.87653010  0.83193944  1
  N  N67  1  0.10891432  0.76469568  0.59212829  1
  N  N68  1  0.89068411  0.87047646  0.33537674  1
  N  N69  1  0.77911349  0.75843971  0.08701333  1
  N  N70  1  0.55783791  0.87390728  0.83391130  1
  N  N71  1  0.44305669  0.76469568  0.59212829  1
