# generated using pymatgen
data_GdAl17N18
_symmetry_space_group_name_H-M   'P 1'
_cell_length_a   9.51242500
_cell_length_b   9.53551484
_cell_length_c   10.08757651
_cell_angle_alpha   90.07691804
_cell_angle_beta   90.00000136
_cell_angle_gamma   60.08007387
_symmetry_Int_Tables_number   1
_chemical_formula_structural   GdAl17N18
_chemical_formula_sum   'Gd2 Al34 N36'
_cell_volume   793.05298055
_cell_formula_units_Z   2
loop_
 _symmetry_equiv_pos_site_id
 _symmetry_equiv_pos_as_xyz
  1  'x, y, z'
loop_
 _atom_site_type_symbol
 _atom_site_label
 _atom_site_symmetry_multiplicity
 _atom_site_fract_x
 _atom_site_fract_y
 _atom_site_fract_z
 _atom_site_occupancy
  Al  Al0  1  0.11100744  0.09465177  0.38274576  1
  Al  Al1  1  0.22198769  0.20104280  0.13210647  1
  Al  Al2  1  0.77731170  0.09375751  0.88400683  1
  Al  Al3  1  0.89054814  0.20245382  0.63392212  1
  Al  Al4  1  0.44444145  0.09382383  0.38274685  1
  Al  Al5  1  0.55956543  0.19753580  0.13330454  1
  Al  Al6  1  0.11095527  0.09475616  0.88451489  1
  Al  Al7  1  0.22366468  0.20245385  0.63392212  1
  Al  Al8  1  0.77840134  0.09382384  0.38274684  1
  Al  Al9  1  0.89363622  0.20104278  0.13210645  1
  Al  Al10  1  0.44559745  0.09375753  0.88400682  1
  Al  Al11  1  0.55834874  0.19996918  0.63389598  1
  Al  Al12  1  0.11076501  0.42475119  0.39241158  1
  Al  Al13  1  0.78399402  0.42385377  0.87756972  1
  Al  Al14  1  0.88824919  0.54016834  0.63481149  1
  Al  Al15  1  0.44610414  0.42445838  0.40081667  1
  Al  Al16  1  0.10881893  0.42385379  0.87756974  1
  Al  Al17  1  0.21952552  0.54020134  0.63464998  1
  Al  Al18  1  0.78115050  0.42475116  0.39241160  1
  Al  Al19  1  0.89216646  0.53233379  0.13182346  1
  Al  Al20  1  0.44778391  0.42109889  0.87072408  1
  Al  Al21  1  0.55693984  0.54020133  0.63464998  1
  Al  Al22  1  0.11000817  0.76351777  0.39217889  1
  Al  Al23  1  0.21583501  0.88499665  0.13169156  1
  Al  Al24  1  0.77793492  0.76079680  0.88319757  1
  Al  Al25  1  0.88609174  0.87358749  0.63378143  1
  Al  Al26  1  0.44314072  0.76351775  0.39217888  1
  Al  Al27  1  0.55348841  0.87796517  0.13250129  1
  Al  Al28  1  0.10632827  0.77022726  0.87719666  1
  Al  Al29  1  0.22035066  0.87596537  0.63399715  1
  Al  Al30  1  0.77848477  0.75969710  0.38204743  1
  Al  Al31  1  0.88521309  0.87796517  0.13250130  1
  Al  Al32  1  0.44011113  0.77022724  0.87719667  1
  Al  Al33  1  0.55698743  0.87358748  0.63378143  1
  Gd  Gd34  1  0.21702353  0.54156488  0.13119780  1
  Gd  Gd35  1  0.55807839  0.54156484  0.13119781  1
  N  N36  1  0.22227675  0.20603932  0.32476698  1
  N  N37  1  0.10966991  0.09732688  0.07481897  1
  N  N38  1  0.89019142  0.20178486  0.82315410  1
  N  N39  1  0.77858173  0.09343517  0.57269038  1
  N  N40  1  0.55481564  0.20703537  0.32647647  1
  N  N41  1  0.44485662  0.09467817  0.07582717  1
  N  N42  1  0.22469040  0.20178490  0.82315411  1
  N  N43  1  0.11090039  0.09486586  0.57255031  1
  N  N44  1  0.88835059  0.20603931  0.32476698  1
  N  N45  1  0.77713187  0.09467817  0.07582718  1
  N  N46  1  0.55917866  0.19830937  0.82069382  1
  N  N47  1  0.44464973  0.09343517  0.57269038  1
  N  N48  1  0.22334163  0.53781185  0.35501891  1
  N  N49  1  0.10078014  0.41049766  0.06394465  1
  N  N50  1  0.88754570  0.54157534  0.82227495  1
  N  N51  1  0.78149795  0.42501262  0.58131986  1
  N  N52  1  0.55551321  0.53781182  0.35501891  1
  N  N53  1  0.45975430  0.39715814  0.05420991  1
  N  N54  1  0.21832886  0.54195425  0.82852668  1
  N  N55  1  0.11015612  0.42501264  0.58131985  1
  N  N56  1  0.89019502  0.53627664  0.32534383  1
  N  N57  1  0.80538897  0.41049762  0.06394462  1
  N  N58  1  0.55638363  0.54195425  0.82852668  1
  N  N59  1  0.44613638  0.42439392  0.58944490  1
  N  N60  1  0.22295995  0.87074678  0.32563062  1
  N  N61  1  0.09474033  0.79527964  0.06350749  1
  N  N62  1  0.88476469  0.87394546  0.82295970  1
  N  N63  1  0.77817718  0.76031228  0.57273063  1
  N  N64  1  0.55553138  0.87064549  0.32454872  1
  N  N65  1  0.42664670  0.79527960  0.06350751  1
  N  N66  1  0.21986243  0.87694182  0.82061877  1
  N  N67  1  0.10891454  0.76460064  0.58097352  1
  N  N68  1  0.89048979  0.87064549  0.32454872  1
  N  N69  1  0.77926446  0.75813773  0.07624577  1
  N  N70  1  0.55795651  0.87394546  0.82295971  1
  N  N71  1  0.44315148  0.76460062  0.58097351  1
