# generated using pymatgen
data_GdAl17N18
_symmetry_space_group_name_H-M   'P 1'
_cell_length_a   9.49323261
_cell_length_b   9.51114015
_cell_length_c   10.14333559
_cell_angle_alpha   90.08967911
_cell_angle_beta   90.00000015
_cell_angle_gamma   60.06226365
_symmetry_Int_Tables_number   1
_chemical_formula_structural   GdAl17N18
_chemical_formula_sum   'Gd2 Al34 N36'
_cell_volume   793.65098545
_cell_formula_units_Z   2
loop_
 _symmetry_equiv_pos_site_id
 _symmetry_equiv_pos_as_xyz
  1  'x, y, z'
loop_
 _atom_site_type_symbol
 _atom_site_label
 _atom_site_symmetry_multiplicity
 _atom_site_fract_x
 _atom_site_fract_y
 _atom_site_fract_z
 _atom_site_occupancy
  Al  Al0  1  0.11121402  0.09423862  0.39264588  1
  Al  Al1  1  0.22187860  0.20112136  0.14196406  1
  Al  Al2  1  0.77736224  0.09388614  0.89394007  1
  Al  Al3  1  0.89065957  0.20241439  0.64403547  1
  Al  Al4  1  0.44449534  0.09385362  0.39278027  1
  Al  Al5  1  0.55932398  0.19801870  0.14295469  1
  Al  Al6  1  0.11098212  0.09470244  0.89442119  1
  Al  Al7  1  0.22359270  0.20241440  0.64403547  1
  Al  Al8  1  0.77831770  0.09385362  0.39278027  1
  Al  Al9  1  0.89366672  0.20112137  0.14196406  1
  Al  Al10  1  0.44541829  0.09388615  0.89394006  1
  Al  Al11  1  0.55824593  0.20017480  0.64450872  1
  Al  Al12  1  0.11056731  0.42456318  0.40289824  1
  Al  Al13  1  0.78354736  0.42412210  0.88779496  1
  Al  Al14  1  0.88827635  0.54011400  0.64525380  1
  Al  Al15  1  0.44628471  0.42409726  0.41159341  1
  Al  Al16  1  0.10899724  0.42412211  0.88779496  1
  Al  Al17  1  0.21966917  0.53996834  0.64466803  1
  Al  Al18  1  0.78153620  0.42456316  0.40289825  1
  Al  Al19  1  0.89206205  0.53254257  0.14145272  1
  Al  Al20  1  0.44742289  0.42182091  0.88163878  1
  Al  Al21  1  0.55702919  0.53996833  0.64466803  1
  Al  Al22  1  0.11002743  0.76353535  0.40275098  1
  Al  Al23  1  0.21606010  0.88454649  0.14128217  1
  Al  Al24  1  0.77785323  0.76096022  0.89313106  1
  Al  Al25  1  0.88613904  0.87361751  0.64395339  1
  Al  Al26  1  0.44310391  0.76353534  0.40275097  1
  Al  Al27  1  0.55346727  0.87806168  0.14241173  1
  Al  Al28  1  0.10661960  0.76951331  0.88745622  1
  Al  Al29  1  0.22044957  0.87576755  0.64456220  1
  Al  Al30  1  0.77850980  0.75964706  0.39215967  1
  Al  Al31  1  0.88513774  0.87806168  0.14241173  1
  Al  Al32  1  0.44053377  0.76951331  0.88745622  1
  Al  Al33  1  0.55691013  0.87361751  0.64395339  1
  Gd  Gd34  1  0.21672191  0.54156845  0.14358756  1
  Gd  Gd35  1  0.55837632  0.54156846  0.14358756  1
  N  N36  1  0.22227260  0.20594164  0.33396151  1
  N  N37  1  0.10974461  0.09717747  0.08394599  1
  N  N38  1  0.89023095  0.20187050  0.83247743  1
  N  N39  1  0.77840266  0.09359352  0.58209860  1
  N  N40  1  0.55478679  0.20709308  0.33548743  1
  N  N41  1  0.44468412  0.09492831  0.08497374  1
  N  N42  1  0.22456522  0.20187052  0.83247743  1
  N  N43  1  0.11105266  0.09456134  0.58182866  1
  N  N44  1  0.88845243  0.20594163  0.33396151  1
  N  N45  1  0.77705425  0.09492830  0.08497374  1
  N  N46  1  0.55893865  0.19878937  0.83057566  1
  N  N47  1  0.44467048  0.09359352  0.58209860  1
  N  N48  1  0.22339142  0.53754960  0.36596827  1
  N  N49  1  0.10093163  0.41086562  0.07319825  1
  N  N50  1  0.88755572  0.54155525  0.83185901  1
  N  N51  1  0.78177702  0.42492943  0.59080763  1
  N  N52  1  0.55572568  0.53754958  0.36596828  1
  N  N53  1  0.45903244  0.39860180  0.06424604  1
  N  N54  1  0.21851773  0.54171009  0.83738994  1
  N  N55  1  0.10996024  0.42492944  0.59080762  1
  N  N56  1  0.89024087  0.53618496  0.33441329  1
  N  N57  1  0.80486943  0.41086562  0.07319826  1
  N  N58  1  0.55643888  0.54171009  0.83738994  1
  N  N59  1  0.44623301  0.42420067  0.59893487  1
  N  N60  1  0.22325368  0.87015934  0.33463215  1
  N  N61  1  0.09498924  0.79441908  0.07286272  1
  N  N62  1  0.88491929  0.87391147  0.83234076  1
  N  N63  1  0.77818098  0.76030471  0.58215860  1
  N  N64  1  0.55550389  0.87048096  0.33380607  1
  N  N65  1  0.42725836  0.79441909  0.07286272  1
  N  N66  1  0.22006617  0.87653435  0.83036888  1
  N  N67  1  0.10891213  0.76470012  0.59055683  1
  N  N68  1  0.89068184  0.87048095  0.33380607  1
  N  N69  1  0.77911133  0.75844402  0.08544238  1
  N  N70  1  0.55783591  0.87391148  0.83234076  1
  N  N71  1  0.44305443  0.76470012  0.59055683  1
