# generated using pymatgen
data_GdAl17N18
_symmetry_space_group_name_H-M   'P 1'
_cell_length_a   9.94565901
_cell_length_b   9.99585614
_cell_length_c   8.81958870
_cell_angle_alpha   90.01476084
_cell_angle_beta   90.00000257
_cell_angle_gamma   60.16600352
_symmetry_Int_Tables_number   1
_chemical_formula_structural   GdAl17N18
_chemical_formula_sum   'Gd2 Al34 N36'
_cell_volume   760.60040147
_cell_formula_units_Z   2
loop_
 _symmetry_equiv_pos_site_id
 _symmetry_equiv_pos_as_xyz
  1  'x, y, z'
loop_
 _atom_site_type_symbol
 _atom_site_label
 _atom_site_symmetry_multiplicity
 _atom_site_fract_x
 _atom_site_fract_y
 _atom_site_fract_z
 _atom_site_occupancy
  Al  Al0  1  0.10959723  0.09747251  0.36879642  1
  Al  Al1  1  0.22280474  0.20081089  0.11700504  1
  Al  Al2  1  0.77720902  0.09299106  0.86762596  1
  Al  Al3  1  0.89082203  0.20108273  0.61798167  1
  Al  Al4  1  0.44421940  0.09308975  0.36816752  1
  Al  Al5  1  0.56109827  0.19447021  0.12171219  1
  Al  Al6  1  0.11109677  0.09447345  0.86789809  1
  Al  Al7  1  0.22476209  0.20108292  0.61798159  1
  Al  Al8  1  0.77935755  0.09308994  0.36816745  1
  Al  Al9  1  0.89305158  0.20081069  0.11700505  1
  Al  Al10  1  0.44646673  0.09299098  0.86762583  1
  Al  Al11  1  0.55957133  0.19752422  0.61528057  1
  Al  Al12  1  0.11021497  0.42268807  0.37770877  1
  Al  Al13  1  0.78489740  0.42301548  0.85550974  1
  Al  Al14  1  0.88777748  0.54111200  0.61698936  1
  Al  Al15  1  0.44721205  0.42224257  0.38527752  1
  Al  Al16  1  0.10875402  0.42301570  0.85550991  1
  Al  Al17  1  0.21898143  0.54089888  0.61152042  1
  Al  Al18  1  0.78376391  0.42268795  0.37770919  1
  Al  Al19  1  0.89190707  0.53285278  0.11773393  1
  Al  Al20  1  0.44891427  0.41883806  0.84785721  1
  Al  Al21  1  0.55678651  0.54089875  0.61152044  1
  Al  Al22  1  0.10694596  0.76794382  0.37727819  1
  Al  Al23  1  0.21528279  0.88610069  0.12095916  1
  Al  Al24  1  0.77833364  0.75999900  0.86838646  1
  Al  Al25  1  0.88467939  0.87362885  0.61762752  1
  Al  Al26  1  0.44177656  0.76794356  0.37727780  1
  Al  Al27  1  0.55378710  0.87750030  0.11739540  1
  Al  Al28  1  0.10617464  0.77165533  0.85551872  1
  Al  Al29  1  0.21915876  0.87834908  0.61444542  1
  Al  Al30  1  0.77844033  0.75978555  0.36547274  1
  Al  Al31  1  0.88537869  0.87750046  0.11739555  1
  Al  Al32  1  0.43883639  0.77165493  0.85551894  1
  Al  Al33  1  0.55835807  0.87362867  0.61762756  1
  Gd  Gd34  1  0.21668771  0.54258336  0.10753321  1
  Gd  Gd35  1  0.55739648  0.54258266  0.10753320  1
  N  N36  1  0.22312892  0.20513057  0.34344804  1
  N  N37  1  0.10967796  0.09731120  0.09312663  1
  N  N38  1  0.89024440  0.20080354  0.83958761  1
  N  N39  1  0.77997802  0.09195475  0.58915899  1
  N  N40  1  0.55614956  0.20436761  0.34771782  1
  N  N41  1  0.44565309  0.09359675  0.09371601  1
  N  N42  1  0.22561887  0.20080384  0.83958769  1
  N  N43  1  0.10972438  0.09721820  0.58936232  1
  N  N44  1  0.88840753  0.20513056  0.34344801  1
  N  N45  1  0.77741684  0.09359693  0.09371612  1
  N  N46  1  0.55986529  0.19693627  0.83383146  1
  N  N47  1  0.44473409  0.09195462  0.58915915  1
  N  N48  1  0.22151484  0.53972057  0.37166805  1
  N  N49  1  0.10114326  0.41060066  0.08428695  1
  N  N50  1  0.88731964  0.54202779  0.83741667  1
  N  N51  1  0.78305781  0.42322977  0.59888125  1
  N  N52  1  0.55543166  0.53972020  0.37166805  1
  N  N53  1  0.46035226  0.39596215  0.07586819  1
  N  N54  1  0.21807274  0.54258501  0.83484734  1
  N  N55  1  0.11037923  0.42322986  0.59888099  1
  N  N56  1  0.88989757  0.53687162  0.34605270  1
  N  N57  1  0.80492352  0.41060027  0.08428640  1
  N  N58  1  0.55600920  0.54258480  0.83484735  1
  N  N59  1  0.44728552  0.42209559  0.60440216  1
  N  N60  1  0.22091038  0.87484551  0.34916184  1
  N  N61  1  0.09563670  0.79572346  0.08463474  1
  N  N62  1  0.88398068  0.87379023  0.83993933  1
  N  N63  1  0.77821899  0.76022823  0.58841993  1
  N  N64  1  0.55644735  0.87203851  0.34276203  1
  N  N65  1  0.42530623  0.79572280  0.08463520  1
  N  N66  1  0.21910143  0.87846368  0.83300830  1
  N  N67  1  0.10687524  0.76664906  0.59777658  1
  N  N68  1  0.88818037  0.87203860  0.34276210  1
  N  N69  1  0.77963069  0.75740484  0.09508231  1
  N  N70  1  0.55889534  0.87379000  0.83993951  1
  N  N71  1  0.44314208  0.76664882  0.59777635  1
