# generated using pymatgen
data_GdAl17N18
_symmetry_space_group_name_H-M   'P 1'
_cell_length_a   9.99893016
_cell_length_b   10.05013262
_cell_length_c   8.66060953
_cell_angle_alpha   90.00977973
_cell_angle_beta   90.00000369
_cell_angle_gamma   60.16841097
_symmetry_Int_Tables_number   1
_chemical_formula_structural   GdAl17N18
_chemical_formula_sum   'Gd2 Al34 N36'
_cell_volume   754.98603284
_cell_formula_units_Z   2
loop_
 _symmetry_equiv_pos_site_id
 _symmetry_equiv_pos_as_xyz
  1  'x, y, z'
loop_
 _atom_site_type_symbol
 _atom_site_label
 _atom_site_symmetry_multiplicity
 _atom_site_fract_x
 _atom_site_fract_y
 _atom_site_fract_z
 _atom_site_occupancy
  Al  Al0  1  0.11082761  0.09501187  0.34814221  1
  Al  Al1  1  0.22303387  0.20035281  0.09692984  1
  Al  Al2  1  0.77893708  0.09327694  0.84490970  1
  Al  Al3  1  0.89036958  0.20169730  0.59642344  1
  Al  Al4  1  0.44618897  0.09284618  0.34737617  1
  Al  Al5  1  0.56136430  0.19393857  0.09263850  1
  Al  Al6  1  0.10977311  0.09712120  0.84394396  1
  Al  Al7  1  0.22460028  0.20169728  0.59642308  1
  Al  Al8  1  0.77763161  0.09284631  0.34737662  1
  Al  Al9  1  0.89328098  0.20035223  0.09692990  1
  Al  Al10  1  0.44445304  0.09327668  0.84490989  1
  Al  Al11  1  0.55936878  0.19792955  0.59720399  1
  Al  Al12  1  0.10902538  0.42296200  0.35766252  1
  Al  Al13  1  0.78415223  0.42260601  0.83697959  1
  Al  Al14  1  0.88812384  0.54041932  0.59714117  1
  Al  Al15  1  0.44902610  0.41861423  0.36308336  1
  Al  Al16  1  0.10990909  0.42260611  0.83697899  1
  Al  Al17  1  0.21897126  0.54088290  0.60010849  1
  Al  Al18  1  0.78467976  0.42296187  0.35766272  1
  Al  Al19  1  0.89140198  0.53386331  0.09680898  1
  Al  Al20  1  0.44736445  0.42193782  0.82711571  1
  Al  Al21  1  0.55681300  0.54088265  0.60010849  1
  Al  Al22  1  0.10633568  0.77093875  0.35791028  1
  Al  Al23  1  0.21505163  0.88656289  0.09399672  1
  Al  Al24  1  0.77846271  0.75974044  0.84710223  1
  Al  Al25  1  0.88519465  0.87348713  0.59693510  1
  Al  Al26  1  0.43939124  0.77093835  0.35790993  1
  Al  Al27  1  0.55437299  0.87754477  0.09653082  1
  Al  Al28  1  0.10672883  0.76889922  0.83744291  1
  Al  Al29  1  0.21941494  0.87783671  0.59881776  1
  Al  Al30  1  0.77834995  0.75996589  0.34743073  1
  Al  Al31  1  0.88474768  0.87754508  0.09653076  1
  Al  Al32  1  0.44103807  0.76889867  0.83744269  1
  Al  Al33  1  0.55798418  0.87348731  0.59693471  1
  Gd  Gd34  1  0.21677298  0.54256900  0.10294412  1
  Gd  Gd35  1  0.55732565  0.54256822  0.10294418  1
  N  N36  1  0.22530972  0.20164443  0.36501307  1
  N  N37  1  0.10954901  0.09756952  0.11209211  1
  N  N38  1  0.88891128  0.20431531  0.86007268  1
  N  N39  1  0.77980365  0.09205330  0.61471631  1
  N  N40  1  0.55976966  0.19712743  0.37088293  1
  N  N41  1  0.44552468  0.09349172  0.11108324  1
  N  N42  1  0.22344052  0.20431564  0.86007298  1
  N  N43  1  0.10977367  0.09711989  0.61348036  1
  N  N44  1  0.88971299  0.20164443  0.36501305  1
  N  N45  1  0.77765051  0.09349191  0.11108337  1
  N  N46  1  0.55632548  0.20401606  0.85742300  1
  N  N47  1  0.44481006  0.09205331  0.61471659  1
  N  N48  1  0.21813546  0.54236760  0.37413016  1
  N  N49  1  0.10139352  0.41091736  0.11679448  1
  N  N50  1  0.88938189  0.53790376  0.85773039  1
  N  N51  1  0.78306777  0.42330002  0.60773915  1
  N  N52  1  0.55616406  0.54236713  0.37413015  1
  N  N53  1  0.46004025  0.39658616  0.12799434  1
  N  N54  1  0.22146577  0.53991323  0.83572452  1
  N  N55  1  0.11029928  0.42330000  0.60773891  1
  N  N56  1  0.88786884  0.54092927  0.36654992  1
  N  N57  1  0.80435681  0.41091687  0.11679366  1
  N  N58  1  0.55528809  0.53991295  0.83572455  1
  N  N59  1  0.44744704  0.42177274  0.60319927  1
  N  N60  1  0.21952074  0.87762425  0.37066941  1
  N  N61  1  0.09584372  0.79482654  0.11618763  1
  N  N62  1  0.88713172  0.87246024  0.86070312  1
  N  N63  1  0.77831524  0.76003537  0.61405173  1
  N  N64  1  0.55831711  0.87349871  0.36442186  1
  N  N65  1  0.42599581  0.79482566  0.11618814  1
  N  N66  1  0.22035930  0.87594770  0.85487443  1
  N  N67  1  0.10698571  0.76673650  0.60863057  1
  N  N68  1  0.88484980  0.87349884  0.36442203  1
  N  N69  1  0.77951935  0.75762710  0.11030470  1
  N  N70  1  0.55707395  0.87245989  0.86070347  1
  N  N71  1  0.44294410  0.76673627  0.60863043  1
