# generated using pymatgen
data_GdAl17N18
_symmetry_space_group_name_H-M   'P 1'
_cell_length_a   9.49323373
_cell_length_b   9.51114021
_cell_length_c   10.14332879
_cell_angle_alpha   90.08969518
_cell_angle_beta   90.00000017
_cell_angle_gamma   60.06225997
_symmetry_Int_Tables_number   1
_chemical_formula_structural   GdAl17N18
_chemical_formula_sum   'Gd2 Al34 N36'
_cell_volume   793.65052254
_cell_formula_units_Z   2
loop_
 _symmetry_equiv_pos_site_id
 _symmetry_equiv_pos_as_xyz
  1  'x, y, z'
loop_
 _atom_site_type_symbol
 _atom_site_label
 _atom_site_symmetry_multiplicity
 _atom_site_fract_x
 _atom_site_fract_y
 _atom_site_fract_z
 _atom_site_occupancy
  Al  Al0  1  0.11123396  0.09419875  0.40763029  1
  Al  Al1  1  0.22189831  0.20108205  0.15694877  1
  Al  Al2  1  0.77738190  0.09384671  0.90892551  1
  Al  Al3  1  0.89067952  0.20237454  0.65902071  1
  Al  Al4  1  0.44451515  0.09381388  0.40776490  1
  Al  Al5  1  0.55934352  0.19797963  0.15793995  1
  Al  Al6  1  0.11100182  0.09466305  0.90940662  1
  Al  Al7  1  0.22361261  0.20237455  0.65902070  1
  Al  Al8  1  0.77833763  0.09381388  0.40776490  1
  Al  Al9  1  0.89368633  0.20108205  0.15694877  1
  Al  Al10  1  0.44543806  0.09384672  0.90892550  1
  Al  Al11  1  0.55826585  0.20013497  0.65949398  1
  Al  Al12  1  0.11058715  0.42452343  0.41788360  1
  Al  Al13  1  0.78356705  0.42408262  0.90278019  1
  Al  Al14  1  0.88829613  0.54007445  0.66023931  1
  Al  Al15  1  0.44630456  0.42405756  0.42657878  1
  Al  Al16  1  0.10901703  0.42408262  0.90278018  1
  Al  Al17  1  0.21968895  0.53992868  0.65965348  1
  Al  Al18  1  0.78155612  0.42452341  0.41788361  1
  Al  Al19  1  0.89208179  0.53250310  0.15643713  1
  Al  Al20  1  0.44744261  0.42178148  0.89662356  1
  Al  Al21  1  0.55704908  0.53992867  0.65965348  1
  Al  Al22  1  0.11004739  0.76349553  0.41773642  1
  Al  Al23  1  0.21607982  0.88450704  0.15626666  1
  Al  Al24  1  0.77787288  0.76092091  0.90811622  1
  Al  Al25  1  0.88615871  0.87357790  0.65893850  1
  Al  Al26  1  0.44312377  0.76349552  0.41773642  1
  Al  Al27  1  0.55348695  0.87802232  0.15739655  1
  Al  Al28  1  0.10663920  0.76947395  0.90244145  1
  Al  Al29  1  0.22046934  0.87572802  0.65954766  1
  Al  Al30  1  0.77852974  0.75960719  0.40714390  1
  Al  Al31  1  0.88515743  0.87802233  0.15739656  1
  Al  Al32  1  0.44055354  0.76947395  0.90244145  1
  Al  Al33  1  0.55693007  0.87357790  0.65893850  1
  Gd  Gd34  1  0.21674151  0.54152924  0.15857242  1
  Gd  Gd35  1  0.55839593  0.54152926  0.15857242  1
  N  N36  1  0.22229243  0.20590196  0.34894624  1
  N  N37  1  0.10976426  0.09713816  0.09893105  1
  N  N38  1  0.89025072  0.20183093  0.84746264  1
  N  N39  1  0.77842250  0.09355382  0.59708342  1
  N  N40  1  0.55480659  0.20705348  0.35047241  1
  N  N41  1  0.44470388  0.09488903  0.09995887  1
  N  N42  1  0.22458504  0.20183095  0.84746264  1
  N  N43  1  0.11107254  0.09452158  0.59681343  1
  N  N44  1  0.88847228  0.20590195  0.34894624  1
  N  N45  1  0.77707377  0.09488903  0.09995888  1
  N  N46  1  0.55895844  0.19874981  0.84556093  1
  N  N47  1  0.44469033  0.09355383  0.59708343  1
  N  N48  1  0.22341134  0.53750975  0.38095328  1
  N  N49  1  0.10095142  0.41082621  0.08818317  1
  N  N50  1  0.88757542  0.54151585  0.84684437  1
  N  N51  1  0.78179692  0.42488971  0.60579296  1
  N  N52  1  0.55574560  0.53750974  0.38095329  1
  N  N53  1  0.45905206  0.39856257  0.07923090  1
  N  N54  1  0.21853739  0.54167068  0.85237510  1
  N  N55  1  0.10998007  0.42488972  0.60579296  1
  N  N56  1  0.89026082  0.53614505  0.34939793  1
  N  N57  1  0.80488906  0.41082621  0.08818318  1
  N  N58  1  0.55645863  0.54167069  0.85237510  1
  N  N59  1  0.44625285  0.42416100  0.61392026  1
  N  N60  1  0.22327370  0.87011930  0.34961686  1
  N  N61  1  0.09500877  0.79437989  0.08784761  1
  N  N62  1  0.88493893  0.87387208  0.84732585  1
  N  N63  1  0.77820087  0.76026493  0.59714324  1
  N  N64  1  0.55552368  0.87044113  0.34879082  1
  N  N65  1  0.42727803  0.79437990  0.08784761  1
  N  N66  1  0.22008588  0.87649494  0.84535431  1
  N  N67  1  0.10893199  0.76466044  0.60554217  1
  N  N68  1  0.89070189  0.87044112  0.34879083  1
  N  N69  1  0.77913101  0.75840468  0.10042731  1
  N  N70  1  0.55785567  0.87387209  0.84732585  1
  N  N71  1  0.44307426  0.76466043  0.60554217  1
