# generated using pymatgen
data_GdAl17N18
_symmetry_space_group_name_H-M   'P 1'
_cell_length_a   9.98216721
_cell_length_b   10.03296610
_cell_length_c   8.71057838
_cell_angle_alpha   90.00597216
_cell_angle_beta   90.00000323
_cell_angle_gamma   60.16737044
_symmetry_Int_Tables_number   1
_chemical_formula_structural   GdAl17N18
_chemical_formula_sum   'Gd2 Al34 N36'
_cell_volume   756.76631381
_cell_formula_units_Z   2
loop_
 _symmetry_equiv_pos_site_id
 _symmetry_equiv_pos_as_xyz
  1  'x, y, z'
loop_
 _atom_site_type_symbol
 _atom_site_label
 _atom_site_symmetry_multiplicity
 _atom_site_fract_x
 _atom_site_fract_y
 _atom_site_fract_z
 _atom_site_occupancy
  Al  Al0  1  0.11093164  0.09480374  0.34581923  1
  Al  Al1  1  0.22291971  0.20050033  0.09521574  1
  Al  Al2  1  0.77906470  0.09326595  0.84358045  1
  Al  Al3  1  0.89047045  0.20151029  0.59455095  1
  Al  Al4  1  0.44630787  0.09286383  0.34518781  1
  Al  Al5  1  0.56124594  0.19417514  0.09070403  1
  Al  Al6  1  0.10969492  0.09727739  0.84248979  1
  Al  Al7  1  0.22468640  0.20151027  0.59455066  1
  Al  Al8  1  0.77749508  0.09286394  0.34518819  1
  Al  Al9  1  0.89324737  0.20049990  0.09521576  1
  Al  Al10  1  0.44433632  0.09326575  0.84358063  1
  Al  Al11  1  0.55950508  0.19765675  0.59599765  1
  Al  Al12  1  0.10892387  0.42300869  0.35623049  1
  Al  Al13  1  0.78401195  0.42264161  0.83503747  1
  Al  Al14  1  0.88801365  0.54063959  0.59537706  1
  Al  Al15  1  0.44903900  0.41858857  0.36262389  1
  Al  Al16  1  0.11001356  0.42264174  0.83503696  1
  Al  Al17  1  0.21886409  0.54096227  0.59923780  1
  Al  Al18  1  0.78473450  0.42300854  0.35623060  1
  Al  Al19  1  0.89153495  0.53359726  0.09487555  1
  Al  Al20  1  0.44728444  0.42209787  0.82551745  1
  Al  Al21  1  0.55684074  0.54096201  0.59923781  1
  Al  Al22  1  0.10629334  0.77114900  0.35639605  1
  Al  Al23  1  0.21511788  0.88643049  0.09185152  1
  Al  Al24  1  0.77844780  0.75977042  0.84576892  1
  Al  Al25  1  0.88503397  0.87357416  0.59506508  1
  Al  Al26  1  0.43922366  0.77114869  0.35639584  1
  Al  Al27  1  0.55422789  0.87748588  0.09475710  1
  Al  Al28  1  0.10679959  0.76857835  0.83556913  1
  Al  Al29  1  0.21934710  0.87797223  0.59740297  1
  Al  Al30  1  0.77833519  0.75999565  0.34516491  1
  Al  Al31  1  0.88495194  0.87748615  0.09475703  1
  Al  Al32  1  0.44128832  0.76857795  0.83556891  1
  Al  Al33  1  0.55805801  0.87357419  0.59506477  1
  Gd  Gd34  1  0.21691367  0.54245251  0.10252521  1
  Gd  Gd35  1  0.55730122  0.54245194  0.10252524  1
  N  N36  1  0.22545817  0.20136348  0.36660917  1
  N  N37  1  0.10959739  0.09747252  0.11362468  1
  N  N38  1  0.88877748  0.20460930  0.86204719  1
  N  N39  1  0.77986231  0.09203562  0.61670586  1
  N  N40  1  0.55990882  0.19684913  0.37255645  1
  N  N41  1  0.44557377  0.09352140  0.11251710  1
  N  N42  1  0.22328021  0.20460961  0.86204743  1
  N  N43  1  0.10974759  0.09717196  0.61557275  1
  N  N44  1  0.88984544  0.20136349  0.36660919  1
  N  N45  1  0.77757165  0.09352158  0.11251723  1
  N  N46  1  0.55616645  0.20433405  0.85887026  1
  N  N47  1  0.44476903  0.09203553  0.61670612  1
  N  N48  1  0.21800501  0.54250685  0.37416181  1
  N  N49  1  0.10131329  0.41085115  0.11958723  1
  N  N50  1  0.88954353  0.53758027  0.85955973  1
  N  N51  1  0.78306205  0.42328501  0.60857586  1
  N  N52  1  0.55615527  0.54250645  0.37416180  1
  N  N53  1  0.46020264  0.39626139  0.13051171  1
  N  N54  1  0.22156371  0.53981181  0.83618596  1
  N  N55  1  0.11031990  0.42328503  0.60857562  1
  N  N56  1  0.88768366  0.54129954  0.36836709  1
  N  N57  1  0.80450301  0.41085078  0.11958654  1
  N  N58  1  0.55529149  0.53981157  0.83618599  1
  N  N59  1  0.44739674  0.42187327  0.60341843  1
  N  N60  1  0.21940857  0.87784887  0.37259932  1
  N  N61  1  0.09581891  0.79503251  0.11897059  1
  N  N62  1  0.88745672  0.87232679  0.86265998  1
  N  N63  1  0.77827284  0.76012031  0.61632008  1
  N  N64  1  0.55847389  0.87361318  0.36611433  1
  N  N65  1  0.42581475  0.79503187  0.11897100  1
  N  N66  1  0.22051076  0.87564488  0.85660744  1
  N  N67  1  0.10693968  0.76672011  0.60958730  1
  N  N68  1  0.88457886  0.87361327  0.36611447  1
  N  N69  1  0.77954560  0.75757478  0.11166516  1
  N  N70  1  0.55688257  0.87232651  0.86266026  1
  N  N71  1  0.44300650  0.76671989  0.60958716  1
