# generated using pymatgen
data_GdAl17N18
_symmetry_space_group_name_H-M   'P 1'
_cell_length_a   9.49323505
_cell_length_b   9.51114663
_cell_length_c   10.14332924
_cell_angle_alpha   90.08966768
_cell_angle_beta   90.00000025
_cell_angle_gamma   60.06227792
_symmetry_Int_Tables_number   1
_chemical_formula_structural   GdAl17N18
_chemical_formula_sum   'Gd2 Al34 N36'
_cell_volume   793.65134838
_cell_formula_units_Z   2
loop_
 _symmetry_equiv_pos_site_id
 _symmetry_equiv_pos_as_xyz
  1  'x, y, z'
loop_
 _atom_site_type_symbol
 _atom_site_label
 _atom_site_symmetry_multiplicity
 _atom_site_fract_x
 _atom_site_fract_y
 _atom_site_fract_z
 _atom_site_occupancy
  Al  Al0  1  0.11120481  0.09425704  0.38579337  1
  Al  Al1  1  0.22186968  0.20113933  0.13511159  1
  Al  Al2  1  0.77735322  0.09390414  0.88708689  1
  Al  Al3  1  0.89065032  0.20243270  0.63718240  1
  Al  Al4  1  0.44448635  0.09387161  0.38592756  1
  Al  Al5  1  0.55931519  0.19803627  0.13610221  1
  Al  Al6  1  0.11097304  0.09472060  0.88756803  1
  Al  Al7  1  0.22358364  0.20243271  0.63718239  1
  Al  Al8  1  0.77830869  0.09387161  0.38592756  1
  Al  Al9  1  0.89365766  0.20113933  0.13511159  1
  Al  Al10  1  0.44540931  0.09390415  0.88708689  1
  Al  Al11  1  0.55823681  0.20019303  0.63765560  1
  Al  Al12  1  0.11055845  0.42458137  0.39604554  1
  Al  Al13  1  0.78353846  0.42414011  0.88094289  1
  Al  Al14  1  0.88826741  0.54013188  0.63840097  1
  Al  Al15  1  0.44627558  0.42411552  0.40474120  1
  Al  Al16  1  0.10898813  0.42414012  0.88094289  1
  Al  Al17  1  0.21966023  0.53998646  0.63781627  1
  Al  Al18  1  0.78152687  0.42458135  0.39604555  1
  Al  Al19  1  0.89205303  0.53256062  0.13460100  1
  Al  Al20  1  0.44741401  0.42183866  0.87478786  1
  Al  Al21  1  0.55702001  0.53998646  0.63781627  1
  Al  Al22  1  0.11001835  0.76355338  0.39589804  1
  Al  Al23  1  0.21605081  0.88456506  0.13443005  1
  Al  Al24  1  0.77784428  0.76097810  0.88627800  1
  Al  Al25  1  0.88613013  0.87363551  0.63710023  1
  Al  Al26  1  0.44309495  0.76355337  0.39589804  1
  Al  Al27  1  0.55345834  0.87807971  0.13555889  1
  Al  Al28  1  0.10661052  0.76953180  0.88060361  1
  Al  Al29  1  0.22044050  0.87578570  0.63770866  1
  Al  Al30  1  0.77850073  0.75966521  0.38530741  1
  Al  Al31  1  0.88512864  0.87807972  0.13555890  1
  Al  Al32  1  0.44052436  0.76953180  0.88060361  1
  Al  Al33  1  0.55690104  0.87363551  0.63710023  1
  Gd  Gd34  1  0.21671268  0.54158690  0.13673510  1
  Gd  Gd35  1  0.55836710  0.54158691  0.13673510  1
  N  N36  1  0.22226357  0.20595978  0.32710931  1
  N  N37  1  0.10973547  0.09719573  0.07709349  1
  N  N38  1  0.89022172  0.20188883  0.82562486  1
  N  N39  1  0.77839369  0.09361150  0.57524613  1
  N  N40  1  0.55477778  0.20711109  0.32863555  1
  N  N41  1  0.44467516  0.09494624  0.07812129  1
  N  N42  1  0.22455612  0.20188885  0.82562486  1
  N  N43  1  0.11104346  0.09457973  0.57497622  1
  N  N44  1  0.88844332  0.20595976  0.32710931  1
  N  N45  1  0.77704527  0.09494623  0.07812130  1
  N  N46  1  0.55892950  0.19880767  0.82372305  1
  N  N47  1  0.44466146  0.09361151  0.57524613  1
  N  N48  1  0.22338242  0.53756780  0.35911586  1
  N  N49  1  0.10092255  0.41088368  0.06634659  1
  N  N50  1  0.88754678  0.54157313  0.82500671  1
  N  N51  1  0.78176763  0.42494770  0.58395529  1
  N  N52  1  0.55571647  0.53756778  0.35911586  1
  N  N53  1  0.45902359  0.39861951  0.05739491  1
  N  N54  1  0.21850881  0.54172821  0.83053868  1
  N  N55  1  0.10995136  0.42494771  0.58395528  1
  N  N56  1  0.89023177  0.53620315  0.32756155  1
  N  N57  1  0.80486045  0.41088368  0.06634660  1
  N  N58  1  0.55642968  0.54172822  0.83053868  1
  N  N59  1  0.44622385  0.42421899  0.59208285  1
  N  N60  1  0.22324444  0.87017781  0.32778018  1
  N  N61  1  0.09498018  0.79443759  0.06601050  1
  N  N62  1  0.88491029  0.87392950  0.82548809  1
  N  N63  1  0.77817199  0.76032269  0.57530638  1
  N  N64  1  0.55549493  0.87049904  0.32695365  1
  N  N65  1  0.42724892  0.79443759  0.06601050  1
  N  N66  1  0.22005700  0.87655268  0.82351578  1
  N  N67  1  0.10890320  0.76471795  0.58370429  1
  N  N68  1  0.89067271  0.87049903  0.32695366  1
  N  N69  1  0.77910244  0.75846180  0.07859016  1
  N  N70  1  0.55782688  0.87392951  0.82548809  1
  N  N71  1  0.44304553  0.76471795  0.58370429  1
