# generated using pymatgen
data_GdAl17N18
_symmetry_space_group_name_H-M   'P 1'
_cell_length_a   9.92570247
_cell_length_b   9.97488160
_cell_length_c   8.88061379
_cell_angle_alpha   89.99478197
_cell_angle_beta   90.00000220
_cell_angle_gamma   60.16297966
_symmetry_Int_Tables_number   1
_chemical_formula_structural   GdAl17N18
_chemical_formula_sum   'Gd2 Al34 N36'
_cell_volume   762.69958928
_cell_formula_units_Z   2
loop_
 _symmetry_equiv_pos_site_id
 _symmetry_equiv_pos_as_xyz
  1  'x, y, z'
loop_
 _atom_site_type_symbol
 _atom_site_label
 _atom_site_symmetry_multiplicity
 _atom_site_fract_x
 _atom_site_fract_y
 _atom_site_fract_z
 _atom_site_occupancy
  Al  Al0  1  0.11115375  0.09435940  0.33963694  1
  Al  Al1  1  0.22258279  0.20093260  0.09072147  1
  Al  Al2  1  0.77934496  0.09324813  0.84007174  1
  Al  Al3  1  0.89078052  0.20100897  0.58955114  1
  Al  Al4  1  0.44658193  0.09290133  0.33938029  1
  Al  Al5  1  0.56088596  0.19489496  0.08596890  1
  Al  Al6  1  0.10957658  0.09751385  0.83894142  1
  Al  Al7  1  0.22487753  0.20100892  0.58955098  1
  Al  Al8  1  0.77718351  0.09290139  0.33938053  1
  Al  Al9  1  0.89315170  0.20093233  0.09072142  1
  Al  Al10  1  0.44407375  0.09324799  0.84007194  1
  Al  Al11  1  0.55986141  0.19694396  0.59237416  1
  Al  Al12  1  0.10865145  0.42312061  0.35204931  1
  Al  Al13  1  0.78365384  0.42276352  0.82992481  1
  Al  Al14  1  0.88771454  0.54123765  0.59054931  1
  Al  Al15  1  0.44903221  0.41860223  0.36092511  1
  Al  Al16  1  0.11024953  0.42276361  0.82992449  1
  Al  Al17  1  0.21857446  0.54116405  0.59636055  1
  Al  Al18  1  0.78489487  0.42312048  0.35204920  1
  Al  Al19  1  0.89195580  0.53275538  0.08985303  1
  Al  Al20  1  0.44707586  0.42251499  0.82116044  1
  Al  Al21  1  0.55692848  0.54116382  0.59636057  1
  Al  Al22  1  0.10610598  0.77169012  0.35194767  1
  Al  Al23  1  0.21532592  0.88601457  0.08686804  1
  Al  Al24  1  0.77841262  0.75984103  0.84227953  1
  Al  Al25  1  0.88461723  0.87378876  0.59003471  1
  Al  Al26  1  0.43887022  0.77168992  0.35194769  1
  Al  Al27  1  0.55377199  0.87734657  0.09014472  1
  Al  Al28  1  0.10704195  0.76777475  0.83060125  1
  Al  Al29  1  0.21917449  0.87831746  0.59325782  1
  Al  Al30  1  0.77828558  0.76009519  0.33908601  1
  Al  Al31  1  0.88554754  0.87734675  0.09014463  1
  Al  Al32  1  0.44184971  0.76777454  0.83060109  1
  Al  Al33  1  0.55826039  0.87378873  0.59003454  1
  Gd  Gd34  1  0.21727143  0.54212420  0.10085438  1
  Gd  Gd35  1  0.55727143  0.54212393  0.10085440  1
  N  N36  1  0.22579580  0.20067538  0.37081281  1
  N  N37  1  0.10971636  0.09723428  0.11758755  1
  N  N38  1  0.88842721  0.20536108  0.86736121  1
  N  N39  1  0.78000666  0.09199806  0.62193259  1
  N  N40  1  0.56028527  0.19609621  0.37685276  1
  N  N41  1  0.44567180  0.09361053  0.11642023  1
  N  N42  1  0.22287856  0.20536130  0.86736134  1
  N  N43  1  0.10972170  0.09722356  0.62109868  1
  N  N44  1  0.89019580  0.20067539  0.37081288  1
  N  N45  1  0.77738440  0.09361065  0.11642039  1
  N  N46  1  0.55575141  0.20516403  0.86305095  1
  N  N47  1  0.44466213  0.09199794  0.62193278  1
  N  N48  1  0.21764044  0.54286443  0.37433410  1
  N  N49  1  0.10104249  0.41059511  0.12680207  1
  N  N50  1  0.88993821  0.53679064  0.86466310  1
  N  N51  1  0.78306754  0.42326728  0.61127285  1
  N  N52  1  0.55616217  0.54286416  0.37433410  1
  N  N53  1  0.46065885  0.39534898  0.13738087  1
  N  N54  1  0.22183976  0.53953957  0.83805919  1
  N  N55  1  0.11033200  0.42326731  0.61127260  1
  N  N56  1  0.88721711  0.54223253  0.37305711  1
  N  N57  1  0.80502950  0.41059489  0.12680168  1
  N  N58  1  0.55528755  0.53953944  0.83805921  1
  N  N59  1  0.44725473  0.42215723  0.60436925  1
  N  N60  1  0.21911639  0.87843355  0.37732070  1
  N  N61  1  0.09565301  0.79570304  0.12627461  1
  N  N62  1  0.88833494  0.87194910  0.86792266  1
  N  N63  1  0.77816535  0.76033557  0.62222416  1
  N  N64  1  0.55887017  0.87389899  0.37057788  1
  N  N65  1  0.42531028  0.79570270  0.12627484  1
  N  N66  1  0.22094566  0.87477521  0.86160073  1
  N  N67  1  0.10684734  0.76670550  0.61252997  1
  N  N68  1  0.88389714  0.87389904  0.37057800  1
  N  N69  1  0.77961857  0.75742911  0.11542613  1
  N  N70  1  0.55638231  0.87194891  0.86792282  1
  N  N71  1  0.44311356  0.76670534  0.61252982  1
