# generated using pymatgen
data_GdAl17N18
_symmetry_space_group_name_H-M   'P 1'
_cell_length_a   9.53720036
_cell_length_b   9.56420298
_cell_length_c   10.01777542
_cell_angle_alpha   90.06858027
_cell_angle_beta   90.00000169
_cell_angle_gamma   60.09335789
_symmetry_Int_Tables_number   1
_chemical_formula_structural   GdAl17N18
_chemical_formula_sum   'Gd2 Al34 N36'
_cell_volume   792.09813041
_cell_formula_units_Z   2
loop_
 _symmetry_equiv_pos_site_id
 _symmetry_equiv_pos_as_xyz
  1  'x, y, z'
loop_
 _atom_site_type_symbol
 _atom_site_label
 _atom_site_symmetry_multiplicity
 _atom_site_fract_x
 _atom_site_fract_y
 _atom_site_fract_z
 _atom_site_occupancy
  Al  Al0  1  0.11085013  0.09496640  0.38244548  1
  Al  Al1  1  0.22205246  0.20100215  0.13188564  1
  Al  Al2  1  0.77727236  0.09362879  0.88380090  1
  Al  Al3  1  0.89053793  0.20234981  0.63352387  1
  Al  Al4  1  0.44439713  0.09377386  0.38234495  1
  Al  Al5  1  0.55972092  0.19722482  0.13328873  1
  Al  Al6  1  0.11096149  0.09474371  0.88432024  1
  Al  Al7  1  0.22377890  0.20234985  0.63352387  1
  Al  Al8  1  0.77849563  0.09377387  0.38234493  1
  Al  Al9  1  0.89361213  0.20100212  0.13188562  1
  Al  Al10  1  0.44576550  0.09362880  0.88380089  1
  Al  Al11  1  0.55852846  0.19960973  0.63308629  1
  Al  Al12  1  0.11089901  0.42480006  0.39180405  1
  Al  Al13  1  0.78438082  0.42361545  0.87691291  1
  Al  Al14  1  0.88819968  0.54026738  0.63416203  1
  Al  Al15  1  0.44600800  0.42465064  0.40006927  1
  Al  Al16  1  0.10867045  0.42361549  0.87691296  1
  Al  Al17  1  0.21933797  0.54040038  0.63410126  1
  Al  Al18  1  0.78096762  0.42480003  0.39180408  1
  Al  Al19  1  0.89226696  0.53213282  0.13178891  1
  Al  Al20  1  0.44807674  0.42051324  0.86934694  1
  Al  Al21  1  0.55692836  0.54040036  0.63410125  1
  Al  Al22  1  0.10993533  0.76356971  0.39149808  1
  Al  Al23  1  0.21570097  0.88526472  0.13175686  1
  Al  Al24  1  0.77798687  0.76069288  0.88304032  1
  Al  Al25  1  0.88597294  0.87357954  0.63334339  1
  Al  Al26  1  0.44316161  0.76356968  0.39149805  1
  Al  Al27  1  0.55346855  0.87788003  0.13225393  1
  Al  Al28  1  0.10606768  0.77081464  0.87656067  1
  Al  Al29  1  0.22023965  0.87618740  0.63321443  1
  Al  Al30  1  0.77848166  0.75970330  0.38154410  1
  Al  Al31  1  0.88531806  0.87788005  0.13225394  1
  Al  Al32  1  0.43978434  0.77081461  0.87656069  1
  Al  Al33  1  0.55711416  0.87357952  0.63334340  1
  Gd  Gd34  1  0.21727202  0.54152908  0.12881148  1
  Gd  Gd35  1  0.55786578  0.54152899  0.12881148  1
  N  N36  1  0.22228920  0.20609296  0.32547459  1
  N  N37  1  0.10964416  0.09737841  0.07564641  1
  N  N38  1  0.89021279  0.20161271  0.82376775  1
  N  N39  1  0.77876098  0.09325883  0.57317936  1
  N  N40  1  0.55483581  0.20699502  0.32739539  1
  N  N41  1  0.44499360  0.09449341  0.07663006  1
  N  N42  1  0.22484118  0.20161277  0.82376776  1
  N  N43  1  0.11078565  0.09509535  0.57313088  1
  N  N44  1  0.88828453  0.20609294  0.32547459  1
  N  N45  1  0.77717964  0.09449342  0.07663008  1
  N  N46  1  0.55943786  0.19779097  0.82085146  1
  N  N47  1  0.44464682  0.09325882  0.57317938  1
  N  N48  1  0.22329019  0.53799493  0.35458350  1
  N  N49  1  0.10066394  0.41019830  0.06457900  1
  N  N50  1  0.88749768  0.54167140  0.82268749  1
  N  N51  1  0.78141386  0.42497093  0.58191536  1
  N  N52  1  0.55538159  0.53799489  0.35458351  1
  N  N53  1  0.46029868  0.39606939  0.05416708  1
  N  N54  1  0.21811979  0.54217468  0.82941553  1
  N  N55  1  0.11028190  0.42497095  0.58191533  1
  N  N56  1  0.89019189  0.53628290  0.32618701  1
  N  N57  1  0.80580460  0.41019822  0.06457894  1
  N  N58  1  0.55637230  0.54217466  0.82941553  1
  N  N59  1  0.44611848  0.42442970  0.59018289  1
  N  N60  1  0.22275309  0.87116048  0.32658307  1
  N  N61  1  0.09457013  0.79592618  0.06410987  1
  N  N62  1  0.88458037  0.87398283  0.82354611  1
  N  N63  1  0.77817946  0.76030769  0.57317735  1
  N  N64  1  0.55556076  0.87075096  0.32520833  1
  N  N65  1  0.42617034  0.79592610  0.06410990  1
  N  N66  1  0.21969368  0.87727934  0.82086499  1
  N  N67  1  0.10883191  0.76462113  0.58147445  1
  N  N68  1  0.89035493  0.87075096  0.32520834  1
  N  N69  1  0.77937697  0.75791267  0.07703138  1
  N  N70  1  0.55810344  0.87398282  0.82354612  1
  N  N71  1  0.44321360  0.76462110  0.58147443  1
