# generated using pymatgen
data_GdAl17N18
_symmetry_space_group_name_H-M   'P 1'
_cell_length_a   9.74143046
_cell_length_b   9.78328317
_cell_length_c   9.43153167
_cell_angle_alpha   89.96817344
_cell_angle_beta   90.00000106
_cell_angle_gamma   60.14142822
_symmetry_Int_Tables_number   1
_chemical_formula_structural   GdAl17N18
_chemical_formula_sum   'Gd2 Al34 N36'
_cell_volume   779.53799903
_cell_formula_units_Z   2
loop_
 _symmetry_equiv_pos_site_id
 _symmetry_equiv_pos_as_xyz
  1  'x, y, z'
loop_
 _atom_site_type_symbol
 _atom_site_label
 _atom_site_symmetry_multiplicity
 _atom_site_fract_x
 _atom_site_fract_y
 _atom_site_fract_z
 _atom_site_occupancy
  Al  Al0  1  0.11120154  0.09426367  0.32906290  1
  Al  Al1  1  0.22209340  0.20133273  0.08208415  1
  Al  Al2  1  0.77923308  0.09343824  0.83236410  1
  Al  Al3  1  0.89103035  0.20096501  0.58037698  1
  Al  Al4  1  0.44661258  0.09305677  0.32938584  1
  Al  Al5  1  0.56009152  0.19648371  0.07874396  1
  Al  Al6  1  0.10997463  0.09671753  0.83177111  1
  Al  Al7  1  0.22467147  0.20096496  0.58037695  1
  Al  Al8  1  0.77699736  0.09305679  0.32938592  1
  Al  Al9  1  0.89324068  0.20133262  0.08208412  1
  Al  Al10  1  0.44399542  0.09343818  0.83236420  1
  Al  Al11  1  0.55996567  0.19673536  0.58296934  1
  Al  Al12  1  0.10831918  0.42317314  0.34085983  1
  Al  Al13  1  0.78223635  0.42372698  0.82147679  1
  Al  Al14  1  0.88760583  0.54145501  0.58082959  1
  Al  Al15  1  0.44886143  0.41894381  0.35235116  1
  Al  Al16  1  0.11070339  0.42372702  0.82147666  1
  Al  Al17  1  0.21819872  0.54133174  0.58539748  1
  Al  Al18  1  0.78517445  0.42317309  0.34085969  1
  Al  Al19  1  0.89257324  0.53152031  0.08128707  1
  Al  Al20  1  0.44644085  0.42378501  0.81287022  1
  Al  Al21  1  0.55713637  0.54133161  0.58539748  1
  Al  Al22  1  0.10554393  0.77230996  0.34065159  1
  Al  Al23  1  0.21558671  0.88549317  0.07987260  1
  Al  Al24  1  0.77844869  0.75976916  0.83410431  1
  Al  Al25  1  0.88466818  0.87391187  0.58074844  1
  Al  Al26  1  0.43881268  0.77230988  0.34065169  1
  Al  Al27  1  0.55317618  0.87738152  0.08158019  1
  Al  Al28  1  0.10839098  0.76563174  0.82217960  1
  Al  Al29  1  0.21931643  0.87803371  0.58304788  1
  Al  Al30  1  0.77811272  0.76044114  0.32938952  1
  Al  Al31  1  0.88610875  0.87738160  0.08158014  1
  Al  Al32  1  0.44264386  0.76563168  0.82217953  1
  Al  Al33  1  0.55808655  0.87391185  0.58074840  1
  Gd  Gd34  1  0.21796196  0.54141054  0.09279730  1
  Gd  Gd35  1  0.55729430  0.54141048  0.09279731  1
  N  N36  1  0.22580359  0.20034014  0.37935310  1
  N  N37  1  0.10975645  0.09715387  0.12625302  1
  N  N38  1  0.88803365  0.20630407  0.87743958  1
  N  N39  1  0.77977081  0.09231610  0.63114240  1
  N  N40  1  0.56066615  0.19533441  0.38444031  1
  N  N41  1  0.44552921  0.09392043  0.12527828  1
  N  N42  1  0.22232901  0.20630417  0.87743960  1
  N  N43  1  0.11009563  0.09647549  0.63082246  1
  N  N44  1  0.89052308  0.20034015  0.37935312  1
  N  N45  1  0.77721703  0.09392046  0.12527836  1
  N  N46  1  0.55499266  0.20668145  0.87353771  1
  N  N47  1  0.44457983  0.09231604  0.63114248  1
  N  N48  1  0.21710860  0.54321127  0.37594338  1
  N  N49  1  0.10053410  0.40987825  0.13876159  1
  N  N50  1  0.89033142  0.53600397  0.87553057  1
  N  N51  1  0.78260588  0.42380914  0.61979592  1
  N  N52  1  0.55634698  0.54321117  0.37594338  1
  N  N53  1  0.46138276  0.39390116  0.15094570  1
  N  N54  1  0.22265868  0.53883374  0.84708246  1
  N  N55  1  0.11025170  0.42380916  0.61979578  1
  N  N56  1  0.88690305  0.54286059  0.38140653  1
  N  N57  1  0.80625446  0.40987817  0.13876145  1
  N  N58  1  0.55517433  0.53883370  0.84708248  1
  N  N59  1  0.44676507  0.42313652  0.61009676  1
  N  N60  1  0.21896372  0.87873911  0.38460198  1
  N  N61  1  0.09486268  0.79691940  0.13876184  1
  N  N62  1  0.88976157  0.87122097  0.87786018  1
  N  N63  1  0.77809324  0.76048006  0.63165937  1
  N  N64  1  0.55899519  0.87421212  0.37949648  1
  N  N65  1  0.42488443  0.79691929  0.13876194  1
  N  N66  1  0.22187389  0.87291886  0.87374727  1
  N  N67  1  0.10738871  0.76621063  0.62095160  1
  N  N68  1  0.88345927  0.87421213  0.37949652  1
  N  N69  1  0.77965650  0.75735350  0.12453727  1
  N  N70  1  0.55568403  0.87122089  0.87786023  1
  N  N71  1  0.44306724  0.76621056  0.62095151  1
