# generated using pymatgen
data_GdAl17N18
_symmetry_space_group_name_H-M   'P 1'
_cell_length_a   9.49323410
_cell_length_b   9.51114243
_cell_length_c   10.14334001
_cell_angle_alpha   90.08970721
_cell_angle_beta   90.00000023
_cell_angle_gamma   60.06226650
_symmetry_Int_Tables_number   1
_chemical_formula_structural   GdAl17N18
_chemical_formula_sum   'Gd2 Al34 N36'
_cell_volume   793.65166791
_cell_formula_units_Z   2
loop_
 _symmetry_equiv_pos_site_id
 _symmetry_equiv_pos_as_xyz
  1  'x, y, z'
loop_
 _atom_site_type_symbol
 _atom_site_label
 _atom_site_symmetry_multiplicity
 _atom_site_fract_x
 _atom_site_fract_y
 _atom_site_fract_z
 _atom_site_occupancy
  Al  Al0  1  0.11120741  0.09425184  0.38758792  1
  Al  Al1  1  0.22187213  0.20113468  0.13690754  1
  Al  Al2  1  0.77735563  0.09389934  0.88888379  1
  Al  Al3  1  0.89065312  0.20242741  0.63897917  1
  Al  Al4  1  0.44448882  0.09386673  0.38772251  1
  Al  Al5  1  0.55931727  0.19803211  0.13789963  1
  Al  Al6  1  0.11097552  0.09471565  0.88936530  1
  Al  Al7  1  0.22358613  0.20242742  0.63897916  1
  Al  Al8  1  0.77831109  0.09386673  0.38772251  1
  Al  Al9  1  0.89365986  0.20113468  0.13690754  1
  Al  Al10  1  0.44541170  0.09389935  0.88888379  1
  Al  Al11  1  0.55823925  0.20018816  0.63945344  1
  Al  Al12  1  0.11056066  0.42457638  0.39784540  1
  Al  Al13  1  0.78354060  0.42413530  0.88274250  1
  Al  Al14  1  0.88826973  0.54012724  0.64020036  1
  Al  Al15  1  0.44627804  0.42411059  0.40654338  1
  Al  Al16  1  0.10899079  0.42413531  0.88274250  1
  Al  Al17  1  0.21966266  0.53998152  0.63961774  1
  Al  Al18  1  0.78152965  0.42457636  0.39784541  1
  Al  Al19  1  0.89205538  0.53255592  0.13639736  1
  Al  Al20  1  0.44741615  0.42183438  0.87659053  1
  Al  Al21  1  0.55702252  0.53998152  0.63961774  1
  Al  Al22  1  0.11002090  0.76354840  0.39769748  1
  Al  Al23  1  0.21605343  0.88455982  0.13622626  1
  Al  Al24  1  0.77784643  0.76097381  0.88807408  1
  Al  Al25  1  0.88613212  0.87363104  0.63889638  1
  Al  Al26  1  0.44309739  0.76354839  0.39769747  1
  Al  Al27  1  0.55346081  0.87807506  0.13735438  1
  Al  Al28  1  0.10661288  0.76952684  0.88240238  1
  Al  Al29  1  0.22044268  0.87578134  0.63950636  1
  Al  Al30  1  0.77850335  0.75965996  0.38710250  1
  Al  Al31  1  0.88513083  0.87807506  0.13735439  1
  Al  Al32  1  0.44052696  0.76952684  0.88240238  1
  Al  Al33  1  0.55690351  0.87363104  0.63889638  1
  Gd  Gd34  1  0.21671374  0.54158303  0.13853714  1
  Gd  Gd35  1  0.55836991  0.54158304  0.13853714  1
  N  N36  1  0.22226582  0.20595539  0.32890568  1
  N  N37  1  0.10973794  0.09719079  0.07889068  1
  N  N38  1  0.89022421  0.20188404  0.82742227  1
  N  N39  1  0.77839580  0.09360698  0.57704208  1
  N  N40  1  0.55477986  0.20710693  0.33043291  1
  N  N41  1  0.44467759  0.09494188  0.07991824  1
  N  N42  1  0.22455843  0.20188406  0.82742227  1
  N  N43  1  0.11104599  0.09457468  0.57677183  1
  N  N44  1  0.88844547  0.20595538  0.32890568  1
  N  N45  1  0.77704721  0.09494187  0.07991824  1
  N  N46  1  0.55893142  0.19880384  0.82552175  1
  N  N47  1  0.44466387  0.09360699  0.57704208  1
  N  N48  1  0.22338520  0.53756244  0.36091731  1
  N  N49  1  0.10092530  0.41087928  0.06814511  1
  N  N50  1  0.88754924  0.54156822  0.82680583  1
  N  N51  1  0.78177009  0.42494299  0.58575495  1
  N  N52  1  0.55571904  0.53756243  0.36091731  1
  N  N53  1  0.45902477  0.39861715  0.05919688  1
  N  N54  1  0.21851146  0.54172323  0.83233923  1
  N  N55  1  0.10995360  0.42494300  0.58575495  1
  N  N56  1  0.89023450  0.53619768  0.32935870  1
  N  N57  1  0.80486210  0.41087928  0.06814512  1
  N  N58  1  0.55643201  0.54172324  0.83233924  1
  N  N59  1  0.44622613  0.42421444  0.59388417  1
  N  N60  1  0.22324751  0.87017168  0.32957712  1
  N  N61  1  0.09498279  0.79443223  0.06780848  1
  N  N62  1  0.88491279  0.87392479  0.82728482  1
  N  N63  1  0.77817461  0.76031745  0.57710254  1
  N  N64  1  0.55549726  0.87049352  0.32874979  1
  N  N65  1  0.42725166  0.79443224  0.06780847  1
  N  N66  1  0.22005954  0.87654760  0.82531386  1
  N  N67  1  0.10890576  0.76471298  0.58550342  1
  N  N68  1  0.89067591  0.87049351  0.32874979  1
  N  N69  1  0.77910474  0.75845720  0.08038652  1
  N  N70  1  0.55782908  0.87392480  0.82728482  1
  N  N71  1  0.44304794  0.76471298  0.58550341  1
