# generated using pymatgen
data_GdAl17N18
_symmetry_space_group_name_H-M   'P 1'
_cell_length_a   9.74112904
_cell_length_b   9.78315885
_cell_length_c   9.43211198
_cell_angle_alpha   90.03810707
_cell_angle_beta   90.00000214
_cell_angle_gamma   60.14203064
_symmetry_Int_Tables_number   1
_chemical_formula_structural   GdAl17N18
_chemical_formula_sum   'Gd2 Al34 N36'
_cell_volume   779.55657076
_cell_formula_units_Z   2
loop_
 _symmetry_equiv_pos_site_id
 _symmetry_equiv_pos_as_xyz
  1  'x, y, z'
loop_
 _atom_site_type_symbol
 _atom_site_label
 _atom_site_symmetry_multiplicity
 _atom_site_fract_x
 _atom_site_fract_y
 _atom_site_fract_z
 _atom_site_occupancy
  Al  Al0  1  0.10998344  0.09669985  0.37718948  1
  Al  Al1  1  0.22215344  0.20134827  0.12702870  1
  Al  Al2  1  0.77697459  0.09308600  0.87964143  1
  Al  Al3  1  0.89109486  0.20092006  0.62871652  1
  Al  Al4  1  0.44403149  0.09338390  0.37684956  1
  Al  Al5  1  0.56009710  0.19647244  0.13041775  1
  Al  Al6  1  0.11119808  0.09427062  0.88017435  1
  Al  Al7  1  0.22465176  0.20092018  0.62871652  1
  Al  Al8  1  0.77925123  0.09338398  0.37684945  1
  Al  Al9  1  0.89316518  0.20134821  0.12702866  1
  Al  Al10  1  0.44660610  0.09308598  0.87964134  1
  Al  Al11  1  0.55989127  0.19688420  0.62615039  1
  Al  Al12  1  0.11073425  0.42369621  0.38766030  1
  Al  Al13  1  0.78518506  0.42315001  0.86817794  1
  Al  Al14  1  0.88759867  0.54146949  0.62824630  1
  Al  Al15  1  0.44645493  0.42375680  0.39599453  1
  Al  Al16  1  0.10833169  0.42315010  0.86817815  1
  Al  Al17  1  0.21832337  0.54124466  0.62370180  1
  Al  Al18  1  0.78223630  0.42369615  0.38766046  1
  Al  Al19  1  0.89262337  0.53142005  0.12780874  1
  Al  Al20  1  0.44883429  0.41899809  0.85712330  1
  Al  Al21  1  0.55709869  0.54124461  0.62370180  1
  Al  Al22  1  0.10839390  0.76559749  0.38700544  1
  Al  Al23  1  0.21559379  0.88547894  0.12923449  1
  Al  Al24  1  0.77812767  0.76041121  0.87980524  1
  Al  Al25  1  0.88463258  0.87386705  0.62837508  1
  Al  Al26  1  0.44267516  0.76559741  0.38700529  1
  Al  Al27  1  0.55311170  0.87745552  0.12747567  1
  Al  Al28  1  0.10553565  0.77235085  0.86833157  1
  Al  Al29  1  0.21929051  0.87808569  0.62601849  1
  Al  Al30  1  0.77846534  0.75973581  0.37486818  1
  Al  Al31  1  0.88609926  0.87745557  0.12747569  1
  Al  Al32  1  0.43878009  0.77235070  0.86833176  1
  Al  Al33  1  0.55816692  0.87386693  0.62837513  1
  Gd  Gd34  1  0.21775299  0.54159033  0.11630829  1
  Gd  Gd35  1  0.55732386  0.54158997  0.11630829  1
  N  N36  1  0.22239795  0.20628650  0.33166148  1
  N  N37  1  0.10974387  0.09717910  0.08299011  1
  N  N38  1  0.89058293  0.20030516  0.82972423  1
  N  N39  1  0.77976501  0.09229168  0.57805309  1
  N  N40  1  0.55506392  0.20653881  0.33559116  1
  N  N41  1  0.44554099  0.09395548  0.08372346  1
  N  N42  1  0.22577860  0.20030532  0.82972426  1
  N  N43  1  0.11010159  0.09646356  0.57812557  1
  N  N44  1  0.88798232  0.20628651  0.33166146  1
  N  N45  1  0.77717014  0.09395556  0.08372356  1
  N  N46  1  0.56056967  0.19552742  0.82470317  1
  N  N47  1  0.44461002  0.09229161  0.57805319  1
  N  N48  1  0.22260546  0.53884438  0.36196445  1
  N  N49  1  0.10055597  0.40984028  0.07025710  1
  N  N50  1  0.88689302  0.54288084  0.82766028  1
  N  N51  1  0.78260138  0.42378436  0.58933628  1
  N  N52  1  0.55521700  0.53884423  0.36196445  1
  N  N53  1  0.46130842  0.39404986  0.05854012  1
  N  N54  1  0.21719507  0.54316849  0.83317469  1
  N  N55  1  0.11028096  0.42378441  0.58933611  1
  N  N56  1  0.89037483  0.53591701  0.33355253  1
  N  N57  1  0.80627083  0.40984008  0.07025684  1
  N  N58  1  0.55630325  0.54316843  0.83317469  1
  N  N59  1  0.44676566  0.42313532  0.59873045  1
  N  N60  1  0.22192340  0.87281973  0.33535674  1
  N  N61  1  0.09480661  0.79704405  0.07018772  1
  N  N62  1  0.88340538  0.87420132  0.82959478  1
  N  N63  1  0.77811070  0.76044509  0.57731555  1
  N  N64  1  0.55564899  0.87121182  0.33120136  1
  N  N65  1  0.42481591  0.79704373  0.07018793  1
  N  N66  1  0.21892101  0.87882469  0.82443364  1
  N  N67  1  0.10739551  0.76617163  0.58822140  1
  N  N68  1  0.88980574  0.87121183  0.33120139  1
  N  N69  1  0.77967406  0.75731835  0.08464271  1
  N  N70  1  0.55905984  0.87420122  0.82959484  1
  N  N71  1  0.44309942  0.76617153  0.58822125  1
