# generated using pymatgen
data_GdAl17N18
_symmetry_space_group_name_H-M   'P 1'
_cell_length_a   9.66621926
_cell_length_b   9.70391201
_cell_length_c   9.65132055
_cell_angle_alpha   89.95838263
_cell_angle_beta   90.00000088
_cell_angle_gamma   60.12841999
_symmetry_Int_Tables_number   1
_chemical_formula_structural   GdAl17N18
_chemical_formula_sum   'Gd2 Al34 N36'
_cell_volume   785.02096363
_cell_formula_units_Z   2
loop_
 _symmetry_equiv_pos_site_id
 _symmetry_equiv_pos_as_xyz
  1  'x, y, z'
loop_
 _atom_site_type_symbol
 _atom_site_label
 _atom_site_symmetry_multiplicity
 _atom_site_fract_x
 _atom_site_fract_y
 _atom_site_fract_z
 _atom_site_occupancy
  Al  Al0  1  0.11110470  0.09445732  0.32691560  1
  Al  Al1  1  0.22207103  0.20120038  0.07980731  1
  Al  Al2  1  0.77896415  0.09357295  0.82996086  1
  Al  Al3  1  0.89085648  0.20143786  0.57822040  1
  Al  Al4  1  0.44637443  0.09319914  0.32733268  1
  Al  Al5  1  0.55995458  0.19675757  0.07728700  1
  Al  Al6  1  0.11026784  0.09613105  0.82952782  1
  Al  Al7  1  0.22437243  0.20143783  0.57822039  1
  Al  Al8  1  0.77709313  0.09319915  0.32733273  1
  Al  Al9  1  0.89339535  0.20120031  0.07980730  1
  Al  Al10  1  0.44412960  0.09357291  0.82996093  1
  Al  Al11  1  0.55955707  0.19755255  0.58009353  1
  Al  Al12  1  0.10834143  0.42318645  0.33709936  1
  Al  Al13  1  0.78151745  0.42426768  0.81975773  1
  Al  Al14  1  0.88780381  0.54105907  0.57831215  1
  Al  Al15  1  0.44872894  0.41920881  0.34771745  1
  Al  Al16  1  0.11088157  0.42426771  0.81975765  1
  Al  Al17  1  0.21843123  0.54113537  0.58072844  1
  Al  Al18  1  0.78513884  0.42318643  0.33709926  1
  Al  Al19  1  0.89254223  0.53158226  0.07929955  1
  Al  Al20  1  0.44616196  0.42434277  0.81123671  1
  Al  Al21  1  0.55710018  0.54113527  0.58072845  1
  Al  Al22  1  0.10551843  0.77213226  0.33709734  1
  Al  Al23  1  0.21557775  0.88551114  0.07850643  1
  Al  Al24  1  0.77846969  0.75972720  0.83132394  1
  Al  Al25  1  0.88510523  0.87379845  0.57853297  1
  Al  Al26  1  0.43901592  0.77213222  0.33709741  1
  Al  Al27  1  0.55323941  0.87753080  0.07937523  1
  Al  Al28  1  0.10906621  0.76470466  0.82035203  1
  Al  Al29  1  0.21961326  0.87744010  0.58002644  1
  Al  Al30  1  0.77806654  0.76053352  0.32765158  1
  Al  Al31  1  0.88589634  0.87753084  0.07937520  1
  Al  Al32  1  0.44289576  0.76470463  0.82035198  1
  Al  Al33  1  0.55776296  0.87379844  0.57853295  1
  Gd  Gd34  1  0.21795200  0.54132430  0.08876011  1
  Gd  Gd35  1  0.55739043  0.54132429  0.08876011  1
  N  N36  1  0.22551309  0.20071980  0.38183232  1
  N  N37  1  0.10970585  0.09725501  0.12911575  1
  N  N38  1  0.88807876  0.20630533  0.88001705  1
  N  N39  1  0.77945907  0.09260608  0.63324169  1
  N  N40  1  0.56041039  0.19584592  0.38624457  1
  N  N41  1  0.44537109  0.09406731  0.12815417  1
  N  N42  1  0.22228262  0.20630540  0.88001707  1
  N  N43  1  0.11033257  0.09600158  0.63302781  1
  N  N44  1  0.89043387  0.20071982  0.38183232  1
  N  N45  1  0.77722827  0.09406732  0.12815422  1
  N  N46  1  0.55487089  0.20692497  0.87688247  1
  N  N47  1  0.44460156  0.09260604  0.63324174  1
  N  N48  1  0.21729548  0.54297987  0.37700786  1
  N  N49  1  0.10047915  0.40977578  0.14126733  1
  N  N50  1  0.89029041  0.53608596  0.87858216  1
  N  N51  1  0.78209680  0.42426832  0.62291566  1
  N  N52  1  0.55639145  0.54297981  0.37700787  1
  N  N53  1  0.46132986  0.39400697  0.15350750  1
  N  N54  1  0.22294012  0.53856383  0.85101210  1
  N  N55  1  0.11030158  0.42426833  0.62291556  1
  N  N56  1  0.88708987  0.54248694  0.38355799  1
  N  N57  1  0.80641180  0.40977573  0.14126724  1
  N  N58  1  0.55516278  0.53856380  0.85101211  1
  N  N59  1  0.44648381  0.42369903  0.61343314  1
  N  N60  1  0.21914866  0.87836929  0.38621012  1
  N  N61  1  0.09460193  0.79695069  0.14148016  1
  N  N62  1  0.88998906  0.87105984  0.88039062  1
  N  N63  1  0.77812411  0.76041838  0.63354267  1
  N  N64  1  0.55872912  0.87416781  0.38203589  1
  N  N65  1  0.42511393  0.79695065  0.14148023  1
  N  N66  1  0.22215232  0.87236205  0.87739730  1
  N  N67  1  0.10792235  0.76562053  0.62382485  1
  N  N68  1  0.88376971  0.87416780  0.38203591  1
  N  N69  1  0.77960189  0.75746277  0.12760856  1
  N  N70  1  0.55561772  0.87105979  0.88039065  1
  N  N71  1  0.44312374  0.76562048  0.62382479  1
