# generated using pymatgen
data_GdAl17N18
_symmetry_space_group_name_H-M   'P 1'
_cell_length_a   9.49323315
_cell_length_b   9.51113914
_cell_length_c   10.14332977
_cell_angle_alpha   90.08970665
_cell_angle_beta   90.00000019
_cell_angle_gamma   60.06225826
_symmetry_Int_Tables_number   1
_chemical_formula_structural   GdAl17N18
_chemical_formula_sum   'Gd2 Al34 N36'
_cell_volume   793.65044763
_cell_formula_units_Z   2
loop_
 _symmetry_equiv_pos_site_id
 _symmetry_equiv_pos_as_xyz
  1  'x, y, z'
loop_
 _atom_site_type_symbol
 _atom_site_label
 _atom_site_symmetry_multiplicity
 _atom_site_fract_x
 _atom_site_fract_y
 _atom_site_fract_z
 _atom_site_occupancy
  Al  Al0  1  0.11123242  0.09420183  0.40641953  1
  Al  Al1  1  0.22189680  0.20108529  0.15573884  1
  Al  Al2  1  0.77738021  0.09384987  0.90771694  1
  Al  Al3  1  0.89067813  0.20237745  0.65781197  1
  Al  Al4  1  0.44451346  0.09381701  0.40655454  1
  Al  Al5  1  0.55934179  0.19798309  0.15673143  1
  Al  Al6  1  0.11100023  0.09466624  0.90819814  1
  Al  Al7  1  0.22361109  0.20237746  0.65781197  1
  Al  Al8  1  0.77833619  0.09381701  0.40655454  1
  Al  Al9  1  0.89368459  0.20108529  0.15573884  1
  Al  Al10  1  0.44543659  0.09384988  0.90771694  1
  Al  Al11  1  0.55826438  0.20013792  0.65828533  1
  Al  Al12  1  0.11058541  0.42452664  0.41667616  1
  Al  Al13  1  0.78356529  0.42408576  0.90157274  1
  Al  Al14  1  0.88829442  0.54007786  0.65903209  1
  Al  Al15  1  0.44630286  0.42406095  0.42537226  1
  Al  Al16  1  0.10901566  0.42408577  0.90157274  1
  Al  Al17  1  0.21968729  0.53993187  0.65844690  1
  Al  Al18  1  0.78155465  0.42452662  0.41667617  1
  Al  Al19  1  0.89208022  0.53250623  0.15522729  1
  Al  Al20  1  0.44744104  0.42178462  0.89541649  1
  Al  Al21  1  0.55704755  0.53993186  0.65844690  1
  Al  Al22  1  0.11004589  0.76349863  0.41652879  1
  Al  Al23  1  0.21607835  0.88450998  0.15505671  1
  Al  Al24  1  0.77787114  0.76092439  0.90690717  1
  Al  Al25  1  0.88615680  0.87358126  0.65772938  1
  Al  Al26  1  0.44312218  0.76349862  0.41652878  1
  Al  Al27  1  0.55348540  0.87802543  0.15618661  1
  Al  Al28  1  0.10663755  0.76947715  0.90123344  1
  Al  Al29  1  0.22046753  0.87573164  0.65833925  1
  Al  Al30  1  0.77852831  0.75961005  0.40593321  1
  Al  Al31  1  0.88515587  0.87802543  0.15618662  1
  Al  Al32  1  0.44055199  0.76947715  0.90123344  1
  Al  Al33  1  0.55692862  0.87358127  0.65772938  1
  Gd  Gd34  1  0.21673963  0.54153270  0.15736509  1
  Gd  Gd35  1  0.55839435  0.54153271  0.15736509  1
  N  N36  1  0.22229069  0.20590551  0.34773643  1
  N  N37  1  0.10976269  0.09714130  0.09772194  1
  N  N38  1  0.89024910  0.20183410  0.84625421  1
  N  N39  1  0.77842092  0.09355707  0.59587381  1
  N  N40  1  0.55480477  0.20705712  0.34926363  1
  N  N41  1  0.44470244  0.09489229  0.09874994  1
  N  N42  1  0.22458349  0.20183411  0.84625420  1
  N  N43  1  0.11107094  0.09452479  0.59560363  1
  N  N44  1  0.88847048  0.20590549  0.34773643  1
  N  N45  1  0.77707195  0.09489229  0.09874994  1
  N  N46  1  0.55895680  0.19875309  0.84435254  1
  N  N47  1  0.44468867  0.09355708  0.59587381  1
  N  N48  1  0.22340986  0.53751277  0.37974580  1
  N  N49  1  0.10095006  0.41082953  0.08697480  1
  N  N50  1  0.88757384  0.54151902  0.84563697  1
  N  N51  1  0.78179535  0.42489301  0.60458542  1
  N  N52  1  0.55574407  0.53751276  0.37974580  1
  N  N53  1  0.45905020  0.39856630  0.07802337  1
  N  N54  1  0.21853586  0.54167385  0.85116764  1
  N  N55  1  0.10997833  0.42489302  0.60458541  1
  N  N56  1  0.89025945  0.53614781  0.34818851  1
  N  N57  1  0.80488710  0.41082953  0.08697481  1
  N  N58  1  0.55645700  0.54167385  0.85116765  1
  N  N59  1  0.44625116  0.42416438  0.61271322  1
  N  N60  1  0.22327243  0.87012184  0.34840740  1
  N  N61  1  0.09500725  0.79438285  0.08663884  1
  N  N62  1  0.88493728  0.87387535  0.84611703  1
  N  N63  1  0.77819942  0.76026783  0.59593363  1
  N  N64  1  0.55552199  0.87044396  0.34758095  1
  N  N65  1  0.42727659  0.79438286  0.08663884  1
  N  N66  1  0.22008425  0.87649819  0.84414592  1
  N  N67  1  0.10893046  0.76466356  0.60433435  1
  N  N68  1  0.89070074  0.87044395  0.34758096  1
  N  N69  1  0.77912940  0.75840788  0.09921808  1
  N  N70  1  0.55785405  0.87387535  0.84611703  1
  N  N71  1  0.44307267  0.76466356  0.60433435  1
