# generated using pymatgen
data_GdAl17N18
_symmetry_space_group_name_H-M   'P 1'
_cell_length_a   9.90500697
_cell_length_b   9.95352818
_cell_length_c   8.94308656
_cell_angle_alpha   89.99119535
_cell_angle_beta   90.00000195
_cell_angle_gamma   60.16114532
_symmetry_Int_Tables_number   1
_chemical_formula_structural   GdAl17N18
_chemical_formula_sum   'Gd2 Al34 N36'
_cell_volume   764.80869604
_cell_formula_units_Z   2
loop_
 _symmetry_equiv_pos_site_id
 _symmetry_equiv_pos_as_xyz
  1  'x, y, z'
loop_
 _atom_site_type_symbol
 _atom_site_label
 _atom_site_symmetry_multiplicity
 _atom_site_fract_x
 _atom_site_fract_y
 _atom_site_fract_z
 _atom_site_occupancy
  Al  Al0  1  0.11119993  0.09426701  0.33785171  1
  Al  Al1  1  0.22248260  0.20105457  0.08940527  1
  Al  Al2  1  0.77940023  0.09325126  0.83900568  1
  Al  Al3  1  0.89086957  0.20088576  0.58808295  1
  Al  Al4  1  0.44664448  0.09291212  0.33770376  1
  Al  Al5  1  0.56076623  0.19513441  0.08468482  1
  Al  Al6  1  0.10957482  0.09751733  0.83792691  1
  Al  Al7  1  0.22491166  0.20088570  0.58808283  1
  Al  Al8  1  0.77711015  0.09291218  0.33770398  1
  Al  Al9  1  0.89312985  0.20105433  0.08940521  1
  Al  Al10  1  0.44401533  0.09325114  0.83900586  1
  Al  Al11  1  0.55995403  0.19675869  0.59114859  1
  Al  Al12  1  0.10857632  0.42314646  0.35065400  1
  Al  Al13  1  0.78353295  0.42282392  0.82846553  1
  Al  Al14  1  0.88763911  0.54138849  0.58908540  1
  Al  Al15  1  0.44901999  0.41862669  0.36020479  1
  Al  Al16  1  0.11030998  0.42282400  0.82846524  1
  Al  Al17  1  0.21848580  0.54121999  0.59527047  1
  Al  Al18  1  0.78494412  0.42314634  0.35065385  1
  Al  Al19  1  0.89208632  0.53249431  0.08843547  1
  Al  Al20  1  0.44700922  0.42264827  0.81983380  1
  Al  Al21  1  0.55696116  0.54121978  0.59527048  1
  Al  Al22  1  0.10602925  0.77183844  0.35047590  1
  Al  Al23  1  0.21538865  0.88588915  0.08558419  1
  Al  Al24  1  0.77840754  0.75985124  0.84121469  1
  Al  Al25  1  0.88452022  0.87384175  0.58855402  1
  Al  Al26  1  0.43879868  0.77183826  0.35047595  1
  Al  Al27  1  0.55363395  0.87731649  0.08881290  1
  Al  Al28  1  0.10714793  0.76753139  0.82917184  1
  Al  Al29  1  0.21913789  0.87839067  0.59188965  1
  Al  Al30  1  0.77826581  0.76013479  0.33736066  1
  Al  Al31  1  0.88571573  0.87731665  0.08881281  1
  Al  Al32  1  0.44198712  0.76753121  0.82917169  1
  Al  Al33  1  0.55830447  0.87384172  0.58855387  1
  Gd  Gd34  1  0.21738006  0.54201957  0.10013609  1
  Gd  Gd35  1  0.55726738  0.54201934  0.10013611  1
  N  N36  1  0.22587004  0.20050691  0.37206265  1
  N  N37  1  0.10974357  0.09717980  0.11877068  1
  N  N38  1  0.88833092  0.20556680  0.86893291  1
  N  N39  1  0.78003280  0.09199894  0.62344164  1
  N  N40  1  0.56039377  0.19587919  0.37808137  1
  N  N41  1  0.44568574  0.09364246  0.11762642  1
  N  N42  1  0.22276910  0.20556700  0.86893301  1
  N  N43  1  0.10973432  0.09719829  0.62269824  1
  N  N44  1  0.89029000  0.20050692  0.37206271  1
  N  N45  1  0.77733851  0.09364256  0.11762657  1
  N  N46  1  0.55562816  0.20541052  0.86442401  1
  N  N47  1  0.44463509  0.09199883  0.62344181  1
  N  N48  1  0.21752630  0.54296503  0.37443053  1
  N  N49  1  0.10095378  0.41049761  0.12884414  1
  N  N50  1  0.89003966  0.53658768  0.86623951  1
  N  N51  1  0.78306455  0.42327991  0.61224706  1
  N  N52  1  0.55617568  0.54296479  0.37443053  1
  N  N53  1  0.46079661  0.39507346  0.13949404  1
  N  N54  1  0.22193502  0.53945207  0.83886684  1
  N  N55  1  0.11032233  0.42327993  0.61224682  1
  N  N56  1  0.88709882  0.54246911  0.37439140  1
  N  N57  1  0.80521565  0.41049742  0.12884380  1
  N  N58  1  0.55527976  0.53945195  0.83886687  1
  N  N59  1  0.44720768  0.42225132  0.60480326  1
  N  N60  1  0.21904175  0.87858287  0.37859403  1
  N  N61  1  0.09557232  0.79592078  0.12837102  1
  N  N62  1  0.88859148  0.87183228  0.86947593  1
  N  N63  1  0.77813863  0.76038906  0.62388024  1
  N  N64  1  0.55896631  0.87397509  0.37189873  1
  N  N65  1  0.42517326  0.79592050  0.12837122  1
  N  N66  1  0.22108247  0.87450160  0.86323218  1
  N  N67  1  0.10684260  0.76670048  0.61355169  1
  N  N68  1  0.88372497  0.87397513  0.37189884  1
  N  N69  1  0.77963785  0.75739062  0.11661161  1
  N  N70  1  0.55624263  0.87183210  0.86947606  1
  N  N71  1  0.44312336  0.76670034  0.61355155  1
