# generated using pymatgen
data_GdAl17N18
_symmetry_space_group_name_H-M   'P 1'
_cell_length_a   9.49323562
_cell_length_b   9.51114724
_cell_length_c   10.14333166
_cell_angle_alpha   89.91030992
_cell_angle_beta   89.99999963
_cell_angle_gamma   60.06227805
_symmetry_Int_Tables_number   1
_chemical_formula_structural   GdAl17N18
_chemical_formula_sum   'Gd2 Al34 N36'
_cell_volume   793.65163600
_cell_formula_units_Z   2
loop_
 _symmetry_equiv_pos_site_id
 _symmetry_equiv_pos_as_xyz
  1  'x, y, z'
loop_
 _atom_site_type_symbol
 _atom_site_label
 _atom_site_symmetry_multiplicity
 _atom_site_fract_x
 _atom_site_fract_y
 _atom_site_fract_z
 _atom_site_occupancy
  Al  Al0  1  0.11096526  0.09473617  0.32158367  1
  Al  Al1  1  0.22186201  0.20115507  0.07404135  1
  Al  Al2  1  0.77830092  0.09388714  0.82322641  1
  Al  Al3  1  0.89064276  0.20244796  0.57196985  1
  Al  Al4  1  0.44540160  0.09391966  0.32206520  1
  Al  Al5  1  0.55930724  0.19805217  0.07304918  1
  Al  Al6  1  0.11119703  0.09427259  0.82336093  1
  Al  Al7  1  0.22357594  0.20244797  0.57196985  1
  Al  Al8  1  0.77734542  0.09391965  0.32206519  1
  Al  Al9  1  0.89364960  0.20115506  0.07404135  1
  Al  Al10  1  0.44447859  0.09388714  0.82322641  1
  Al  Al11  1  0.55822906  0.20020854  0.57149585  1
  Al  Al12  1  0.10898053  0.42415563  0.32820650  1
  Al  Al13  1  0.78151911  0.42459698  0.81310388  1
  Al  Al14  1  0.88825954  0.54014761  0.57074888  1
  Al  Al15  1  0.44740614  0.42185440  0.33435873  1
  Al  Al16  1  0.11055058  0.42459700  0.81310388  1
  Al  Al17  1  0.21965246  0.54000205  0.57133115  1
  Al  Al18  1  0.78353054  0.42415563  0.32820651  1
  Al  Al19  1  0.89204522  0.53257623  0.07455140  1
  Al  Al20  1  0.44626771  0.42413125  0.80440612  1
  Al  Al21  1  0.55701219  0.54000204  0.57133116  1
  Al  Al22  1  0.10660260  0.76954758  0.32854668  1
  Al  Al23  1  0.21604306  0.88458056  0.07472253  1
  Al  Al24  1  0.77849312  0.75968042  0.82384643  1
  Al  Al25  1  0.88612199  0.87365137  0.57205268  1
  Al  Al26  1  0.44051650  0.76954758  0.32854668  1
  Al  Al27  1  0.55345066  0.87809537  0.07359454  1
  Al  Al28  1  0.11001072  0.76356881  0.81325186  1
  Al  Al29  1  0.22043241  0.87580187  0.57144293  1
  Al  Al30  1  0.77783631  0.76099405  0.32287494  1
  Al  Al31  1  0.88512067  0.87809537  0.07359453  1
  Al  Al32  1  0.44308716  0.76356880  0.81325187  1
  Al  Al33  1  0.55689331  0.87365137  0.57205268  1
  Gd  Gd34  1  0.21670375  0.54160343  0.07241290  1
  Gd  Gd35  1  0.55835951  0.54160344  0.07241290  1
  N  N36  1  0.22454826  0.20190453  0.38352662  1
  N  N37  1  0.10972765  0.09721138  0.13205815  1
  N  N38  1  0.88843513  0.20597593  0.88204315  1
  N  N39  1  0.77838569  0.09362730  0.63390681  1
  N  N40  1  0.55892131  0.19882406  0.38542744  1
  N  N41  1  0.44466749  0.09496210  0.13103060  1
  N  N42  1  0.22225560  0.20597594  0.88204315  1
  N  N43  1  0.11103566  0.09459534  0.63417698  1
  N  N44  1  0.89021390  0.20190451  0.38352661  1
  N  N45  1  0.77703709  0.09496209  0.13103060  1
  N  N46  1  0.55476967  0.20712732  0.88051585  1
  N  N47  1  0.44465366  0.09362731  0.63390680  1
  N  N48  1  0.21850123  0.54174376  0.37860945  1
  N  N49  1  0.10091503  0.41089957  0.14280374  1
  N  N50  1  0.89022425  0.53621820  0.88159007  1
  N  N51  1  0.78175961  0.42496354  0.62519412  1
  N  N52  1  0.55642172  0.54174376  0.37860945  1
  N  N53  1  0.45901497  0.39863675  0.15175237  1
  N  N54  1  0.22337498  0.53758307  0.85003256  1
  N  N55  1  0.10994354  0.42496354  0.62519412  1
  N  N56  1  0.88753907  0.54158855  0.38414325  1
  N  N57  1  0.80485208  0.41089957  0.14280374  1
  N  N58  1  0.55570864  0.53758306  0.85003255  1
  N  N59  1  0.44621586  0.42423497  0.61706502  1
  N  N60  1  0.22004920  0.87656828  0.38563529  1
  N  N61  1  0.09497250  0.79445303  0.14314046  1
  N  N62  1  0.89066559  0.87051403  0.88219906  1
  N  N63  1  0.77816441  0.76033785  0.63384635  1
  N  N64  1  0.55781892  0.87394517  0.38366412  1
  N  N65  1  0.42724114  0.79445304  0.14314046  1
  N  N66  1  0.22323707  0.87019256  0.88137165  1
  N  N67  1  0.10889564  0.76473328  0.62544571  1
  N  N68  1  0.88490258  0.87394517  0.38366412  1
  N  N69  1  0.77909464  0.75847740  0.13056235  1
  N  N70  1  0.55548706  0.87051404  0.88219906  1
  N  N71  1  0.44303776  0.76473328  0.62544571  1
