# generated using pymatgen
data_GdAl17N18
_symmetry_space_group_name_H-M   'P 1'
_cell_length_a   10.02833224
_cell_length_b   10.08097184
_cell_length_c   8.57278450
_cell_angle_alpha   90.00866605
_cell_angle_beta   90.00000824
_cell_angle_gamma   60.17261143
_symmetry_Int_Tables_number   1
_chemical_formula_structural   GdAl17N18
_chemical_formula_sum   'Gd2 Al34 N36'
_cell_volume   751.85901530
_cell_formula_units_Z   2
loop_
 _symmetry_equiv_pos_site_id
 _symmetry_equiv_pos_as_xyz
  1  'x, y, z'
loop_
 _atom_site_type_symbol
 _atom_site_label
 _atom_site_symmetry_multiplicity
 _atom_site_fract_x
 _atom_site_fract_y
 _atom_site_fract_z
 _atom_site_occupancy
  Al  Al0  1  0.10995287  0.09676204  0.36189172  1
  Al  Al1  1  0.22330984  0.20010096  0.10866595  1
  Al  Al2  1  0.77787561  0.09303336  0.85661023  1
  Al  Al3  1  0.89032786  0.20197617  0.60889826  1
  Al  Al4  1  0.44490242  0.09298349  0.36127282  1
  Al  Al5  1  0.56178998  0.19308757  0.11104604  1
  Al  Al6  1  0.11061116  0.09544499  0.85676904  1
  Al  Al7  1  0.22436261  0.20197629  0.60889805  1
  Al  Al8  1  0.77878060  0.09298391  0.36127317  1
  Al  Al9  1  0.89325744  0.20009996  0.10866622  1
  Al  Al10  1  0.44575769  0.09303323  0.85661024  1
  Al  Al11  1  0.55883269  0.19900220  0.60802234  1
  Al  Al12  1  0.10970227  0.42258289  0.36834819  1
  Al  Al13  1  0.78478135  0.42265708  0.84850976  1
  Al  Al14  1  0.88830192  0.54006362  0.60848640  1
  Al  Al15  1  0.44787307  0.42092009  0.37404930  1
  Al  Al16  1  0.10922929  0.42265729  0.84850949  1
  Al  Al17  1  0.21970752  0.54040430  0.60661837  1
  Al  Al18  1  0.78438254  0.42258302  0.36834885  1
  Al  Al19  1  0.89127546  0.53411663  0.10856589  1
  Al  Al20  1  0.44854281  0.41958034  0.84339711  1
  Al  Al21  1  0.55655536  0.54040412  0.60661851  1
  Al  Al22  1  0.10659149  0.76935801  0.36851668  1
  Al  Al23  1  0.21494027  0.88678585  0.11112575  1
  Al  Al24  1  0.77841834  0.75982866  0.85754707  1
  Al  Al25  1  0.88545673  0.87320414  0.60869753  1
  Al  Al26  1  0.44071617  0.76935702  0.36851613  1
  Al  Al27  1  0.55448420  0.87776548  0.10868981  1
  Al  Al28  1  0.10636873  0.77086254  0.84843655  1
  Al  Al29  1  0.21948569  0.87769633  0.60775357  1
  Al  Al30  1  0.77850355  0.75965847  0.35909077  1
  Al  Al31  1  0.88441508  0.87776606  0.10869026  1
  Al  Al32  1  0.43943349  0.77086165  0.84843674  1
  Al  Al33  1  0.55800468  0.87320490  0.60869755  1
  Gd  Gd34  1  0.21571421  0.54331260  0.10520217  1
  Gd  Gd35  1  0.55764178  0.54331101  0.10520213  1
  N  N36  1  0.22395659  0.20370685  0.35310706  1
  N  N37  1  0.10945920  0.09774980  0.10064054  1
  N  N38  1  0.88968941  0.20213997  0.84746831  1
  N  N39  1  0.77969442  0.09204009  0.59952868  1
  N  N40  1  0.55746534  0.20173612  0.35609267  1
  N  N41  1  0.44538654  0.09338697  0.10094581  1
  N  N42  1  0.22483756  0.20214044  0.84746856  1
  N  N43  1  0.10984361  0.09697995  0.59944567  1
  N  N44  1  0.88900406  0.20370675  0.35310695  1
  N  N45  1  0.77789346  0.09338720  0.10094574  1
  N  N46  1  0.55866629  0.19933428  0.84346115  1
  N  N47  1  0.44493237  0.09204039  0.59952887  1
  N  N48  1  0.22048627  0.54050630  0.37383449  1
  N  N49  1  0.10148619  0.41088661  0.09760063  1
  N  N50  1  0.88818922  0.54028943  0.84614318  1
  N  N51  1  0.78309699  0.42328662  0.60306706  1
  N  N52  1  0.55567484  0.54050556  0.37383455  1
  N  N53  1  0.45947537  0.39771597  0.09459192  1
  N  N54  1  0.21933028  0.54154855  0.83493925  1
  N  N55  1  0.11028370  0.42328659  0.60306683  1
  N  N56  1  0.88912643  0.53841476  0.35481570  1
  N  N57  1  0.80429580  0.41088574  0.09759967  1
  N  N58  1  0.55578827  0.54154796  0.83493928  1
  N  N59  1  0.44752949  0.42160786  0.60461651  1
  N  N60  1  0.22021338  0.87623913  0.35742612  1
  N  N61  1  0.09573175  0.79483580  0.09760904  1
  N  N62  1  0.88519285  0.87327141  0.84819447  1
  N  N63  1  0.77842784  0.75980986  0.59935518  1
  N  N64  1  0.55733892  0.87262864  0.35231931  1
  N  N65  1  0.42609864  0.79483406  0.09760951  1
  N  N66  1  0.21957988  0.87750565  0.84214459  1
  N  N67  1  0.10710773  0.76671925  0.60256033  1
  N  N68  1  0.88669767  0.87262908  0.35231942  1
  N  N69  1  0.77950629  0.75765296  0.10165672  1
  N  N70  1  0.55820097  0.87327096  0.84819500  1
  N  N71  1  0.44283965  0.76671888  0.60256029  1
