# generated using pymatgen
data_GdAl17N18
_symmetry_space_group_name_H-M   'P 1'
_cell_length_a   10.03942384
_cell_length_b   10.09194085
_cell_length_c   8.54242541
_cell_angle_alpha   90.02026805
_cell_angle_beta   90.00000325
_cell_angle_gamma   60.17201691
_symmetry_Int_Tables_number   1
_chemical_formula_structural   GdAl17N18
_chemical_formula_sum   'Gd2 Al34 N36'
_cell_volume   750.83663974
_cell_formula_units_Z   2
loop_
 _symmetry_equiv_pos_site_id
 _symmetry_equiv_pos_as_xyz
  1  'x, y, z'
loop_
 _atom_site_type_symbol
 _atom_site_label
 _atom_site_symmetry_multiplicity
 _atom_site_fract_x
 _atom_site_fract_y
 _atom_site_fract_z
 _atom_site_occupancy
  Al  Al0  1  0.11040109  0.09586522  0.35575640  1
  Al  Al1  1  0.22331697  0.20001440  0.10288062  1
  Al  Al2  1  0.77844550  0.09327861  0.84982987  1
  Al  Al3  1  0.89018799  0.20215421  0.60274265  1
  Al  Al4  1  0.44570302  0.09277202  0.35468476  1
  Al  Al5  1  0.56172502  0.19321752  0.10029308  1
  Al  Al6  1  0.11014749  0.09637263  0.84980294  1
  Al  Al7  1  0.22432434  0.20215427  0.60274230  1
  Al  Al8  1  0.77819132  0.09277226  0.35468528  1
  Al  Al9  1  0.89333687  0.20001330  0.10288085  1
  Al  Al10  1  0.44494266  0.09327835  0.84982997  1
  Al  Al11  1  0.55891792  0.19883163  0.60128683  1
  Al  Al12  1  0.10934141  0.42278654  0.36248633  1
  Al  Al13  1  0.78470673  0.42245083  0.84338359  1
  Al  Al14  1  0.88839071  0.53988608  0.60295079  1
  Al  Al15  1  0.44884181  0.41898230  0.36474389  1
  Al  Al16  1  0.10951058  0.42245090  0.84338304  1
  Al  Al17  1  0.21943309  0.54055303  0.60281255  1
  Al  Al18  1  0.78453987  0.42278654  0.36248678  1
  Al  Al19  1  0.89113705  0.53439371  0.10311159  1
  Al  Al20  1  0.44771646  0.42123350  0.83315778  1
  Al  Al21  1  0.55668130  0.54055278  0.60281257  1
  Al  Al22  1  0.10641089  0.77018614  0.36289934  1
  Al  Al23  1  0.21490591  0.88685475  0.10254528  1
  Al  Al24  1  0.77848437  0.75969656  0.85192197  1
  Al  Al25  1  0.88559757  0.87320275  0.60305774  1
  Al  Al26  1  0.44006809  0.77018522  0.36289883  1
  Al  Al27  1  0.55464566  0.87775427  0.10263075  1
  Al  Al28  1  0.10647782  0.77014255  0.84360434  1
  Al  Al29  1  0.21956929  0.87752902  0.60343821  1
  Al  Al30  1  0.77841998  0.75982532  0.35426289  1
  Al  Al31  1  0.88426463  0.87775489  0.10263091  1
  Al  Al32  1  0.44004491  0.77014152  0.84360425  1
  Al  Al33  1  0.55786501  0.87320367  0.60305743  1
  Gd  Gd34  1  0.21610146  0.54305227  0.10394500  1
  Gd  Gd35  1  0.55751489  0.54305070  0.10394506  1
  N  N36  1  0.22472795  0.20263944  0.35934091  1
  N  N37  1  0.10941942  0.09782942  0.10647680  1
  N  N38  1  0.88937568  0.20324099  0.85353357  1
  N  N39  1  0.77965762  0.09207988  0.60776637  1
  N  N40  1  0.55920179  0.19826301  0.36462028  1
  N  N41  1  0.44534747  0.09339522  0.10615289  1
  N  N42  1  0.22405039  0.20324143  0.85353385  1
  N  N43  1  0.10987124  0.09692462  0.60634787  1
  N  N44  1  0.88929989  0.20263929  0.35934077  1
  N  N45  1  0.77792423  0.09339545  0.10615285  1
  N  N46  1  0.55700147  0.20266384  0.85229144  1
  N  N47  1  0.44492924  0.09208027  0.60776661  1
  N  N48  1  0.21871709  0.54176809  0.37406767  1
  N  N49  1  0.10153707  0.41100445  0.10704696  1
  N  N50  1  0.88878666  0.53909489  0.85186158  1
  N  N51  1  0.78314892  0.42331472  0.60533136  1
  N  N52  1  0.55618225  0.54176734  0.37406768  1
  N  N53  1  0.45951470  0.39763738  0.11813243  1
  N  N54  1  0.22099718  0.54035643  0.83482604  1
  N  N55  1  0.11020380  0.42331470  0.60533124  1
  N  N56  1  0.88850958  0.53964852  0.36035071  1
  N  N57  1  0.80412720  0.41100362  0.10704608  1
  N  N58  1  0.55531380  0.54035587  0.83482603  1
  N  N59  1  0.44759919  0.42146863  0.60296071  1
  N  N60  1  0.21987726  0.87691096  0.36357474  1
  N  N61  1  0.09580345  0.79447037  0.10664171  1
  N  N62  1  0.88604667  0.87289535  0.85426094  1
  N  N63  1  0.77844486  0.75977564  0.60651492  1
  N  N64  1  0.55781359  0.87306991  0.35853269  1
  N  N65  1  0.42639244  0.79446855  0.10664223  1
  N  N66  1  0.21988329  0.87689920  0.84894211  1
  N  N67  1  0.10711598  0.76683164  0.60565190  1
  N  N68  1  0.88578149  0.87307025  0.35853279  1
  N  N69  1  0.77945920  0.75774701  0.10585091  1
  N  N70  1  0.55772330  0.87289487  0.85426133  1
  N  N71  1  0.44271899  0.76683125  0.60565180  1
