# generated using pymatgen
data_GdAl17N18
_symmetry_space_group_name_H-M   'P 1'
_cell_length_a   9.49323637
_cell_length_b   9.51114351
_cell_length_c   10.14333407
_cell_angle_alpha   90.08970639
_cell_angle_beta   90.00000015
_cell_angle_gamma   60.06226219
_symmetry_Int_Tables_number   1
_chemical_formula_structural   GdAl17N18
_chemical_formula_sum   'Gd2 Al34 N36'
_cell_volume   793.65144946
_cell_formula_units_Z   2
loop_
 _symmetry_equiv_pos_site_id
 _symmetry_equiv_pos_as_xyz
  1  'x, y, z'
loop_
 _atom_site_type_symbol
 _atom_site_label
 _atom_site_symmetry_multiplicity
 _atom_site_fract_x
 _atom_site_fract_y
 _atom_site_fract_z
 _atom_site_occupancy
  Al  Al0  1  0.11123711  0.09419244  0.41000064  1
  Al  Al1  1  0.22190156  0.20107558  0.15931941  1
  Al  Al2  1  0.77738510  0.09384046  0.91129485  1
  Al  Al3  1  0.89068259  0.20236839  0.66139032  1
  Al  Al4  1  0.44451850  0.09380743  0.41013497  1
  Al  Al5  1  0.55934683  0.19797301  0.16031047  1
  Al  Al6  1  0.11100502  0.09465665  0.91177608  1
  Al  Al7  1  0.22361569  0.20236840  0.66139031  1
  Al  Al8  1  0.77834073  0.09380742  0.41013497  1
  Al  Al9  1  0.89368954  0.20107558  0.15931941  1
  Al  Al10  1  0.44544111  0.09384047  0.91129485  1
  Al  Al11  1  0.55826878  0.20012910  0.66186418  1
  Al  Al12  1  0.11059043  0.42451697  0.42025483  1
  Al  Al13  1  0.78357024  0.42407633  0.90515209  1
  Al  Al14  1  0.88829943  0.54006786  0.66261003  1
  Al  Al15  1  0.44630776  0.42405116  0.42895160  1
  Al  Al16  1  0.10902013  0.42407634  0.90515209  1
  Al  Al17  1  0.21969228  0.53992225  0.66202609  1
  Al  Al18  1  0.78155931  0.42451695  0.42025484  1
  Al  Al19  1  0.89208487  0.53249694  0.15880905  1
  Al  Al20  1  0.44744566  0.42177537  0.89899878  1
  Al  Al21  1  0.55705218  0.53992224  0.66202609  1
  Al  Al22  1  0.11005045  0.76348909  0.42010722  1
  Al  Al23  1  0.21608284  0.88450102  0.15863790  1
  Al  Al24  1  0.77787604  0.76091460  0.91048569  1
  Al  Al25  1  0.88616196  0.87357163  0.66130797  1
  Al  Al26  1  0.44312716  0.76348908  0.42010721  1
  Al  Al27  1  0.55349024  0.87801614  0.15976639  1
  Al  Al28  1  0.10664239  0.76946787  0.90481234  1
  Al  Al29  1  0.22047254  0.87572163  0.66191699  1
  Al  Al30  1  0.77853289  0.75960090  0.40951499  1
  Al  Al31  1  0.88516033  0.87801614  0.15976640  1
  Al  Al32  1  0.44055643  0.76946787  0.90481234  1
  Al  Al33  1  0.55693309  0.87357163  0.66130796  1
  Gd  Gd34  1  0.21674371  0.54152378  0.16094577  1
  Gd  Gd35  1  0.55839920  0.54152379  0.16094577  1
  N  N36  1  0.22229563  0.20589555  0.35131734  1
  N  N37  1  0.10976742  0.09713185  0.10130169  1
  N  N38  1  0.89025374  0.20182499  0.84983310  1
  N  N39  1  0.77842554  0.09354758  0.59945396  1
  N  N40  1  0.55480976  0.20704715  0.35284397  1
  N  N41  1  0.44470697  0.09488286  0.10232947  1
  N  N42  1  0.22458796  0.20182500  0.84983310  1
  N  N43  1  0.11107566  0.09451536  0.59918385  1
  N  N44  1  0.88847550  0.20589554  0.35131734  1
  N  N45  1  0.77707685  0.09488285  0.10232947  1
  N  N46  1  0.55896110  0.19874450  0.84793211  1
  N  N47  1  0.44469354  0.09354759  0.59945396  1
  N  N48  1  0.22341469  0.53750322  0.38332633  1
  N  N49  1  0.10095460  0.41082013  0.09055551  1
  N  N50  1  0.88757872  0.54150926  0.84921576  1
  N  N51  1  0.78179984  0.42488358  0.60816451  1
  N  N52  1  0.55574880  0.53750320  0.38332634  1
  N  N53  1  0.45905468  0.39855733  0.08160556  1
  N  N54  1  0.21854084  0.54166425  0.85474825  1
  N  N55  1  0.10998328  0.42488359  0.60816450  1
  N  N56  1  0.89026399  0.53613873  0.35176990  1
  N  N57  1  0.80489195  0.41082013  0.09055552  1
  N  N58  1  0.55646163  0.54166425  0.85474826  1
  N  N59  1  0.44625584  0.42415503  0.61629281  1
  N  N60  1  0.22327697  0.87011277  0.35198838  1
  N  N61  1  0.09501205  0.79437365  0.09021902  1
  N  N62  1  0.88494220  0.87386578  0.84969609  1
  N  N63  1  0.77820412  0.76025844  0.59951431  1
  N  N64  1  0.55552704  0.87043453  0.35116149  1
  N  N65  1  0.42728099  0.79437365  0.09021902  1
  N  N66  1  0.22008906  0.87648857  0.84772430  1
  N  N67  1  0.10893524  0.76465381  0.60791332  1
  N  N68  1  0.89070513  0.87043452  0.35116149  1
  N  N69  1  0.77913424  0.75839821  0.10279813  1
  N  N70  1  0.55785870  0.87386578  0.84969609  1
  N  N71  1  0.44307765  0.76465380  0.60791332  1
