# generated using pymatgen
data_GdAl17N18
_symmetry_space_group_name_H-M   'P 1'
_cell_length_a   9.49323137
_cell_length_b   9.51105619
_cell_length_c   10.14346573
_cell_angle_alpha   89.91128940
_cell_angle_beta   90.00000487
_cell_angle_gamma   60.06196644
_symmetry_Int_Tables_number   1
_chemical_formula_structural   GdAl17N18
_chemical_formula_sum   'Gd2 Al34 N36'
_cell_volume   793.65171490
_cell_formula_units_Z   2
loop_
 _symmetry_equiv_pos_site_id
 _symmetry_equiv_pos_as_xyz
  1  'x, y, z'
loop_
 _atom_site_type_symbol
 _atom_site_label
 _atom_site_symmetry_multiplicity
 _atom_site_fract_x
 _atom_site_fract_y
 _atom_site_fract_z
 _atom_site_occupancy
  Al  Al0  1  0.11093793  0.09479023  0.29498108  1
  Al  Al1  1  0.22183229  0.20120703  0.04744415  1
  Al  Al2  1  0.77825468  0.09397679  0.79662694  1
  Al  Al3  1  0.89060144  0.20253237  0.54536785  1
  Al  Al4  1  0.44537033  0.09398040  0.29546102  1
  Al  Al5  1  0.55927858  0.19810905  0.04645767  1
  Al  Al6  1  0.11115317  0.09435941  0.79676110  1
  Al  Al7  1  0.22353271  0.20253188  0.54536787  1
  Al  Al8  1  0.77731608  0.09398012  0.29546110  1
  Al  Al9  1  0.89362600  0.20120720  0.04744409  1
  Al  Al10  1  0.44443481  0.09397717  0.79662701  1
  Al  Al11  1  0.55818740  0.20029192  0.54489074  1
  Al  Al12  1  0.10895174  0.42421815  0.30161346  1
  Al  Al13  1  0.78148199  0.42468575  0.78649367  1
  Al  Al14  1  0.88821373  0.54023977  0.54413958  1
  Al  Al15  1  0.44737235  0.42192257  0.30777147  1
  Al  Al16  1  0.11049894  0.42468524  0.78649361  1
  Al  Al17  1  0.21960708  0.54008931  0.54474248  1
  Al  Al18  1  0.78349658  0.42421861  0.30161327  1
  Al  Al19  1  0.89201797  0.53262992  0.04796118  1
  Al  Al20  1  0.44622482  0.42421745  0.77779233  1
  Al  Al21  1  0.55697048  0.54008998  0.54474248  1
  Al  Al22  1  0.10657802  0.76959259  0.30193845  1
  Al  Al23  1  0.21602574  0.88461507  0.04811862  1
  Al  Al24  1  0.77844972  0.75976771  0.79724307  1
  Al  Al25  1  0.88607813  0.87374005  0.54544450  1
  Al  Al26  1  0.44049633  0.76959334  0.30193864  1
  Al  Al27  1  0.55342586  0.87814340  0.04698663  1
  Al  Al28  1  0.10996401  0.76366182  0.78664324  1
  Al  Al29  1  0.22038955  0.87588768  0.54483147  1
  Al  Al30  1  0.77780407  0.76105923  0.29626526  1
  Al  Al31  1  0.88509788  0.87814287  0.04698663  1
  Al  Al32  1  0.44304085  0.76366272  0.78664304  1
  Al  Al33  1  0.55684921  0.87374036  0.54544449  1
  Gd  Gd34  1  0.21668736  0.54163262  0.04578770  1
  Gd  Gd35  1  0.55834523  0.54163376  0.04578764  1
  N  N36  1  0.22451701  0.20196333  0.35692656  1
  N  N37  1  0.10970658  0.09725219  0.10545940  1
  N  N38  1  0.88838910  0.20606679  0.85544760  1
  N  N39  1  0.77833895  0.09371885  0.60730620  1
  N  N40  1  0.55889095  0.19888492  0.35882517  1
  N  N41  1  0.44463884  0.09501397  0.10443138  1
  N  N42  1  0.22221020  0.20606643  0.85544763  1
  N  N43  1  0.11099178  0.09468246  0.60757557  1
  N  N44  1  0.89018575  0.20196381  0.35692652  1
  N  N45  1  0.77701347  0.09501334  0.10443149  1
  N  N46  1  0.55472238  0.20722189  0.85392496  1
  N  N47  1  0.44460873  0.09371910  0.60730626  1
  N  N48  1  0.21847023  0.54180261  0.35202595  1
  N  N49  1  0.10088873  0.41094992  0.11621646  1
  N  N50  1  0.89018190  0.53630283  0.85499739  1
  N  N51  1  0.78172227  0.42505188  0.59858877  1
  N  N52  1  0.55639383  0.54180329  0.35202597  1
  N  N53  1  0.45898474  0.39869712  0.12516847  1
  N  N54  1  0.22332874  0.53767145  0.82340798  1
  N  N55  1  0.10989309  0.42505141  0.59858870  1
  N  N56  1  0.88750500  0.54165693  0.35753860  1
  N  N57  1  0.80482665  0.41095028  0.11621614  1
  N  N58  1  0.55566601  0.53767239  0.82340788  1
  N  N59  1  0.44617435  0.42431880  0.59045895  1
  N  N60  1  0.22002322  0.87662035  0.35902276  1
  N  N61  1  0.09495883  0.79447603  0.11653033  1
  N  N62  1  0.89062179  0.87060085  0.85559517  1
  N  N63  1  0.77811900  0.76042950  0.60724155  1
  N  N64  1  0.55778599  0.87400744  0.35705654  1
  N  N65  1  0.42723156  0.79447706  0.11653059  1
  N  N66  1  0.22319430  0.87027817  0.85476899  1
  N  N67  1  0.10884775  0.76482933  0.59883941  1
  N  N68  1  0.88487432  0.87400707  0.35705652  1
  N  N69  1  0.77906669  0.75853333  0.10396029  1
  N  N70  1  0.55544438  0.87060129  0.85559511  1
  N  N71  1  0.44298985  0.76483007  0.59883921  1
