# generated using pymatgen
data_GdAl17N18
_symmetry_space_group_name_H-M   'P 1'
_cell_length_a   9.88347514
_cell_length_b   9.93127362
_cell_length_c   9.00802071
_cell_angle_alpha   89.98768555
_cell_angle_beta   90.00000174
_cell_angle_gamma   60.15910191
_symmetry_Int_Tables_number   1
_chemical_formula_structural   GdAl17N18
_chemical_formula_sum   'Gd2 Al34 N36'
_cell_volume   766.95282959
_cell_formula_units_Z   2
loop_
 _symmetry_equiv_pos_site_id
 _symmetry_equiv_pos_as_xyz
  1  'x, y, z'
loop_
 _atom_site_type_symbol
 _atom_site_label
 _atom_site_symmetry_multiplicity
 _atom_site_fract_x
 _atom_site_fract_y
 _atom_site_fract_z
 _atom_site_occupancy
  Al  Al0  1  0.11123269  0.09420146  0.33620674  1
  Al  Al1  1  0.22239244  0.20115796  0.08816553  1
  Al  Al2  1  0.77943439  0.09326060  0.83797412  1
  Al  Al3  1  0.89094551  0.20079271  0.58671121  1
  Al  Al4  1  0.44669093  0.09292369  0.33615641  1
  Al  Al5  1  0.56064895  0.19536895  0.08352909  1
  Al  Al6  1  0.10959086  0.09748520  0.83696110  1
  Al  Al7  1  0.22492875  0.20079264  0.58671111  1
  Al  Al8  1  0.77705213  0.09292375  0.33615660  1
  Al  Al9  1  0.89311657  0.20115775  0.08816547  1
  Al  Al10  1  0.44397181  0.09326049  0.83797430  1
  Al  Al11  1  0.56002923  0.19660829  0.58991880  1
  Al  Al12  1  0.10851087  0.42316567  0.34924781  1
  Al  Al13  1  0.78340125  0.42289995  0.82712957  1
  Al  Al14  1  0.88758037  0.54150595  0.58769149  1
  Al  Al15  1  0.44900466  0.41865734  0.35939080  1
  Al  Al16  1  0.11036563  0.42290001  0.82712931  1
  Al  Al17  1  0.21840227  0.54126972  0.59409818  1
  Al  Al18  1  0.78499034  0.42316556  0.34924763  1
  Al  Al19  1  0.89220528  0.53225636  0.08713437  1
  Al  Al20  1  0.44694093  0.42278486  0.81857433  1
  Al  Al21  1  0.55699494  0.54126953  0.59409819  1
  Al  Al22  1  0.10594874  0.77196903  0.34900704  1
  Al  Al23  1  0.21544384  0.88577879  0.08445004  1
  Al  Al24  1  0.77840591  0.75985455  0.84017083  1
  Al  Al25  1  0.88445115  0.87388460  0.58716977  1
  Al  Al26  1  0.43874865  0.77196887  0.34900712  1
  Al  Al27  1  0.55351045  0.87729601  0.08756799  1
  Al  Al28  1  0.10727143  0.76728933  0.82785840  1
  Al  Al29  1  0.21911559  0.87843529  0.59053058  1
  Al  Al30  1  0.77824422  0.76017800  0.33579427  1
  Al  Al31  1  0.88585977  0.87729616  0.08756789  1
  Al  Al32  1  0.44210570  0.76728918  0.82785827  1
  Al  Al33  1  0.55833073  0.87388457  0.58716964  1
  Gd  Gd34  1  0.21748692  0.54191521  0.09932939  1
  Gd  Gd35  1  0.55726482  0.54191503  0.09932941  1
  N  N36  1  0.22592370  0.20037357  0.37325220  1
  N  N37  1  0.10976366  0.09713958  0.11991334  1
  N  N38  1  0.88824737  0.20574785  0.87040873  1
  N  N39  1  0.78004380  0.09200992  0.62484029  1
  N  N40  1  0.56049070  0.19568532  0.37922012  1
  N  N41  1  0.44568959  0.09367631  0.11879881  1
  N  N42  1  0.22267158  0.20574803  0.87040881  1
  N  N43  1  0.10975830  0.09715030  0.62417944  1
  N  N44  1  0.89036966  0.20037358  0.37325226  1
  N  N45  1  0.77730081  0.09367639  0.11879896  1
  N  N46  1  0.55551157  0.20564369  0.86579041  1
  N  N47  1  0.44461310  0.09200982  0.62484044  1
  N  N48  1  0.21741826  0.54305443  0.37455307  1
  N  N49  1  0.10087021  0.41039739  0.13071429  1
  N  N50  1  0.89012543  0.53641611  0.86775545  1
  N  N51  1  0.78305294  0.42330560  0.61326069  1
  N  N52  1  0.55619428  0.54305422  0.37455307  1
  N  N53  1  0.46092488  0.39481692  0.14151726  1
  N  N54  1  0.22203391  0.53936449  0.83977575  1
  N  N55  1  0.11030823  0.42330562  0.61326046  1
  N  N56  1  0.88700256  0.54266161  0.37562594  1
  N  N57  1  0.80539938  0.41039722  0.13071400  1
  N  N58  1  0.55526843  0.53936439  0.83977578  1
  N  N59  1  0.44715906  0.42234856  0.60530781  1
  N  N60  1  0.21898188  0.87870266  0.37973991  1
  N  N61  1  0.09548217  0.79612629  0.13030192  1
  N  N62  1  0.88882679  0.87172165  0.87093311  1
  N  N63  1  0.77811703  0.76043230  0.62538380  1
  N  N64  1  0.55903976  0.87404118  0.37315135  1
  N  N65  1  0.42505792  0.79612604  0.13030209  1
  N  N66  1  0.22121372  0.87423912  0.86484848  1
  N  N67  1  0.10685544  0.76668861  0.61459546  1
  N  N68  1  0.88358548  0.87404122  0.37315145  1
  N  N69  1  0.77965332  0.75735972  0.11778048  1
  N  N70  1  0.55611799  0.87172149  0.87093322  1
  N  N71  1  0.44312241  0.76668848  0.61459532  1
