# generated using pymatgen
data_GdAl17N18
_symmetry_space_group_name_H-M   'P 1'
_cell_length_a   9.58850367
_cell_length_b   9.62079261
_cell_length_c   9.87351076
_cell_angle_alpha   90.05773702
_cell_angle_beta   90.00000197
_cell_angle_gamma   60.11097009
_symmetry_Int_Tables_number   1
_chemical_formula_structural   GdAl17N18
_chemical_formula_sum   'Gd2 Al34 N36'
_cell_volume   789.67462035
_cell_formula_units_Z   2
loop_
 _symmetry_equiv_pos_site_id
 _symmetry_equiv_pos_as_xyz
  1  'x, y, z'
loop_
 _atom_site_type_symbol
 _atom_site_label
 _atom_site_symmetry_multiplicity
 _atom_site_fract_x
 _atom_site_fract_y
 _atom_site_fract_z
 _atom_site_occupancy
  Al  Al0  1  0.11060154  0.09546359  0.38146806  1
  Al  Al1  1  0.22209434  0.20104361  0.13108057  1
  Al  Al2  1  0.77719660  0.09343167  0.88317221  1
  Al  Al3  1  0.89064599  0.20200155  0.63259056  1
  Al  Al4  1  0.44430283  0.09368492  0.38125260  1
  Al  Al5  1  0.55985573  0.19695518  0.13290080  1
  Al  Al6  1  0.11100334  0.09466004  0.88369619  1
  Al  Al7  1  0.22401911  0.20200161  0.63259056  1
  Al  Al8  1  0.77867887  0.09368494  0.38125256  1
  Al  Al9  1  0.89352884  0.20104357  0.13108054  1
  Al  Al10  1  0.44603839  0.09343168  0.88317218  1
  Al  Al11  1  0.55893836  0.19878994  0.63153111  1
  Al  Al12  1  0.11098608  0.42468517  0.39079546  1
  Al  Al13  1  0.78485306  0.42333385  0.87521152  1
  Al  Al14  1  0.88805473  0.54055731  0.63288763  1
  Al  Al15  1  0.44598513  0.42469637  0.39904843  1
  Al  Al16  1  0.10847983  0.42333390  0.87521161  1
  Al  Al17  1  0.21895586  0.54072777  0.63230543  1
  Al  Al18  1  0.78099546  0.42468513  0.39079553  1
  Al  Al19  1  0.89242113  0.53182449  0.13125147  1
  Al  Al20  1  0.44843815  0.41979043  0.86636776  1
  Al  Al21  1  0.55698308  0.54072774  0.63230542  1
  Al  Al22  1  0.10966455  0.76389012  0.39036980  1
  Al  Al23  1  0.21559209  0.88548246  0.13150177  1
  Al  Al24  1  0.77803338  0.76059985  0.88258334  1
  Al  Al25  1  0.88563824  0.87363425  0.63235330  1
  Al  Al26  1  0.44311196  0.76389008  0.39036975  1
  Al  Al27  1  0.55336834  0.87774998  0.13144213  1
  Al  Al28  1  0.10572098  0.77158394  0.87496626  1
  Al  Al29  1  0.21998786  0.87669097  0.63165226  1
  Al  Al30  1  0.77848486  0.75969686  0.38020432  1
  Al  Al31  1  0.88554827  0.87775002  0.13144214  1
  Al  Al32  1  0.43936172  0.77158387  0.87496633  1
  Al  Al33  1  0.55739413  0.87363420  0.63235332  1
  Gd  Gd34  1  0.21759394  0.54146702  0.12500167  1
  Gd  Gd35  1  0.55760602  0.54146685  0.12500167  1
  N  N36  1  0.22230166  0.20618557  0.32685469  1
  N  N37  1  0.10964702  0.09737273  0.07733422  1
  N  N38  1  0.89030621  0.20123548  0.82506567  1
  N  N39  1  0.77906494  0.09296051  0.57418071  1
  N  N40  1  0.55485300  0.20696063  0.32923337  1
  N  N41  1  0.44517784  0.09428252  0.07826333  1
  N  N42  1  0.22512499  0.20123556  0.82506569  1
  N  N43  1  0.11059736  0.09547195  0.57422241  1
  N  N44  1  0.88817947  0.20618557  0.32685468  1
  N  N45  1  0.77720627  0.09428256  0.07826336  1
  N  N46  1  0.55987707  0.19691258  0.82148275  1
  N  N47  1  0.44464119  0.09296048  0.57418075  1
  N  N48  1  0.22316317  0.53825599  0.35517673  1
  N  N49  1  0.10053756  0.40987806  0.06579894  1
  N  N50  1  0.88734401  0.54197877  0.82369721  1
  N  N51  1  0.78156887  0.42473640  0.58342343  1
  N  N52  1  0.55524758  0.53825593  0.35517674  1
  N  N53  1  0.46091058  0.39484559  0.05445817  1
  N  N54  1  0.21774545  0.54254585  0.83072137  1
  N  N55  1  0.11036142  0.42473643  0.58342337  1
  N  N56  1  0.89023237  0.53620193  0.32783611  1
  N  N57  1  0.80625129  0.40987795  0.06579883  1
  N  N58  1  0.55637549  0.54254583  0.83072136  1
  N  N59  1  0.44621323  0.42424018  0.59213250  1
  N  N60  1  0.22247933  0.87170797  0.32850819  1
  N  N61  1  0.09445017  0.79664839  0.06537492  1
  N  N62  1  0.88421545  0.87406626  0.82483354  1
  N  N63  1  0.77817023  0.76032611  0.57404185  1
  N  N64  1  0.55558633  0.87089053  0.32652454  1
  N  N65  1  0.42556808  0.79664823  0.06537499  1
  N  N66  1  0.21942745  0.87781180  0.82154867  1
  N  N67  1  0.10852073  0.76492127  0.58280180  1
  N  N68  1  0.89018977  0.87089053  0.32652455  1
  N  N69  1  0.77950619  0.75765419  0.07870746  1
  N  N70  1  0.55838490  0.87406623  0.82483357  1
  N  N71  1  0.44322462  0.76492122  0.58280176  1
