# generated using pymatgen
data_GdAl17N18
_symmetry_space_group_name_H-M   'P 1'
_cell_length_a   9.96449421
_cell_length_b   10.01527095
_cell_length_c   8.76274932
_cell_angle_alpha   90.01248580
_cell_angle_beta   90.00000255
_cell_angle_gamma   60.16759375
_symmetry_Int_Tables_number   1
_chemical_formula_structural   GdAl17N18
_chemical_formula_sum   'Gd2 Al34 N36'
_cell_volume   758.61237753
_cell_formula_units_Z   2
loop_
 _symmetry_equiv_pos_site_id
 _symmetry_equiv_pos_as_xyz
  1  'x, y, z'
loop_
 _atom_site_type_symbol
 _atom_site_label
 _atom_site_symmetry_multiplicity
 _atom_site_fract_x
 _atom_site_fract_y
 _atom_site_fract_z
 _atom_site_occupancy
  Al  Al0  1  0.10963355  0.09739993  0.36765336  1
  Al  Al1  1  0.22291629  0.20066377  0.11552676  1
  Al  Al2  1  0.77730862  0.09299303  0.86565960  1
  Al  Al3  1  0.89072045  0.20125147  0.61633481  1
  Al  Al4  1  0.44431508  0.09307682  0.36700432  1
  Al  Al5  1  0.56123691  0.19419298  0.12008380  1
  Al  Al6  1  0.11102626  0.09461452  0.86587853  1
  Al  Al7  1  0.22469497  0.20125167  0.61633472  1
  Al  Al8  1  0.77927481  0.09307704  0.36700429  1
  Al  Al9  1  0.89308724  0.20066353  0.11552679  1
  Al  Al10  1  0.44636519  0.09299294  0.86565947  1
  Al  Al11  1  0.55943552  0.19779589  0.61398360  1
  Al  Al12  1  0.11013714  0.42265542  0.37603309  1
  Al  Al13  1  0.78485779  0.42296477  0.85413368  1
  Al  Al14  1  0.88787790  0.54091120  0.61540538  1
  Al  Al15  1  0.44730014  0.42206639  0.38352297  1
  Al  Al16  1  0.10884439  0.42296501  0.85413381  1
  Al  Al17  1  0.21911115  0.54081315  0.61052178  1
  Al  Al18  1  0.78387445  0.42265529  0.37603356  1
  Al  Al19  1  0.89176770  0.53313156  0.11609093  1
  Al  Al20  1  0.44888811  0.41889036  0.84718105  1
  Al  Al21  1  0.55674255  0.54081300  0.61052182  1
  Al  Al22  1  0.10686868  0.76818992  0.37568972  1
  Al  Al23  1  0.21521062  0.88624499  0.11939346  1
  Al  Al24  1  0.77835148  0.75996324  0.86638502  1
  Al  Al25  1  0.88482249  0.87355174  0.61598940  1
  Al  Al26  1  0.44160769  0.76818961  0.37568930  1
  Al  Al27  1  0.55393797  0.87754630  0.11586521  1
  Al  Al28  1  0.10623614  0.77150230  0.85408797  1
  Al  Al29  1  0.21921624  0.87823411  0.61310425  1
  Al  Al30  1  0.77845301  0.75976012  0.36434033  1
  Al  Al31  1  0.88518172  0.87754648  0.11586539  1
  Al  Al32  1  0.43892784  0.77150185  0.85408817  1
  Al  Al33  1  0.55829202  0.87355156  0.61598943  1
  Gd  Gd34  1  0.21652198  0.54272143  0.10696164  1
  Gd  Gd35  1  0.55742422  0.54272065  0.10696163  1
  N  N36  1  0.22326538  0.20488453  0.34521041  1
  N  N37  1  0.10964008  0.09738705  0.09443659  1
  N  N38  1  0.89013971  0.20102787  0.84097458  1
  N  N39  1  0.77993004  0.09196635  0.59094705  1
  N  N40  1  0.55633655  0.20399367  0.34918704  1
  N  N41  1  0.44561587  0.09355856  0.09500753  1
  N  N42  1  0.22549926  0.20102818  0.84097469  1
  N  N43  1  0.10973414  0.09719875  0.59116832  1
  N  N44  1  0.88851717  0.20488451  0.34521038  1
  N  N45  1  0.77749229  0.09355876  0.09500761  1
  N  N46  1  0.55968974  0.19728737  0.83535048  1
  N  N47  1  0.44477051  0.09196622  0.59094721  1
  N  N48  1  0.22137637  0.53983300  0.37227236  1
  N  N49  1  0.10122911  0.41067937  0.08663253  1
  N  N50  1  0.88747153  0.54172406  0.83895163  1
  N  N51  1  0.78305395  0.42323580  0.59977978  1
  N  N52  1  0.55545775  0.53983259  0.37227237  1
  N  N53  1  0.46018385  0.39629897  0.07865336  1
  N  N54  1  0.21825261  0.54243364  0.83489626  1
  N  N55  1  0.11037710  0.42323589  0.59977953  1
  N  N56  1  0.88977006  0.53712668  0.34772582  1
  N  N57  1  0.80475906  0.41067894  0.08663192  1
  N  N58  1  0.55598073  0.54243338  0.83489627  1
  N  N59  1  0.44733001  0.42200662  0.60462046  1
  N  N60  1  0.22077309  0.87512004  0.35078229  1
  N  N61  1  0.09568674  0.79551891  0.08696867  1
  N  N62  1  0.88419609  0.87369829  0.84140608  1
  N  N63  1  0.77825613  0.76015388  0.59036031  1
  N  N64  1  0.55660851  0.87215344  0.34449994  1
  N  N65  1  0.42546069  0.79551816  0.08696916  1
  N  N66  1  0.21919091  0.87828465  0.83452621  1
  N  N67  1  0.10691032  0.76664905  0.59875494  1
  N  N68  1  0.88790418  0.87215356  0.34450002  1
  N  N69  1  0.77960748  0.75745116  0.09631606  1
  N  N70  1  0.55877177  0.87369804  0.84140629  1
  N  N71  1  0.44310698  0.76664878  0.59875472  1
