# generated using pymatgen
data_GdAl17N18
_symmetry_space_group_name_H-M   'P 1'
_cell_length_a   9.64080433
_cell_length_b   9.67686879
_cell_length_c   9.72458830
_cell_angle_alpha   89.95468788
_cell_angle_beta   90.00000085
_cell_angle_gamma   60.12321854
_symmetry_Int_Tables_number   1
_chemical_formula_structural   GdAl17N18
_chemical_formula_sum   'Gd2 Al34 N36'
_cell_volume   786.66113093
_cell_formula_units_Z   2
loop_
 _symmetry_equiv_pos_site_id
 _symmetry_equiv_pos_as_xyz
  1  'x, y, z'
loop_
 _atom_site_type_symbol
 _atom_site_label
 _atom_site_symmetry_multiplicity
 _atom_site_fract_x
 _atom_site_fract_y
 _atom_site_fract_z
 _atom_site_occupancy
  Al  Al0  1  0.11107114  0.09452442  0.32635887  1
  Al  Al1  1  0.22207144  0.20114369  0.07915757  1
  Al  Al2  1  0.77886779  0.09361848  0.82923245  1
  Al  Al3  1  0.89077980  0.20162792  0.57761057  1
  Al  Al4  1  0.44627401  0.09326089  0.32679677  1
  Al  Al5  1  0.55992618  0.19681434  0.07689241  1
  Al  Al6  1  0.11037170  0.09592332  0.82884436  1
  Al  Al7  1  0.22425903  0.20162790  0.57761057  1
  Al  Al8  1  0.77713179  0.09326090  0.32679681  1
  Al  Al9  1  0.89345161  0.20114363  0.07915756  1
  Al  Al10  1  0.44418042  0.09361845  0.82923250  1
  Al  Al11  1  0.55937605  0.19791458  0.57923133  1
  Al  Al12  1  0.10836991  0.42321362  0.33596376  1
  Al  Al13  1  0.78130633  0.42443364  0.81926724  1
  Al  Al14  1  0.88788239  0.54090191  0.57757786  1
  Al  Al15  1  0.44866184  0.41934302  0.34611831  1
  Al  Al16  1  0.11092672  0.42443368  0.81926718  1
  Al  Al17  1  0.21856356  0.54103339  0.57931167  1
  Al  Al18  1  0.78508319  0.42321360  0.33596368  1
  Al  Al19  1  0.89250610  0.53165452  0.07875237  1
  Al  Al20  1  0.44608356  0.42449955  0.81080628  1
  Al  Al21  1  0.55706982  0.54103331  0.57931167  1
  Al  Al22  1  0.10555698  0.77199780  0.33603675  1
  Al  Al23  1  0.21557618  0.88551426  0.07814820  1
  Al  Al24  1  0.77847256  0.75972148  0.83046428  1
  Al  Al25  1  0.88527815  0.87375257  0.57790066  1
  Al  Al26  1  0.43911184  0.77199777  0.33603681  1
  Al  Al27  1  0.55328216  0.87758821  0.07874578  1
  Al  Al28  1  0.10927782  0.76441607  0.81981532  1
  Al  Al29  1  0.21973176  0.87720312  0.57912795  1
  Al  Al30  1  0.77805423  0.76055815  0.32722143  1
  Al  Al31  1  0.88579619  0.87758825  0.07874575  1
  Al  Al32  1  0.44297275  0.76441604  0.81981528  1
  Al  Al33  1  0.55763593  0.87375255  0.57790065  1
  Gd  Gd34  1  0.21789879  0.54132392  0.08731492  1
  Gd  Gd35  1  0.55744402  0.54132391  0.08731492  1
  N  N36  1  0.22539492  0.20088195  0.38258588  1
  N  N37  1  0.10968831  0.09729010  0.13002199  1
  N  N38  1  0.88810908  0.20628095  0.88078201  1
  N  N39  1  0.77933789  0.09272004  0.63383979  1
  N  N40  1  0.56027423  0.19611824  0.38675325  1
  N  N41  1  0.44531032  0.09412220  0.12905411  1
  N  N42  1  0.22227667  0.20628101  0.88078202  1
  N  N43  1  0.11041474  0.09583723  0.63365536  1
  N  N44  1  0.89038989  0.20088195  0.38258588  1
  N  N45  1  0.77723415  0.09412220  0.12905415  1
  N  N46  1  0.55484876  0.20696920  0.87790772  1
  N  N47  1  0.44460877  0.09272001  0.63383983  1
  N  N48  1  0.21741099  0.54285909  0.37741648  1
  N  N49  1  0.10047918  0.40978252  0.14196820  1
  N  N50  1  0.89026550  0.53613576  0.87949730  1
  N  N51  1  0.78191005  0.42443469  0.62387727  1
  N  N52  1  0.55639671  0.54285904  0.37741648  1
  N  N53  1  0.46125390  0.39415890  0.15406183  1
  N  N54  1  0.22302385  0.53847022  0.85213966  1
  N  N55  1  0.11032196  0.42443471  0.62387720  1
  N  N56  1  0.88717011  0.54232647  0.38419661  1
  N  N57  1  0.80640503  0.40978247  0.14196812  1
  N  N58  1  0.55517266  0.53847020  0.85213966  1
  N  N59  1  0.44638679  0.42389307  0.61458595  1
  N  N60  1  0.21923386  0.87819890  0.38667371  1
  N  N61  1  0.09454162  0.79688513  0.14224603  1
  N  N62  1  0.89004857  0.87101112  0.88113818  1
  N  N63  1  0.77813501  0.76039659  0.63406125  1
  N  N64  1  0.55861693  0.87413901  0.38280225  1
  N  N65  1  0.42523983  0.79688509  0.14224609  1
  N  N66  1  0.22224624  0.87217421  0.87849315  1
  N  N67  1  0.10811851  0.76539470  0.62469649  1
  N  N68  1  0.88391071  0.87413900  0.38280226  1
  N  N69  1  0.77957421  0.75751813  0.12856518  1
  N  N70  1  0.55560695  0.87101109  0.88113820  1
  N  N71  1  0.44315341  0.76539466  0.62469645  1
