# generated using pymatgen
data_GdAl17N18
_symmetry_space_group_name_H-M   'P 1'
_cell_length_a   9.49323394
_cell_length_b   9.51113995
_cell_length_c   10.14333303
_cell_angle_alpha   89.91029618
_cell_angle_beta   90.00000002
_cell_angle_gamma   60.06225816
_symmetry_Int_Tables_number   1
_chemical_formula_structural   GdAl17N18
_chemical_formula_sum   'Gd2 Al34 N36'
_cell_volume   793.65083529
_cell_formula_units_Z   2
loop_
 _symmetry_equiv_pos_site_id
 _symmetry_equiv_pos_as_xyz
  1  'x, y, z'
loop_
 _atom_site_type_symbol
 _atom_site_label
 _atom_site_symmetry_multiplicity
 _atom_site_fract_x
 _atom_site_fract_y
 _atom_site_fract_z
 _atom_site_occupancy
  Al  Al0  1  0.11093150  0.09480368  0.29614533  1
  Al  Al1  1  0.22182813  0.20122287  0.04860516  1
  Al  Al2  1  0.77826747  0.09395443  0.79779004  1
  Al  Al3  1  0.89060950  0.20251482  0.54653169  1
  Al  Al4  1  0.44536785  0.09398745  0.29662685  1
  Al  Al5  1  0.55927292  0.19812080  0.04761176  1
  Al  Al6  1  0.11116368  0.09433930  0.79792529  1
  Al  Al7  1  0.22354233  0.20251483  0.54653170  1
  Al  Al8  1  0.77731135  0.09398745  0.29662685  1
  Al  Al9  1  0.89361566  0.20122287  0.04860516  1
  Al  Al10  1  0.44444475  0.09395443  0.79779004  1
  Al  Al11  1  0.55819555  0.20027555  0.54605800  1
  Al  Al12  1  0.10894697  0.42422325  0.30276904  1
  Al  Al13  1  0.78148591  0.42466411  0.78766571  1
  Al  Al14  1  0.88822561  0.54021547  0.54531003  1
  Al  Al15  1  0.44737217  0.42192233  0.30892315  1
  Al  Al16  1  0.11051664  0.42466413  0.78766571  1
  Al  Al17  1  0.21961854  0.54006936  0.54589356  1
  Al  Al18  1  0.78349646  0.42422325  0.30276904  1
  Al  Al19  1  0.89201147  0.53264372  0.04911615  1
  Al  Al20  1  0.44623404  0.42419859  0.77896827  1
  Al  Al21  1  0.55697878  0.54006936  0.54589356  1
  Al  Al22  1  0.10656869  0.76961489  0.30310913  1
  Al  Al23  1  0.21600959  0.88464750  0.04928702  1
  Al  Al24  1  0.77845965  0.75974736  0.79841115  1
  Al  Al25  1  0.88608780  0.87371899  0.54661466  1
  Al  Al26  1  0.44048309  0.76961489  0.30310913  1
  Al  Al27  1  0.55341665  0.87816311  0.04815783  1
  Al  Al28  1  0.10997718  0.76363600  0.78781348  1
  Al  Al29  1  0.22039860  0.87586949  0.54600431  1
  Al  Al30  1  0.77780227  0.76106211  0.29743687  1
  Al  Al31  1  0.88508692  0.87816312  0.04815782  1
  Al  Al32  1  0.44305350  0.76363599  0.78781348  1
  Al  Al33  1  0.55685988  0.87371898  0.54661466  1
  Gd  Gd34  1  0.21666994  0.54167100  0.04697580  1
  Gd  Gd35  1  0.55832571  0.54167101  0.04697580  1
  N  N36  1  0.22451461  0.20197177  0.35808884  1
  N  N37  1  0.10969390  0.09727887  0.10662132  1
  N  N38  1  0.88840147  0.20604333  0.85660722  1
  N  N39  1  0.77835202  0.09369478  0.60847008  1
  N  N40  1  0.55888765  0.19889136  0.35999021  1
  N  N41  1  0.44463371  0.09503007  0.10559360  1
  N  N42  1  0.22222186  0.20604334  0.85660722  1
  N  N43  1  0.11100215  0.09466236  0.60874054  1
  N  N44  1  0.89018030  0.20197176  0.35808884  1
  N  N45  1  0.77700288  0.09503006  0.10559360  1
  N  N46  1  0.55473588  0.20719489  0.85507928  1
  N  N47  1  0.44461986  0.09369478  0.60847008  1
  N  N48  1  0.21846721  0.54181135  0.35317314  1
  N  N49  1  0.10088145  0.41096722  0.11736753  1
  N  N50  1  0.89019084  0.53628500  0.85615452  1
  N  N51  1  0.78172644  0.42503073  0.59975627  1
  N  N52  1  0.55638812  0.54181136  0.35317314  1
  N  N53  1  0.45898080  0.39870507  0.12631679  1
  N  N54  1  0.22334126  0.53765008  0.82459544  1
  N  N55  1  0.10990951  0.42503074  0.59975627  1
  N  N56  1  0.88750512  0.54165644  0.35870508  1
  N  N57  1  0.80481799  0.41096722  0.11736752  1
  N  N58  1  0.55567533  0.53765007  0.82459543  1
  N  N59  1  0.44618218  0.42430232  0.59162758  1
  N  N60  1  0.22001546  0.87663575  0.36019736  1
  N  N61  1  0.09493849  0.79452045  0.11770411  1
  N  N62  1  0.89063239  0.87058112  0.85676292  1
  N  N63  1  0.77813075  0.76040516  0.60841004  1
  N  N64  1  0.55778521  0.87401297  0.35822644  1
  N  N65  1  0.42720773  0.79452045  0.11770411  1
  N  N66  1  0.22320395  0.87025879  0.85593593  1
  N  N67  1  0.10886178  0.76480090  0.60000777  1
  N  N68  1  0.88486849  0.87401297  0.35822644  1
  N  N69  1  0.77906063  0.75854540  0.10512550  1
  N  N70  1  0.55545316  0.87058113  0.85676292  1
  N  N71  1  0.44300399  0.76480089  0.60000777  1
