# generated using pymatgen
data_GdAl17N18
_symmetry_space_group_name_H-M   'P 1'
_cell_length_a   9.79045417
_cell_length_b   9.83484950
_cell_length_c   9.28602750
_cell_angle_alpha   90.03276305
_cell_angle_beta   90.00000242
_cell_angle_gamma   60.14923097
_symmetry_Int_Tables_number   1
_chemical_formula_structural   GdAl17N18
_chemical_formula_sum   'Gd2 Al34 N36'
_cell_volume   775.50065337
_cell_formula_units_Z   2
loop_
 _symmetry_equiv_pos_site_id
 _symmetry_equiv_pos_as_xyz
  1  'x, y, z'
loop_
 _atom_site_type_symbol
 _atom_site_label
 _atom_site_symmetry_multiplicity
 _atom_site_fract_x
 _atom_site_fract_y
 _atom_site_fract_z
 _atom_site_occupancy
  Al  Al0  1  0.10981234  0.09704208  0.37549717  1
  Al  Al1  1  0.22222653  0.20137345  0.12523338  1
  Al  Al2  1  0.77693642  0.09303463  0.87778788  1
  Al  Al3  1  0.89116086  0.20071654  0.62693301  1
  Al  Al4  1  0.44398355  0.09328771  0.37512168  1
  Al  Al5  1  0.56025493  0.19615676  0.12916992  1
  Al  Al6  1  0.11124365  0.09417952  0.87831458  1
  Al  Al7  1  0.22478931  0.20071668  0.62693299  1
  Al  Al8  1  0.77939538  0.09328780  0.37512155  1
  Al  Al9  1  0.89306695  0.20137338  0.12523334  1
  Al  Al10  1  0.44669566  0.09303460  0.87778776  1
  Al  Al11  1  0.56000164  0.19666349  0.62396115  1
  Al  Al12  1  0.11061574  0.42335272  0.38618615  1
  Al  Al13  1  0.78515098  0.42315359  0.86541187  1
  Al  Al14  1  0.88751670  0.54163346  0.62623185  1
  Al  Al15  1  0.44664668  0.42337331  0.39436668  1
  Al  Al16  1  0.10836221  0.42315370  0.86541212  1
  Al  Al17  1  0.21834564  0.54125882  0.62051729  1
  Al  Al18  1  0.78269831  0.42335265  0.38618637  1
  Al  Al19  1  0.89258220  0.53150239  0.12617073  1
  Al  Al20  1  0.44888255  0.41890157  0.85443880  1
  Al  Al21  1  0.55706226  0.54125878  0.62051730  1
  Al  Al22  1  0.10795599  0.76619522  0.38551252  1
  Al  Al23  1  0.21558704  0.88549238  0.12805075  1
  Al  Al24  1  0.77817211  0.76032230  0.87820972  1
  Al  Al25  1  0.88443410  0.87388906  0.62657578  1
  Al  Al26  1  0.44251529  0.76619512  0.38551232  1
  Al  Al27  1  0.55312385  0.87740489  0.12570568  1
  Al  Al28  1  0.10563933  0.77233777  0.86563864  1
  Al  Al29  1  0.21914828  0.87837014  0.62369203  1
  Al  Al30  1  0.77844691  0.75977264  0.37283864  1
  Al  Al31  1  0.88613769  0.87740495  0.12570572  1
  Al  Al32  1  0.43868946  0.77233759  0.86563888  1
  Al  Al33  1  0.55834337  0.87388891  0.62657583  1
  Gd  Gd34  1  0.21759850  0.54175594  0.11383752  1
  Gd  Gd35  1  0.55731281  0.54175552  0.11383751  1
  N  N36  1  0.22248720  0.20619895  0.33370057  1
  N  N37  1  0.10976666  0.09713356  0.08508663  1
  N  N38  1  0.89061161  0.20016835  0.83158351  1
  N  N39  1  0.77991873  0.09213833  0.57984260  1
  N  N40  1  0.55522431  0.20621804  0.33807517  1
  N  N41  1  0.44562563  0.09386929  0.08575557  1
  N  N42  1  0.22588674  0.20016854  0.83158353  1
  N  N43  1  0.10995906  0.09674865  0.57990985  1
  N  N44  1  0.88798066  0.20619897  0.33370055  1
  N  N45  1  0.77717169  0.09386939  0.08575569  1
  N  N46  1  0.56057529  0.19551620  0.82619057  1
  N  N47  1  0.44460966  0.09213825  0.57984273  1
  N  N48  1  0.22237455  0.53903313  0.36467123  1
  N  N49  1  0.10063606  0.40997128  0.07238760  1
  N  N50  1  0.88683520  0.54299651  0.82932999  1
  N  N51  1  0.78284001  0.42354207  0.59156504  1
  N  N52  1  0.55525920  0.53903295  0.36467123  1
  N  N53  1  0.46121177  0.39424315  0.06123735  1
  N  N54  1  0.21724115  0.54318627  0.83376659  1
  N  N55  1  0.11028463  0.42354213  0.59156483  1
  N  N56  1  0.89036801  0.53593064  0.33589940  1
  N  N57  1  0.80605979  0.40997106  0.07238729  1
  N  N58  1  0.55623941  0.54318620  0.83376658  1
  N  N59  1  0.44692194  0.42282276  0.60059416  1
  N  N60  1  0.22173814  0.87319019  0.33813803  1
  N  N61  1  0.09500791  0.79690032  0.07244061  1
  N  N62  1  0.88330480  0.87418185  0.83152371  1
  N  N63  1  0.77810259  0.76046128  0.57892488  1
  N  N64  1  0.55572428  0.87134927  0.33319476  1
  N  N65  1  0.42475833  0.79689995  0.07244088  1
  N  N66  1  0.21884953  0.87896764  0.82573694  1
  N  N67  1  0.10712530  0.76642979  0.59034428  1
  N  N68  1  0.88959298  0.87134928  0.33319480  1
  N  N69  1  0.77969468  0.75727708  0.08687798  1
  N  N70  1  0.55917986  0.87418172  0.83152379  1
  N  N71  1  0.44311145  0.76642968  0.59034409  1
