# generated using pymatgen
data_GdAl17N18
_symmetry_space_group_name_H-M   'P 1'
_cell_length_a   9.49323204
_cell_length_b   9.51113933
_cell_length_c   10.14333836
_cell_angle_alpha   90.08970519
_cell_angle_beta   90.00000021
_cell_angle_gamma   60.06226284
_symmetry_Int_Tables_number   1
_chemical_formula_structural   GdAl17N18
_chemical_formula_sum   'Gd2 Al34 N36'
_cell_volume   793.65107937
_cell_formula_units_Z   2
loop_
 _symmetry_equiv_pos_site_id
 _symmetry_equiv_pos_as_xyz
  1  'x, y, z'
loop_
 _atom_site_type_symbol
 _atom_site_label
 _atom_site_symmetry_multiplicity
 _atom_site_fract_x
 _atom_site_fract_y
 _atom_site_fract_z
 _atom_site_occupancy
  Al  Al0  1  0.11120975  0.09424716  0.38932882  1
  Al  Al1  1  0.22187445  0.20113023  0.13864896  1
  Al  Al2  1  0.77735773  0.09389479  0.89062714  1
  Al  Al3  1  0.89065565  0.20242252  0.64072234  1
  Al  Al4  1  0.44449088  0.09386219  0.38946399  1
  Al  Al5  1  0.55931936  0.19802795  0.13964229  1
  Al  Al6  1  0.11097780  0.09471108  0.89110871  1
  Al  Al7  1  0.22358849  0.20242253  0.64072234  1
  Al  Al8  1  0.77831357  0.09386219  0.38946399  1
  Al  Al9  1  0.89366200  0.20113023  0.13864895  1
  Al  Al10  1  0.44541415  0.09389480  0.89062713  1
  Al  Al11  1  0.55824173  0.20018319  0.64119609  1
  Al  Al12  1  0.11056273  0.42457193  0.39958861  1
  Al  Al13  1  0.78354272  0.42413069  0.88448530  1
  Al  Al14  1  0.88827179  0.54012312  0.64194419  1
  Al  Al15  1  0.44628019  0.42410630  0.40828631  1
  Al  Al16  1  0.10899328  0.42413070  0.88448529  1
  Al  Al17  1  0.21966475  0.53997704  0.64136087  1
  Al  Al18  1  0.78153204  0.42457191  0.39958862  1
  Al  Al19  1  0.89205775  0.53255117  0.13813811  1
  Al  Al20  1  0.44741852  0.42182965  0.87833156  1
  Al  Al21  1  0.55702491  0.53997704  0.64136087  1
  Al  Al22  1  0.11002330  0.76354381  0.39944075  1
  Al  Al23  1  0.21605593  0.88455483  0.13796727  1
  Al  Al24  1  0.77784857  0.76096952  0.88981711  1
  Al  Al25  1  0.88613404  0.87362664  0.64063936  1
  Al  Al26  1  0.44309959  0.76354380  0.39944075  1
  Al  Al27  1  0.55346302  0.87807037  0.13909626  1
  Al  Al28  1  0.10661511  0.76952217  0.88414522  1
  Al  Al29  1  0.22044476  0.87577717  0.64124978  1
  Al  Al30  1  0.77850576  0.75965514  0.38884308  1
  Al  Al31  1  0.88513331  0.87807037  0.13909627  1
  Al  Al32  1  0.44052940  0.76952217  0.88414522  1
  Al  Al33  1  0.55690599  0.87362664  0.64063936  1
  Gd  Gd34  1  0.21671637  0.54157817  0.14027904  1
  Gd  Gd35  1  0.55837214  0.54157818  0.14027904  1
  N  N36  1  0.22226797  0.20595118  0.33064692  1
  N  N37  1  0.10974027  0.09718615  0.08063282  1
  N  N38  1  0.89022657  0.20187924  0.82916524  1
  N  N39  1  0.77839818  0.09360245  0.57878397  1
  N  N40  1  0.55478198  0.20710269  0.33217482  1
  N  N41  1  0.44468004  0.09493729  0.08166047  1
  N  N42  1  0.22456087  0.20187926  0.82916524  1
  N  N43  1  0.11104829  0.09457008  0.57851353  1
  N  N44  1  0.88844753  0.20595117  0.33064692  1
  N  N45  1  0.77704934  0.09493729  0.08166047  1
  N  N46  1  0.55893395  0.19879878  0.82726393  1
  N  N47  1  0.44466602  0.09360246  0.57878397  1
  N  N48  1  0.22338742  0.53755787  0.36265918  1
  N  N49  1  0.10092779  0.41087462  0.06988677  1
  N  N50  1  0.88755142  0.54156385  0.82854913  1
  N  N51  1  0.78177257  0.42493845  0.58749801  1
  N  N52  1  0.55572141  0.53755786  0.36265919  1
  N  N53  1  0.45902716  0.39861236  0.06093778  1
  N  N54  1  0.21851360  0.54171872  0.83408126  1
  N  N55  1  0.10995567  0.42493846  0.58749800  1
  N  N56  1  0.89023696  0.53619277  0.33109973  1
  N  N57  1  0.80486427  0.41087462  0.06988678  1
  N  N58  1  0.55643438  0.54171873  0.83408126  1
  N  N59  1  0.44622837  0.42420996  0.59562686  1
  N  N60  1  0.22325003  0.87016665  0.33131833  1
  N  N61  1  0.09498505  0.79442746  0.06955029  1
  N  N62  1  0.88491491  0.87392033  0.82902763  1
  N  N63  1  0.77817692  0.76031282  0.57884414  1
  N  N64  1  0.55549930  0.87048887  0.33049124  1
  N  N65  1  0.42725417  0.79442747  0.06955029  1
  N  N66  1  0.22006177  0.87654314  0.82705681  1
  N  N67  1  0.10890799  0.76470856  0.58724644  1
  N  N68  1  0.89067852  0.87048886  0.33049125  1
  N  N69  1  0.77910697  0.75845275  0.08212856  1
  N  N70  1  0.55783144  0.87392033  0.82902763  1
  N  N71  1  0.44305013  0.76470855  0.58724644  1
