# generated using pymatgen
data_GdAl17N18
_symmetry_space_group_name_H-M   'P 1'
_cell_length_a   9.88363921
_cell_length_b   9.93173980
_cell_length_c   9.00696193
_cell_angle_alpha   90.02232016
_cell_angle_beta   90.00000256
_cell_angle_gamma   60.16010096
_symmetry_Int_Tables_number   1
_chemical_formula_structural   GdAl17N18
_chemical_formula_sum   'Gd2 Al34 N36'
_cell_volume   766.91902889
_cell_formula_units_Z   2
loop_
 _symmetry_equiv_pos_site_id
 _symmetry_equiv_pos_as_xyz
  1  'x, y, z'
loop_
 _atom_site_type_symbol
 _atom_site_label
 _atom_site_symmetry_multiplicity
 _atom_site_fract_x
 _atom_site_fract_y
 _atom_site_fract_z
 _atom_site_occupancy
  Al  Al0  1  0.10959518  0.09747648  0.37185758  1
  Al  Al1  1  0.22249867  0.20117450  0.12094104  1
  Al  Al2  1  0.77700383  0.09299208  0.87273842  1
  Al  Al3  1  0.89106603  0.20072369  0.62236460  1
  Al  Al4  1  0.44402809  0.09314714  0.37133798  1
  Al  Al5  1  0.56069905  0.19526857  0.12563574  1
  Al  Al6  1  0.11123092  0.09420506  0.87315869  1
  Al  Al7  1  0.22487704  0.20072386  0.62236456  1
  Al  Al8  1  0.77949143  0.09314728  0.37133786  1
  Al  Al9  1  0.89299387  0.20117438  0.12094101  1
  Al  Al10  1  0.44667085  0.09299202  0.87273828  1
  Al  Al11  1  0.55988945  0.19688792  0.61910294  1
  Al  Al12  1  0.11039953  0.42286422  0.38203823  1
  Al  Al13  1  0.78501933  0.42311813  0.85970120  1
  Al  Al14  1  0.88755783  0.54155125  0.62135546  1
  Al  Al15  1  0.44697823  0.42271023  0.38982369  1
  Al  Al16  1  0.10852937  0.42311829  0.85970146  1
  Al  Al17  1  0.21863561  0.54111361  0.61489095  1
  Al  Al18  1  0.78340310  0.42286413  0.38203854  1
  Al  Al19  1  0.89228410  0.53209864  0.12195757  1
  Al  Al20  1  0.44893424  0.41879817  0.85015851  1
  Al  Al21  1  0.55691754  0.54111354  0.61489096  1
  Al  Al22  1  0.10726441  0.76723884  0.38143477  1
  Al  Al23  1  0.21546744  0.88573150  0.12471116  1
  Al  Al24  1  0.77826961  0.76012722  0.87349336  1
  Al  Al25  1  0.88439214  0.87380551  0.62199900  1
  Al  Al26  1  0.44216317  0.76723868  0.38143447  1
  Al  Al27  1  0.55339418  0.87740507  0.12141723  1
  Al  Al28  1  0.10594729  0.77204778  0.85988021  1
  Al  Al29  1  0.21906009  0.87854649  0.61850192  1
  Al  Al30  1  0.77842354  0.75981928  0.36867996  1
  Al  Al31  1  0.88586704  0.87740516  0.12141731  1
  Al  Al32  1  0.43867141  0.77204749  0.85988047  1
  Al  Al33  1  0.55846879  0.87380533  0.62199906  1
  Gd  Gd34  1  0.21713078  0.54219515  0.10972444  1
  Gd  Gd35  1  0.55734145  0.54219460  0.10972443  1
  N  N36  1  0.22278625  0.20573793  0.33873029  1
  N  N37  1  0.10975468  0.09715762  0.08951413  1
  N  N38  1  0.89049077  0.20031407  0.83583898  1
  N  N39  1  0.78004775  0.09196775  0.58451637  1
  N  N40  1  0.55568078  0.20530514  0.34346004  1
  N  N41  1  0.44570179  0.09370846  0.09012557  1
  N  N42  1  0.22586191  0.20031432  0.83583902  1
  N  N43  1  0.10976109  0.09714468  0.58464290  1
  N  N44  1  0.88814273  0.20573794  0.33873027  1
  N  N45  1  0.77725638  0.09370860  0.09012571  1
  N  N46  1  0.56029046  0.19608590  0.83000233  1
  N  N47  1  0.44465128  0.09196764  0.58451652  1
  N  N48  1  0.22189287  0.53941533  0.36927361  1
  N  N49  1  0.10089006  0.41032974  0.07824830  1
  N  N50  1  0.88697632  0.54271434  0.83343905  1
  N  N51  1  0.78304712  0.42327278  0.59594250  1
  N  N52  1  0.55535877  0.53941506  0.36927361  1
  N  N53  1  0.46080258  0.39506153  0.06864263  1
  N  N54  1  0.21761688  0.54294888  0.83456652  1
  N  N55  1  0.11034684  0.42327286  0.59594224  1
  N  N56  1  0.89019099  0.53628472  0.34135357  1
  N  N57  1  0.80544746  0.41032945  0.07824788  1
  N  N58  1  0.55610112  0.54294875  0.83456652  1
  N  N59  1  0.44715124  0.42236416  0.60329407  1
  N  N60  1  0.22129866  0.87406904  0.34431148  1
  N  N61  1  0.09541088  0.79631820  0.07852083  1
  N  N62  1  0.88349376  0.87401728  0.83598036  1
  N  N63  1  0.77813684  0.76039267  0.58350744  1
  N  N64  1  0.55604534  0.87170976  0.33812413  1
  N  N65  1  0.42493740  0.79631771  0.07852119  1
  N  N66  1  0.21890126  0.87886413  0.82925349  1
  N  N67  1  0.10685865  0.76663827  0.59468805  1
  N  N68  1  0.88891130  0.87170981  0.33812420  1
  N  N69  1  0.77968230  0.75730173  0.09151287  1
  N  N70  1  0.55915536  0.87401709  0.83598048  1
  N  N71  1  0.44316955  0.76663809  0.59468782  1
