# generated using pymatgen
data_GdAl17N18
_symmetry_space_group_name_H-M   'P 1'
_cell_length_a   10.03931376
_cell_length_b   10.09228031
_cell_length_c   8.54150071
_cell_angle_alpha   90.01193324
_cell_angle_beta   90.00000241
_cell_angle_gamma   60.17348247
_symmetry_Int_Tables_number   1
_chemical_formula_structural   GdAl17N18
_chemical_formula_sum   'Gd2 Al34 N36'
_cell_volume   750.78343546
_cell_formula_units_Z   2
loop_
 _symmetry_equiv_pos_site_id
 _symmetry_equiv_pos_as_xyz
  1  'x, y, z'
loop_
 _atom_site_type_symbol
 _atom_site_label
 _atom_site_symmetry_multiplicity
 _atom_site_fract_x
 _atom_site_fract_y
 _atom_site_fract_z
 _atom_site_occupancy
  Al  Al0  1  0.11007762  0.09651242  0.36008901  1
  Al  Al1  1  0.22336077  0.20001506  0.10680724  1
  Al  Al2  1  0.77805961  0.09308923  0.85421241  1
  Al  Al3  1  0.89026191  0.20210722  0.60692404  1
  Al  Al4  1  0.44514051  0.09290961  0.35940876  1
  Al  Al5  1  0.56188220  0.19290312  0.10777054  1
  Al  Al6  1  0.11047280  0.09572177  0.85445231  1
  Al  Al7  1  0.22429731  0.20210738  0.60692374  1
  Al  Al8  1  0.77861632  0.09290994  0.35940919  1
  Al  Al9  1  0.89329241  0.20001399  0.10680750  1
  Al  Al10  1  0.44551777  0.09308907  0.85421245  1
  Al  Al11  1  0.55872382  0.19921972  0.60591061  1
  Al  Al12  1  0.10957392  0.42260042  0.36633754  1
  Al  Al13  1  0.78481560  0.42253874  0.84701338  1
  Al  Al14  1  0.88837564  0.53991623  0.60669765  1
  Al  Al15  1  0.44816991  0.42032635  0.37037452  1
  Al  Al16  1  0.10931364  0.42253895  0.84701299  1
  Al  Al17  1  0.21982361  0.54032144  0.60543196  1
  Al  Al18  1  0.78449357  0.42260046  0.36633820  1
  Al  Al19  1  0.89120034  0.53426709  0.10670661  1
  Al  Al20  1  0.44830784  0.42005041  0.84097562  1
  Al  Al21  1  0.55652224  0.54032118  0.60543207  1
  Al  Al22  1  0.10651646  0.76966555  0.36664460  1
  Al  Al23  1  0.21489787  0.88687078  0.10856350  1
  Al  Al24  1  0.77844207  0.75978105  0.85550724  1
  Al  Al25  1  0.88557000  0.87313996  0.60684136  1
  Al  Al26  1  0.44048356  0.76966451  0.36664405  1
  Al  Al27  1  0.55456616  0.87781421  0.10672831  1
  Al  Al28  1  0.10637600  0.77071954  0.84700964  1
  Al  Al29  1  0.21953529  0.87759710  0.60640441  1
  Al  Al30  1  0.77849820  0.75966899  0.35761255  1
  Al  Al31  1  0.88428426  0.87781483  0.10672864  1
  Al  Al32  1  0.43956934  0.77071856  0.84700971  1
  Al  Al33  1  0.55795540  0.87314082  0.60684125  1
  Gd  Gd34  1  0.21554825  0.54341984  0.10478545  1
  Gd  Gd35  1  0.55770069  0.54341820  0.10478544  1
  N  N36  1  0.22419031  0.20336550  0.35516869  1
  N  N37  1  0.10942268  0.09782289  0.10245933  1
  N  N38  1  0.88959909  0.20245729  0.84933732  1
  N  N39  1  0.77964661  0.09205785  0.60212246  1
  N  N40  1  0.55799999  0.20066678  0.35856280  1
  N  N41  1  0.44532899  0.09335469  0.10262366  1
  N  N42  1  0.22461053  0.20245780  0.84933760  1
  N  N43  1  0.10987197  0.09692315  0.60165282  1
  N  N44  1  0.88911161  0.20336534  0.35516855  1
  N  N45  1  0.77798325  0.09335492  0.10262357  1
  N  N46  1  0.55818214  0.20030251  0.84637297  1
  N  N47  1  0.44496223  0.09205824  0.60212264  1
  N  N48  1  0.21999199  0.54084567  0.37399548  1
  N  N49  1  0.10151217  0.41091206  0.10058283  1
  N  N50  1  0.88837784  0.53991241  0.84805861  1
  N  N51  1  0.78313452  0.42328959  0.60382762  1
  N  N52  1  0.55582987  0.54084483  0.37399552  1
  N  N53  1  0.45934085  0.39798520  0.10185819  1
  N  N54  1  0.21985159  0.54116412  0.83489324  1
  N  N55  1  0.11024328  0.42328960  0.60382741  1
  N  N56  1  0.88894016  0.53878741  0.35656917  1
  N  N57  1  0.80424461  0.41091115  0.10058175  1
  N  N58  1  0.55565152  0.54116349  0.83489325  1
  N  N59  1  0.44758198  0.42150293  0.60419066  1
  N  N60  1  0.22008900  0.87648781  0.35919660  1
  N  N61  1  0.09571670  0.79472366  0.10045624  1
  N  N62  1  0.88544209  0.87315615  0.85009780  1
  N  N63  1  0.77846242  0.75974055  0.60169608  1
  N  N64  1  0.55751415  0.87275523  0.35436654  1
  N  N65  1  0.42622591  0.79472181  0.10045680  1
  N  N66  1  0.21966405  0.87733744  0.84437545  1
  N  N67  1  0.10714215  0.76676619  0.60354659  1
  N  N68  1  0.88639578  0.87275560  0.35436662  1
  N  N69  1  0.77948391  0.75769761  0.10303357  1
  N  N70  1  0.55806689  0.87315573  0.85009821  1
  N  N71  1  0.44275828  0.76676577  0.60354651  1
