# generated using pymatgen
data_GdAl17N18
_symmetry_space_group_name_H-M   'P 1'
_cell_length_a   9.96432985
_cell_length_b   10.01466522
_cell_length_c   8.76411245
_cell_angle_alpha   90.00218337
_cell_angle_beta   90.00000284
_cell_angle_gamma   60.16614702
_symmetry_Int_Tables_number   1
_chemical_formula_structural   GdAl17N18
_chemical_formula_sum   'Gd2 Al34 N36'
_cell_volume   758.66102080
_cell_formula_units_Z   2
loop_
 _symmetry_equiv_pos_site_id
 _symmetry_equiv_pos_as_xyz
  1  'x, y, z'
loop_
 _atom_site_type_symbol
 _atom_site_label
 _atom_site_symmetry_multiplicity
 _atom_site_fract_x
 _atom_site_fract_y
 _atom_site_fract_z
 _atom_site_occupancy
  Al  Al0  1  0.11102010  0.09462676  0.34362374  1
  Al  Al1  1  0.22280426  0.20065042  0.09361649  1
  Al  Al2  1  0.77917597  0.09325623  0.84234370  1
  Al  Al3  1  0.89057625  0.20132797  0.59278266  1
  Al  Al4  1  0.44641296  0.09287800  0.34312384  1
  Al  Al5  1  0.56112661  0.19441371  0.08896384  1
  Al  Al6  1  0.10963638  0.09739437  0.84119497  1
  Al  Al7  1  0.22476287  0.20132794  0.59278243  1
  Al  Al8  1  0.77737583  0.09287809  0.34312417  1
  Al  Al9  1  0.89321258  0.20065007  0.09361648  1
  Al  Al10  1  0.44423471  0.09325606  0.84234389  1
  Al  Al11  1  0.55963407  0.19739869  0.59479662  1
  Al  Al12  1  0.10882678  0.42305113  0.35482815  1
  Al  Al13  1  0.78388658  0.42267656  0.83321209  1
  Al  Al14  1  0.88790562  0.54085557  0.59369225  1
  Al  Al15  1  0.44904281  0.41858100  0.36212259  1
  Al  Al16  1  0.11010387  0.42267668  0.83321165  1
  Al  Al17  1  0.21876383  0.54103477  0.59833286  1
  Al  Al18  1  0.78478909  0.42305099  0.35482817  1
  Al  Al19  1  0.89167539  0.53331630  0.09306909  1
  Al  Al20  1  0.44721150  0.42224373  0.82400102  1
  Al  Al21  1  0.55686845  0.54103452  0.59833287  1
  Al  Al22  1  0.10624016  0.77134423  0.35490450  1
  Al  Al23  1  0.21518751  0.88629130  0.08997329  1
  Al  Al24  1  0.77843363  0.75979886  0.84453508  1
  Al  Al25  1  0.88487968  0.87365374  0.59328971  1
  Al  Al26  1  0.43908177  0.77134397  0.35490439  1
  Al  Al27  1  0.55407461  0.87743270  0.09310696  1
  Al  Al28  1  0.10687217  0.76828993  0.83380174  1
  Al  Al29  1  0.21928210  0.87810220  0.59601144  1
  Al  Al30  1  0.77832015  0.76002588  0.34300103  1
  Al  Al31  1  0.88515858  0.87743293  0.09310688  1
  Al  Al32  1  0.44150424  0.76828961  0.83380154  1
  Al  Al33  1  0.55813282  0.87365373  0.59328945  1
  Gd  Gd34  1  0.21703977  0.54234188  0.10204310  1
  Gd  Gd35  1  0.55728560  0.54234144  0.10204313  1
  N  N36  1  0.22558880  0.20110684  0.36809808  1
  N  N37  1  0.10964235  0.09738244  0.11503529  1
  N  N38  1  0.88865175  0.20488126  0.86391992  1
  N  N39  1  0.77991832  0.09201851  0.61856809  1
  N  N40  1  0.56004104  0.19658468  0.37409949  1
  N  N41  1  0.44561532  0.09355049  0.11387655  1
  N  N42  1  0.22313391  0.20488154  0.86392012  1
  N  N43  1  0.10972934  0.09720840  0.61753773  1
  N  N44  1  0.88997141  0.20110685  0.36809812  1
  N  N45  1  0.77750096  0.09355065  0.11387670  1
  N  N46  1  0.55601966  0.20462758  0.86028056  1
  N  N47  1  0.44473008  0.09201839  0.61856832  1
  N  N48  1  0.21788047  0.54263496  0.37420462  1
  N  N49  1  0.10122560  0.41077399  0.12217973  1
  N  N50  1  0.88968989  0.53728742  0.86132465  1
  N  N51  1  0.78306259  0.42327233  0.60944075  1
  N  N52  1  0.55615166  0.54263462  0.37420462  1
  N  N53  1  0.46036029  0.39594610  0.13289571  1
  N  N54  1  0.22165608  0.53971781  0.83672505  1
  N  N55  1  0.11033197  0.42327235  0.60944051  1
  N  N56  1  0.88751199  0.54164282  0.37005356  1
  N  N57  1  0.80466770  0.41077369  0.12217916  1
  N  N58  1  0.55529306  0.53971762  0.83672508  1
  N  N59  1  0.44734844  0.42196984  0.60368425  1
  N  N60  1  0.21930218  0.87806181  0.37433903  1
  N  N61  1  0.09577773  0.79525300  0.12157644  1
  N  N62  1  0.88776592  0.87219702  0.86451621  1
  N  N63  1  0.77823327  0.76019957  0.61844283  1
  N  N64  1  0.55862072  0.87371767  0.36769667  1
  N  N65  1  0.42563551  0.79525250  0.12157678  1
  N  N66  1  0.22065912  0.87534822  0.85829473  1
  N  N67  1  0.10689908  0.76671135  0.61055160  1
  N  N68  1  0.88432771  0.87371774  0.36769680  1
  N  N69  1  0.77957166  0.75752279  0.11296544  1
  N  N70  1  0.55670325  0.87219677  0.86451644  1
  N  N71  1  0.44305589  0.76671115  0.61055145  1
