# generated using pymatgen
data_GdAl17N18
_symmetry_space_group_name_H-M   'P 1'
_cell_length_a   9.49323529
_cell_length_b   9.51114155
_cell_length_c   10.14333564
_cell_angle_alpha   89.91028744
_cell_angle_beta   90.00000001
_cell_angle_gamma   60.06225902
_symmetry_Int_Tables_number   1
_chemical_formula_structural   GdAl17N18
_chemical_formula_sum   'Gd2 Al34 N36'
_cell_volume   793.65129271
_cell_formula_units_Z   2
loop_
 _symmetry_equiv_pos_site_id
 _symmetry_equiv_pos_as_xyz
  1  'x, y, z'
loop_
 _atom_site_type_symbol
 _atom_site_label
 _atom_site_symmetry_multiplicity
 _atom_site_fract_x
 _atom_site_fract_y
 _atom_site_fract_z
 _atom_site_occupancy
  Al  Al0  1  0.11093309  0.09480048  0.29731624  1
  Al  Al1  1  0.22182970  0.20121969  0.04977514  1
  Al  Al2  1  0.77826887  0.09395133  0.79896033  1
  Al  Al3  1  0.89061098  0.20251182  0.54770261  1
  Al  Al4  1  0.44536933  0.09398425  0.29779788  1
  Al  Al5  1  0.55927461  0.19811742  0.04878224  1
  Al  Al6  1  0.11116520  0.09433626  0.79909528  1
  Al  Al7  1  0.22354385  0.20251183  0.54770261  1
  Al  Al8  1  0.77731307  0.09398425  0.29779788  1
  Al  Al9  1  0.89361727  0.20121970  0.04977514  1
  Al  Al10  1  0.44444644  0.09395134  0.79896032  1
  Al  Al11  1  0.55819699  0.20027268  0.54722837  1
  Al  Al12  1  0.10894845  0.42422013  0.30393901  1
  Al  Al13  1  0.78148742  0.42466097  0.78883586  1
  Al  Al14  1  0.88822726  0.54021216  0.54648075  1
  Al  Al15  1  0.44737368  0.42191932  0.31009115  1
  Al  Al16  1  0.11051827  0.42466099  0.78883586  1
  Al  Al17  1  0.21962022  0.54006619  0.54706317  1
  Al  Al18  1  0.78349810  0.42422012  0.30393901  1
  Al  Al19  1  0.89201297  0.53264072  0.05028557  1
  Al  Al20  1  0.44623567  0.42419532  0.78013766  1
  Al  Al21  1  0.55698028  0.54006618  0.54706317  1
  Al  Al22  1  0.10657033  0.76961177  0.30427930  1
  Al  Al23  1  0.21601108  0.88464452  0.05045660  1
  Al  Al24  1  0.77846113  0.75974439  0.79958075  1
  Al  Al25  1  0.88608949  0.87371587  0.54778560  1
  Al  Al26  1  0.44048458  0.76961177  0.30427930  1
  Al  Al27  1  0.55341829  0.87816003  0.04932823  1
  Al  Al28  1  0.10997869  0.76363290  0.78898379  1
  Al  Al29  1  0.22040022  0.87586625  0.54717519  1
  Al  Al30  1  0.77780389  0.76105887  0.29860792  1
  Al  Al31  1  0.88508836  0.87816004  0.04932822  1
  Al  Al32  1  0.44305509  0.76363289  0.78898380  1
  Al  Al33  1  0.55686130  0.87371587  0.54778560  1
  Gd  Gd34  1  0.21667102  0.54166819  0.04814458  1
  Gd  Gd35  1  0.55832744  0.54166820  0.04814458  1
  N  N36  1  0.22451607  0.20196877  0.35925941  1
  N  N37  1  0.10969547  0.09727572  0.10779136  1
  N  N38  1  0.88840303  0.20604019  0.85777692  1
  N  N39  1  0.77835343  0.09369174  0.60964036  1
  N  N40  1  0.55888898  0.19888870  0.36116006  1
  N  N41  1  0.44463518  0.09502697  0.10676389  1
  N  N42  1  0.22222343  0.20604020  0.85777692  1
  N  N43  1  0.11100371  0.09465924  0.60991078  1
  N  N44  1  0.89018185  0.20196876  0.35925941  1
  N  N45  1  0.77700451  0.09502697  0.10676389  1
  N  N46  1  0.55473745  0.20719174  0.85624928  1
  N  N47  1  0.44462148  0.09369175  0.60964035  1
  N  N48  1  0.21846896  0.54180811  0.35434221  1
  N  N49  1  0.10088296  0.41096422  0.11853705  1
  N  N50  1  0.89019232  0.53628204  0.85732389  1
  N  N51  1  0.78172784  0.42502768  0.60092628  1
  N  N52  1  0.55638961  0.54180811  0.35434221  1
  N  N53  1  0.45898206  0.39870254  0.12748489  1
  N  N54  1  0.22334295  0.53764690  0.82576440  1
  N  N55  1  0.10991116  0.42502768  0.60092628  1
  N  N56  1  0.88750677  0.54165314  0.35987557  1
  N  N57  1  0.80481948  0.41096422  0.11853705  1
  N  N58  1  0.55567683  0.53764689  0.82576439  1
  N  N59  1  0.44618370  0.42429927  0.59279694  1
  N  N60  1  0.22001709  0.87663248  0.36136781  1
  N  N61  1  0.09494020  0.79451726  0.11887379  1
  N  N62  1  0.89063391  0.87057795  0.85793280  1
  N  N63  1  0.77813230  0.76040206  0.60958004  1
  N  N64  1  0.55778668  0.87400974  0.35939709  1
  N  N65  1  0.42720921  0.79451726  0.11887379  1
  N  N66  1  0.22320547  0.87025575  0.85710547  1
  N  N67  1  0.10886342  0.76479764  0.60117791  1
  N  N68  1  0.88487024  0.87400974  0.35939709  1
  N  N69  1  0.77906224  0.75854220  0.10629584  1
  N  N70  1  0.55545481  0.87057796  0.85793280  1
  N  N71  1  0.44300561  0.76479764  0.60117791  1
