# generated using pymatgen
data_GdAl17N18
_symmetry_space_group_name_H-M   'P 1'
_cell_length_a   9.92587965
_cell_length_b   9.97542459
_cell_length_c   8.87938943
_cell_angle_alpha   90.01718954
_cell_angle_beta   90.00000258
_cell_angle_gamma   60.16418350
_symmetry_Int_Tables_number   1
_chemical_formula_structural   GdAl17N18
_chemical_formula_sum   'Gd2 Al34 N36'
_cell_volume   762.65871200
_cell_formula_units_Z   2
loop_
 _symmetry_equiv_pos_site_id
 _symmetry_equiv_pos_as_xyz
  1  'x, y, z'
loop_
 _atom_site_type_symbol
 _atom_site_label
 _atom_site_symmetry_multiplicity
 _atom_site_fract_x
 _atom_site_fract_y
 _atom_site_fract_z
 _atom_site_occupancy
  Al  Al0  1  0.10957867  0.09750958  0.36986698  1
  Al  Al1  1  0.22269622  0.20094789  0.11839546  1
  Al  Al2  1  0.77712511  0.09299012  0.86946128  1
  Al  Al3  1  0.89091577  0.20093501  0.61953580  1
  Al  Al4  1  0.44413965  0.09310509  0.36926900  1
  Al  Al5  1  0.56096193  0.19474285  0.12316813  1
  Al  Al6  1  0.11115436  0.09435823  0.86978706  1
  Al  Al7  1  0.22481604  0.20093519  0.61953574  1
  Al  Al8  1  0.77942195  0.09310526  0.36926890  1
  Al  Al9  1  0.89302304  0.20094773  0.11839546  1
  Al  Al10  1  0.44655156  0.09299005  0.86946113  1
  Al  Al11  1  0.55969415  0.19727856  0.61656274  1
  Al  Al12  1  0.11028293  0.42273188  0.37927062  1
  Al  Al13  1  0.78493827  0.42305789  0.85689264  1
  Al  Al14  1  0.88768868  0.54128957  0.61850980  1
  Al  Al15  1  0.44713133  0.42240401  0.38690425  1
  Al  Al16  1  0.10867071  0.42305809  0.85689285  1
  Al  Al17  1  0.21885859  0.54097795  0.61257240  1
  Al  Al18  1  0.78365209  0.42273178  0.37927100  1
  Al  Al19  1  0.89204217  0.53258255  0.11925707  1
  Al  Al20  1  0.44892909  0.41880844  0.84856194  1
  Al  Al21  1  0.55683025  0.54097785  0.61257242  1
  Al  Al22  1  0.10703526  0.76770713  0.37876881  1
  Al  Al23  1  0.21535120  0.88596392  0.12235737  1
  Al  Al24  1  0.77831410  0.76003816  0.87024358  1
  Al  Al25  1  0.88455710  0.87369736  0.61917631  1
  Al  Al26  1  0.44192398  0.76770691  0.37876845  1
  Al  Al27  1  0.55364312  0.87746083  0.11882556  1
  Al  Al28  1  0.10610454  0.77179873  0.85696193  1
  Al  Al29  1  0.21911222  0.87844220  0.61579453  1
  Al  Al30  1  0.77843101  0.75980424  0.36656342  1
  Al  Al31  1  0.88556222  0.87746096  0.11882568  1
  Al  Al32  1  0.43876314  0.77179838  0.85696217  1
  Al  Al33  1  0.55841190  0.87369717  0.61917635  1
  Gd  Gd34  1  0.21684334  0.54244956  0.10817934  1
  Gd  Gd35  1  0.55737458  0.54244892  0.10817933  1
  N  N36  1  0.22300367  0.20535588  0.34178100  1
  N  N37  1  0.10971009  0.09724688  0.09187903  1
  N  N38  1  0.89033925  0.20060770  0.83827490  1
  N  N39  1  0.78001519  0.09194999  0.58749464  1
  N  N40  1  0.55597989  0.20470693  0.34627947  1
  N  N41  1  0.44568000  0.09363401  0.09247830  1
  N  N42  1  0.22571984  0.20060798  0.83827496  1
  N  N43  1  0.10972516  0.09721659  0.58767274  1
  N  N44  1  0.88830742  0.20535588  0.34178097  1
  N  N45  1  0.77735265  0.09363417  0.09247843  1
  N  N46  1  0.56002374  0.19661936  0.83244385  1
  N  N47  1  0.44470166  0.09194986  0.58749480  1
  N  N48  1  0.22164452  0.53961512  0.37097069  1
  N  N49  1  0.10105626  0.41051476  0.08210890  1
  N  N50  1  0.88718488  0.54229728  0.83599059  1
  N  N51  1  0.78306041  0.42323248  0.59794298  1
  N  N52  1  0.55540739  0.53961479  0.37097069  1
  N  N53  1  0.46051268  0.39564131  0.07329254  1
  N  N54  1  0.21790781  0.54272094  0.83477812  1
  N  N55  1  0.11037389  0.42323257  0.59794272  1
  N  N56  1  0.89001054  0.53664565  0.34443194  1
  N  N57  1  0.80509635  0.41051441  0.08210839  1
  N  N58  1  0.55603818  0.54272076  0.83477812  1
  N  N59  1  0.44724164  0.42218335  0.60411046  1
  N  N60  1  0.22104433  0.87457765  0.34754188  1
  N  N61  1  0.09557287  0.79592848  0.08244673  1
  N  N62  1  0.88378922  0.87387459  0.83855118  1
  N  N63  1  0.77818638  0.76029350  0.58663084  1
  N  N64  1  0.55629895  0.87192559  0.34112090  1
  N  N65  1  0.42516509  0.79592789  0.08244715  1
  N  N66  1  0.21902180  0.87862298  0.83162987  1
  N  N67  1  0.10685306  0.76664991  0.59677306  1
  N  N68  1  0.88844176  0.87192566  0.34112097  1
  N  N69  1  0.77965125  0.75736376  0.09387651  1
  N  N70  1  0.55900250  0.87387438  0.83855134  1
  N  N71  1  0.44316344  0.76664969  0.59677283  1
