# generated using pymatgen
data_GdAl17N18
_symmetry_space_group_name_H-M   'P 1'
_cell_length_a   9.49323507
_cell_length_b   9.51114227
_cell_length_c   10.14333477
_cell_angle_alpha   90.08969101
_cell_angle_beta   90.00000015
_cell_angle_gamma   60.06226244
_symmetry_Int_Tables_number   1
_chemical_formula_structural   GdAl17N18
_chemical_formula_sum   'Gd2 Al34 N36'
_cell_volume   793.65129454
_cell_formula_units_Z   2
loop_
 _symmetry_equiv_pos_site_id
 _symmetry_equiv_pos_as_xyz
  1  'x, y, z'
loop_
 _atom_site_type_symbol
 _atom_site_label
 _atom_site_symmetry_multiplicity
 _atom_site_fract_x
 _atom_site_fract_y
 _atom_site_fract_z
 _atom_site_occupancy
  Al  Al0  1  0.11122559  0.09421549  0.40135142  1
  Al  Al1  1  0.22189011  0.20109833  0.15066967  1
  Al  Al2  1  0.77737371  0.09386325  0.90264508  1
  Al  Al3  1  0.89067106  0.20239141  0.65274059  1
  Al  Al4  1  0.44450695  0.09383047  0.40148570  1
  Al  Al5  1  0.55933550  0.19799567  0.15166021  1
  Al  Al6  1  0.11099363  0.09467944  0.90312620  1
  Al  Al7  1  0.22360419  0.20239142  0.65274059  1
  Al  Al8  1  0.77832923  0.09383047  0.40148570  1
  Al  Al9  1  0.89367824  0.20109833  0.15066967  1
  Al  Al10  1  0.44542971  0.09386325  0.90264508  1
  Al  Al11  1  0.55825735  0.20015196  0.65321404  1
  Al  Al12  1  0.11057892  0.42454000  0.41160390  1
  Al  Al13  1  0.78355888  0.42409915  0.89650095  1
  Al  Al14  1  0.88828793  0.54009084  0.65395931  1
  Al  Al15  1  0.44629628  0.42407412  0.42029966  1
  Al  Al16  1  0.10900868  0.42409915  0.89650095  1
  Al  Al17  1  0.21968077  0.53994522  0.65337422  1
  Al  Al18  1  0.78154778  0.42453998  0.41160390  1
  Al  Al19  1  0.89207350  0.53251967  0.15015890  1
  Al  Al20  1  0.44743432  0.42179804  0.89034607  1
  Al  Al21  1  0.55704071  0.53994522  0.65337422  1
  Al  Al22  1  0.11003893  0.76351218  0.41145649  1
  Al  Al23  1  0.21607150  0.88452370  0.14998798  1
  Al  Al24  1  0.77786470  0.76093727  0.90183623  1
  Al  Al25  1  0.88615060  0.87359448  0.65265849  1
  Al  Al26  1  0.44311559  0.76351217  0.41145649  1
  Al  Al27  1  0.55347878  0.87803883  0.15111702  1
  Al  Al28  1  0.10663106  0.76949051  0.89616175  1
  Al  Al29  1  0.22046114  0.87574441  0.65326711  1
  Al  Al30  1  0.77852132  0.75962403  0.40086551  1
  Al  Al31  1  0.88514909  0.87803883  0.15111703  1
  Al  Al32  1  0.44054512  0.76949051  0.89616175  1
  Al  Al33  1  0.55692160  0.87359448  0.65265849  1
  Gd  Gd34  1  0.21673295  0.54154594  0.15229398  1
  Gd  Gd35  1  0.55838779  0.54154595  0.15229398  1
  N  N36  1  0.22228417  0.20591843  0.34266734  1
  N  N37  1  0.10975607  0.09715454  0.09265154  1
  N  N38  1  0.89024238  0.20184769  0.84118293  1
  N  N39  1  0.77841415  0.09357048  0.59080423  1
  N  N40  1  0.55479837  0.20706992  0.34419349  1
  N  N41  1  0.44469556  0.09490546  0.09367934  1
  N  N42  1  0.22457662  0.20184770  0.84118293  1
  N  N43  1  0.11106418  0.09453831  0.59053423  1
  N  N44  1  0.88846407  0.20591842  0.34266734  1
  N  N45  1  0.77706566  0.09490545  0.09367934  1
  N  N46  1  0.55894994  0.19876681  0.83928140  1
  N  N47  1  0.44468203  0.09357048  0.59080423  1
  N  N48  1  0.22340303  0.53752638  0.37467467  1
  N  N49  1  0.10094311  0.41084274  0.08190453  1
  N  N50  1  0.88756725  0.54153220  0.84056490  1
  N  N51  1  0.78178848  0.42490644  0.59951350  1
  N  N52  1  0.55573728  0.53752637  0.37467468  1
  N  N53  1  0.45904370  0.39857929  0.07295316  1
  N  N54  1  0.21852932  0.54168707  0.84609647  1
  N  N55  1  0.10997178  0.42490644  0.59951349  1
  N  N56  1  0.89025240  0.53616190  0.34311947  1
  N  N57  1  0.80488084  0.41084274  0.08190454  1
  N  N58  1  0.55645032  0.54168708  0.84609648  1
  N  N59  1  0.44624446  0.42417777  0.60764109  1
  N  N60  1  0.22326529  0.87013612  0.34333810  1
  N  N61  1  0.09500068  0.79439631  0.08156853  1
  N  N62  1  0.88493077  0.87388853  0.84104622  1
  N  N63  1  0.77819253  0.76028161  0.59086444  1
  N  N64  1  0.55551550  0.87045778  0.34251171  1
  N  N65  1  0.42726970  0.79439631  0.08156853  1
  N  N66  1  0.22007766  0.87651136  0.83907408  1
  N  N67  1  0.10892368  0.76467692  0.59926256  1
  N  N68  1  0.89069341  0.87045778  0.34251172  1
  N  N69  1  0.77912284  0.75842101  0.09414824  1
  N  N70  1  0.55784737  0.87388854  0.84104622  1
  N  N71  1  0.44306610  0.76467691  0.59926256  1
