# generated using pymatgen
data_GdAl17N18
_symmetry_space_group_name_H-M   'P 1'
_cell_length_a   9.61425982
_cell_length_b   9.64858795
_cell_length_c   9.80036784
_cell_angle_alpha   90.05358472
_cell_angle_beta   90.00000206
_cell_angle_gamma   60.11763514
_symmetry_Int_Tables_number   1
_chemical_formula_structural   GdAl17N18
_chemical_formula_sum   'Gd2 Al34 N36'
_cell_volume   788.25357685
_cell_formula_units_Z   2
loop_
 _symmetry_equiv_pos_site_id
 _symmetry_equiv_pos_as_xyz
  1  'x, y, z'
loop_
 _atom_site_type_symbol
 _atom_site_label
 _atom_site_symmetry_multiplicity
 _atom_site_fract_x
 _atom_site_fract_y
 _atom_site_fract_z
 _atom_site_occupancy
  Al  Al0  1  0.11049056  0.09568555  0.38086620  1
  Al  Al1  1  0.22209898  0.20109472  0.13055476  1
  Al  Al2  1  0.77715817  0.09334990  0.88276093  1
  Al  Al3  1  0.89072522  0.20180378  0.63206524  1
  Al  Al4  1  0.44425419  0.09363676  0.38061646  1
  Al  Al5  1  0.55988946  0.19688772  0.13260282  1
  Al  Al6  1  0.11103336  0.09459999  0.88328547  1
  Al  Al7  1  0.22413765  0.20180385  0.63206524  1
  Al  Al8  1  0.77877566  0.09363680  0.38061641  1
  Al  Al9  1  0.89347310  0.20109467  0.13055473  1
  Al  Al10  1  0.44615858  0.09334990  0.88276089  1
  Al  Al11  1  0.55914237  0.19838194  0.63073458  1
  Al  Al12  1  0.11097879  0.42456217  0.39032781  1
  Al  Al13  1  0.78499180  0.42325395  0.87421394  1
  Al  Al14  1  0.88797119  0.54072440  0.63222291  1
  Al  Al15  1  0.44602684  0.42461297  0.39862227  1
  Al  Al16  1  0.10842099  0.42325401  0.87421405  1
  Al  Al17  1  0.21878313  0.54086457  0.63113834  1
  Al  Al18  1  0.78112576  0.42456213  0.39032789  1
  Al  Al19  1  0.89248189  0.53170298  0.13083768  1
  Al  Al20  1  0.44855451  0.41955769  0.86480619  1
  Al  Al21  1  0.55701902  0.54086453  0.63113833  1
  Al  Al22  1  0.10948679  0.76412141  0.38984999  1
  Al  Al23  1  0.21557504  0.88551654  0.13125565  1
  Al  Al24  1  0.77804837  0.76056986  0.88228051  1
  Al  Al25  1  0.88545248  0.87367816  0.63180497  1
  Al  Al26  1  0.44305843  0.76412136  0.38984992  1
  Al  Al27  1  0.55330968  0.87769227  0.13092463  1
  Al  Al28  1  0.10561617  0.77183480  0.87403666  1
  Al  Al29  1  0.21985601  0.87695468  0.63083277  1
  Al  Al30  1  0.77848688  0.75969281  0.37942695  1
  Al  Al31  1  0.88566463  0.87769231  0.13092464  1
  Al  Al32  1  0.43921567  0.77183472  0.87403675  1
  Al  Al33  1  0.55753596  0.87367810  0.63180499  1
  Gd  Gd34  1  0.21769657  0.54144994  0.12336181  1
  Gd  Gd35  1  0.55752051  0.54144972  0.12336182  1
  N  N36  1  0.22230749  0.20622553  0.32756264  1
  N  N37  1  0.10965939  0.09734800  0.07820939  1
  N  N38  1  0.89036065  0.20104789  0.82575682  1
  N  N39  1  0.77920192  0.09282850  0.57471575  1
  N  N40  1  0.55486562  0.20693540  0.33018881  1
  N  N41  1  0.44525047  0.09421167  0.07910865  1
  N  N42  1  0.22525814  0.20104799  0.82575684  1
  N  N43  1  0.11050968  0.09564731  0.57477803  1
  N  N44  1  0.88813369  0.20622553  0.32756263  1
  N  N45  1  0.77720448  0.09421172  0.07910869  1
  N  N46  1  0.56006019  0.19654634  0.82189657  1
  N  N47  1  0.44463623  0.09282846  0.57471580  1
  N  N48  1  0.22308803  0.53836345  0.35593358  1
  N  N49  1  0.10050871  0.40980241  0.06642191  1
  N  N50  1  0.88725734  0.54215214  0.82426394  1
  N  N51  1  0.78172522  0.42458262  0.58428654  1
  N  N52  1  0.55521527  0.53836338  0.35593359  1
  N  N53  1  0.46108357  0.39449960  0.05477664  1
  N  N54  1  0.21758780  0.54270250  0.83123193  1
  N  N55  1  0.11035885  0.42458266  0.58428646  1
  N  N56  1  0.89026174  0.53614320  0.32868420  1
  N  N57  1  0.80635583  0.40980228  0.06642177  1
  N  N58  1  0.55637649  0.54270247  0.83123192  1
  N  N59  1  0.44629466  0.42407733  0.59322476  1
  N  N60  1  0.22237308  0.87192046  0.32951657  1
  N  N61  1  0.09445857  0.79684440  0.06604586  1
  N  N62  1  0.88404395  0.87410350  0.82553067  1
  N  N63  1  0.77816087  0.76034483  0.57448968  1
  N  N64  1  0.55559189  0.87094479  0.32720785  1
  N  N65  1  0.42536365  0.79684421  0.06604596  1
  N  N66  1  0.21931564  0.87803543  0.82194700  1
  N  N67  1  0.10832998  0.76513404  0.58357536  1
  N  N68  1  0.89012994  0.87094479  0.32720786  1
  N  N69  1  0.77954887  0.75756881  0.07960258  1
  N  N70  1  0.55851915  0.87410346  0.82553070  1
  N  N71  1  0.44320260  0.76513398  0.58357530  1
