# generated using pymatgen
data_GdAl17N18
_symmetry_space_group_name_H-M   'P 1'
_cell_length_a   9.49323617
_cell_length_b   9.51114265
_cell_length_c   10.14333586
_cell_angle_alpha   90.08971839
_cell_angle_beta   90.00000020
_cell_angle_gamma   60.06225994
_symmetry_Int_Tables_number   1
_chemical_formula_structural   GdAl17N18
_chemical_formula_sum   'Gd2 Al34 N36'
_cell_volume   793.65148327
_cell_formula_units_Z   2
loop_
 _symmetry_equiv_pos_site_id
 _symmetry_equiv_pos_as_xyz
  1  'x, y, z'
loop_
 _atom_site_type_symbol
 _atom_site_label
 _atom_site_symmetry_multiplicity
 _atom_site_fract_x
 _atom_site_fract_y
 _atom_site_fract_z
 _atom_site_occupancy
  Al  Al0  1  0.11123881  0.09418906  0.41116879  1
  Al  Al1  1  0.22190321  0.20107252  0.16048857  1
  Al  Al2  1  0.77738657  0.09383743  0.91246499  1
  Al  Al3  1  0.89068440  0.20236497  0.66256029  1
  Al  Al4  1  0.44452007  0.09380421  0.41130349  1
  Al  Al5  1  0.55934823  0.19797021  0.16148082  1
  Al  Al6  1  0.11100657  0.09465354  0.91294651  1
  Al  Al7  1  0.22361730  0.20236498  0.66256029  1
  Al  Al8  1  0.77834238  0.09380420  0.41130349  1
  Al  Al9  1  0.89369096  0.20107252  0.16048857  1
  Al  Al10  1  0.44544268  0.09383744  0.91246499  1
  Al  Al11  1  0.55827038  0.20012590  0.66303461  1
  Al  Al12  1  0.11059192  0.42451376  0.42142660  1
  Al  Al13  1  0.78357168  0.42407323  0.90632366  1
  Al  Al14  1  0.88830084  0.54006503  0.66378161  1
  Al  Al15  1  0.44630932  0.42404804  0.43012459  1
  Al  Al16  1  0.10902179  0.42407324  0.90632366  1
  Al  Al17  1  0.21969378  0.53991916  0.66319903  1
  Al  Al18  1  0.78156102  0.42451374  0.42142660  1
  Al  Al19  1  0.89208647  0.53249375  0.15997827  1
  Al  Al20  1  0.44744711  0.42177247  0.90017172  1
  Al  Al21  1  0.55705377  0.53991916  0.66319903  1
  Al  Al22  1  0.11005222  0.76348570  0.42127871  1
  Al  Al23  1  0.21608456  0.88449758  0.15980715  1
  Al  Al24  1  0.77787738  0.76091192  0.91165519  1
  Al  Al25  1  0.88616318  0.87356882  0.66247748  1
  Al  Al26  1  0.44312877  0.76348569  0.42127871  1
  Al  Al27  1  0.55349185  0.87801302  0.16093538  1
  Al  Al28  1  0.10664380  0.76946489  0.90598347  1
  Al  Al29  1  0.22047388  0.87571894  0.66308751  1
  Al  Al30  1  0.77853463  0.75959742  0.41068337  1
  Al  Al31  1  0.88516184  0.87801302  0.16093538  1
  Al  Al32  1  0.44055801  0.76946488  0.90598347  1
  Al  Al33  1  0.55693469  0.87356882  0.66247748  1
  Gd  Gd34  1  0.21674461  0.54152110  0.16211809  1
  Gd  Gd35  1  0.55840098  0.54152111  0.16211809  1
  N  N36  1  0.22229709  0.20589275  0.35248676  1
  N  N37  1  0.10976903  0.09712863  0.10247186  1
  N  N38  1  0.89025532  0.20182191  0.85100346  1
  N  N39  1  0.77842693  0.09354470  0.60062317  1
  N  N40  1  0.55481114  0.20704438  0.35401407  1
  N  N41  1  0.44470863  0.09487992  0.10349942  1
  N  N42  1  0.22458946  0.20182193  0.85100346  1
  N  N43  1  0.11107726  0.09451216  0.60035284  1
  N  N44  1  0.88847684  0.20589274  0.35248676  1
  N  N45  1  0.77707814  0.09487991  0.10349942  1
  N  N46  1  0.55896239  0.19874191  0.84910297  1
  N  N47  1  0.44469503  0.09354471  0.60062317  1
  N  N48  1  0.22341652  0.53749973  0.38449839  1
  N  N49  1  0.10095639  0.41081710  0.09172619  1
  N  N50  1  0.88758023  0.54150624  0.85038708  1
  N  N51  1  0.78180135  0.42488062  0.60933624  1
  N  N52  1  0.55575045  0.53749972  0.38449839  1
  N  N53  1  0.45905571  0.39855528  0.08277809  1
  N  N54  1  0.21854243  0.54166118  0.85592050  1
  N  N55  1  0.10998473  0.42488063  0.60933623  1
  N  N56  1  0.89026580  0.53613510  0.35293972  1
  N  N57  1  0.80489320  0.41081710  0.09172620  1
  N  N58  1  0.55646310  0.54166119  0.85592051  1
  N  N59  1  0.44625725  0.42415221  0.61746546  1
  N  N60  1  0.22327896  0.87010879  0.35315811  1
  N  N61  1  0.09501369  0.79437031  0.09138947  1
  N  N62  1  0.88494372  0.87386286  0.85086597  1
  N  N63  1  0.77820576  0.76025515  0.60068356  1
  N  N64  1  0.55552850  0.87043093  0.35233084  1
  N  N65  1  0.42728270  0.79437031  0.09138947  1
  N  N66  1  0.22009061  0.87648547  0.84889502  1
  N  N67  1  0.10893691  0.76465058  0.60908468  1
  N  N68  1  0.89070726  0.87043093  0.35233084  1
  N  N69  1  0.77913577  0.75839515  0.10396762  1
  N  N70  1  0.55786010  0.87386287  0.85086597  1
  N  N71  1  0.44307920  0.76465057  0.60908467  1
