# generated using pymatgen
data_GdAl17N18
_symmetry_space_group_name_H-M   'P 1'
_cell_length_a   9.49323346
_cell_length_b   9.51114031
_cell_length_c   10.14333456
_cell_angle_alpha   89.91032229
_cell_angle_beta   89.99999997
_cell_angle_gamma   60.06226116
_symmetry_Int_Tables_number   1
_chemical_formula_structural   GdAl17N18
_chemical_formula_sum   'Gd2 Al34 N36'
_cell_volume   793.65096895
_cell_formula_units_Z   2
loop_
 _symmetry_equiv_pos_site_id
 _symmetry_equiv_pos_as_xyz
  1  'x, y, z'
loop_
 _atom_site_type_symbol
 _atom_site_label
 _atom_site_symmetry_multiplicity
 _atom_site_fract_x
 _atom_site_fract_y
 _atom_site_fract_z
 _atom_site_occupancy
  Al  Al0  1  0.11094814  0.09477039  0.30868754  1
  Al  Al1  1  0.22184459  0.20118935  0.06114466  1
  Al  Al2  1  0.77828373  0.09392154  0.81032846  1
  Al  Al3  1  0.89062562  0.20248230  0.55907327  1
  Al  Al4  1  0.44538429  0.09395413  0.30916867  1
  Al  Al5  1  0.55928996  0.19808673  0.06015404  1
  Al  Al6  1  0.11118008  0.09430651  0.81046286  1
  Al  Al7  1  0.22355874  0.20248231  0.55907327  1
  Al  Al8  1  0.77732824  0.09395412  0.30916867  1
  Al  Al9  1  0.89363273  0.20118935  0.06114467  1
  Al  Al10  1  0.44446138  0.09392154  0.81032845  1
  Al  Al11  1  0.55821196  0.20024273  0.55860001  1
  Al  Al12  1  0.10896324  0.42419007  0.31531379  1
  Al  Al13  1  0.78150224  0.42463107  0.80021050  1
  Al  Al14  1  0.88824238  0.54018193  0.55785495  1
  Al  Al15  1  0.44738887  0.42188892  0.32146995  1
  Al  Al16  1  0.11053336  0.42463109  0.80021050  1
  Al  Al17  1  0.21963520  0.54003625  0.55844071  1
  Al  Al18  1  0.78351338  0.42419006  0.31531379  1
  Al  Al19  1  0.89202806  0.53261055  0.06165601  1
  Al  Al20  1  0.44625073  0.42416520  0.79151533  1
  Al  Al21  1  0.55699524  0.54003625  0.55844071  1
  Al  Al22  1  0.10658559  0.76958130  0.31565254  1
  Al  Al23  1  0.21602611  0.88461445  0.06182657  1
  Al  Al24  1  0.77847584  0.75971498  0.81094907  1
  Al  Al25  1  0.88610506  0.87368544  0.55915535  1
  Al  Al26  1  0.44049979  0.76958130  0.31565254  1
  Al  Al27  1  0.55343326  0.87812970  0.06069700  1
  Al  Al28  1  0.10999346  0.76360326  0.80035776  1
  Al  Al29  1  0.22041561  0.87583546  0.55854655  1
  Al  Al30  1  0.77781923  0.76102819  0.30997767  1
  Al  Al31  1  0.88510372  0.87812970  0.06069700  1
  Al  Al32  1  0.44306996  0.76360325  0.80035776  1
  Al  Al33  1  0.55687617  0.87368544  0.55915536  1
  Gd  Gd34  1  0.21668787  0.54163647  0.05952123  1
  Gd  Gd35  1  0.55834232  0.54163648  0.05952122  1
  N  N36  1  0.22453124  0.20193846  0.37063130  1
  N  N37  1  0.10971061  0.09724545  0.11916272  1
  N  N38  1  0.88841848  0.20600954  0.86914720  1
  N  N39  1  0.77836868  0.09366146  0.62101011  1
  N  N40  1  0.55890465  0.19885737  0.37253305  1
  N  N41  1  0.44465010  0.09499634  0.11813498  1
  N  N42  1  0.22223863  0.20600955  0.86914719  1
  N  N43  1  0.11101870  0.09462925  0.62128007  1
  N  N44  1  0.89019698  0.20193845  0.37063129  1
  N  N45  1  0.77702022  0.09499634  0.11813498  1
  N  N46  1  0.55475282  0.20716101  0.86762128  1
  N  N47  1  0.44463652  0.09366146  0.62101011  1
  N  N48  1  0.21848373  0.54177806  0.36571877  1
  N  N49  1  0.10089762  0.41093360  0.12991048  1
  N  N50  1  0.89020690  0.53625288  0.86869543  1
  N  N51  1  0.78174306  0.42499736  0.61230109  1
  N  N52  1  0.55640491  0.54177806  0.36571877  1
  N  N53  1  0.45899841  0.39866985  0.13886267  1
  N  N54  1  0.22335745  0.53761751  0.83714047  1
  N  N55  1  0.10992626  0.42499736  0.61230109  1
  N  N56  1  0.88752173  0.54162323  0.37124973  1
  N  N57  1  0.80483545  0.41093360  0.12991048  1
  N  N58  1  0.55569173  0.53761749  0.83714047  1
  N  N59  1  0.44619903  0.42426862  0.60417385  1
  N  N60  1  0.22003219  0.87660229  0.37273986  1
  N  N61  1  0.09495520  0.79448712  0.13024603  1
  N  N62  1  0.89064788  0.87054887  0.86930264  1
  N  N63  1  0.77814701  0.76037265  0.62095012  1
  N  N64  1  0.55780193  0.87397945  0.37076796  1
  N  N65  1  0.42722435  0.79448713  0.13024603  1
  N  N66  1  0.22321974  0.87022722  0.86847657  1
  N  N67  1  0.10887815  0.76476805  0.61255189  1
  N  N68  1  0.88488528  0.87397945  0.37076796  1
  N  N69  1  0.77907733  0.75851202  0.11766633  1
  N  N70  1  0.55546992  0.87054888  0.86930265  1
  N  N71  1  0.44302047  0.76476804  0.61255189  1
