# generated using pymatgen
data_GdAl17N18
_symmetry_space_group_name_H-M   'P 1'
_cell_length_a   9.69146475
_cell_length_b   9.73064045
_cell_length_c   9.57801162
_cell_angle_alpha   89.96178637
_cell_angle_beta   90.00000093
_cell_angle_gamma   60.13310310
_symmetry_Int_Tables_number   1
_chemical_formula_structural   GdAl17N18
_chemical_formula_sum   'Gd2 Al34 N36'
_cell_volume   783.28108487
_cell_formula_units_Z   2
loop_
 _symmetry_equiv_pos_site_id
 _symmetry_equiv_pos_as_xyz
  1  'x, y, z'
loop_
 _atom_site_type_symbol
 _atom_site_label
 _atom_site_symmetry_multiplicity
 _atom_site_fract_x
 _atom_site_fract_y
 _atom_site_fract_z
 _atom_site_occupancy
  Al  Al0  1  0.11113896  0.09438881  0.32754710  1
  Al  Al1  1  0.22207317  0.20125373  0.08051250  1
  Al  Al2  1  0.77905925  0.09352649  0.83072705  1
  Al  Al3  1  0.89092595  0.20126100  0.57888094  1
  Al  Al4  1  0.44646542  0.09314425  0.32793886  1
  Al  Al5  1  0.55998962  0.19668749  0.07772490  1
  Al  Al6  1  0.11016679  0.09633317  0.83024597  1
  Al  Al7  1  0.22447984  0.20126096  0.57888093  1
  Al  Al8  1  0.77705703  0.09314426  0.32793893  1
  Al  Al9  1  0.89333987  0.20125365  0.08051247  1
  Al  Al10  1  0.44408096  0.09352645  0.83072713  1
  Al  Al11  1  0.55971786  0.19723098  0.58100173  1
  Al  Al12  1  0.10832476  0.42317312  0.33829906  1
  Al  Al13  1  0.78175004  0.42408979  0.82028075  1
  Al  Al14  1  0.88772967  0.54120736  0.57909476  1
  Al  Al15  1  0.44878239  0.41910191  0.34930325  1
  Al  Al16  1  0.11082688  0.42408982  0.82028065  1
  Al  Al17  1  0.21832535  0.54121960  0.58223602  1
  Al  Al18  1  0.78516885  0.42317309  0.33829894  1
  Al  Al19  1  0.89256614  0.53153447  0.07990476  1
  Al  Al20  1  0.44625066  0.42416536  0.81171320  1
  Al  Al21  1  0.55712184  0.54121950  0.58223602  1
  Al  Al22  1  0.10550599  0.77222472  0.33822286  1
  Al  Al23  1  0.21558166  0.88550329  0.07891231  1
  Al  Al24  1  0.77846493  0.75973670  0.83222112  1
  Al  Al25  1  0.88494288  0.87384208  0.57921436  1
  Al  Al26  1  0.43893589  0.77222467  0.33822295  1
  Al  Al27  1  0.55320568  0.87747689  0.08005771  1
  Al  Al28  1  0.10884451  0.76500823  0.82091679  1
  Al  Al29  1  0.21950286  0.87766088  0.58097718  1
  Al  Al30  1  0.77808048  0.76050563  0.32815014  1
  Al  Al31  1  0.88598394  0.87747695  0.08005767  1
  Al  Al32  1  0.44281387  0.76500819  0.82091673  1
  Al  Al33  1  0.55788168  0.87384206  0.57921433  1
  Gd  Gd34  1  0.21797798  0.54134055  0.09015100  1
  Gd  Gd35  1  0.55734821  0.54134053  0.09015100  1
  N  N36  1  0.22562209  0.20057238  0.38104358  1
  N  N37  1  0.10972352  0.09721968  0.12818493  1
  N  N38  1  0.88805543  0.20631858  0.87920965  1
  N  N39  1  0.77957216  0.09250083  0.63259790  1
  N  N40  1  0.56052182  0.19562308  0.38569052  1
  N  N41  1  0.44542775  0.09401653  0.12722481  1
  N  N42  1  0.22229270  0.20631866  0.87920967  1
  N  N43  1  0.11025145  0.09616384  0.63235293  1
  N  N44  1  0.89047231  0.20057240  0.38104359  1
  N  N45  1  0.77722240  0.09401654  0.12722488  1
  N  N46  1  0.55490197  0.20686281  0.87581285  1
  N  N47  1  0.44459373  0.09250078  0.63259797  1
  N  N48  1  0.21720594  0.54307948  0.37662805  1
  N  N49  1  0.10048902  0.40979191  0.14050838  1
  N  N50  1  0.89031116  0.53604448  0.87761949  1
  N  N51  1  0.78228037  0.42410562  0.62191012  1
  N  N52  1  0.55638139  0.54307941  0.37662805  1
  N  N53  1  0.46137337  0.39391994  0.15280902  1
  N  N54  1  0.22285086  0.53865480  0.84976606  1
  N  N55  1  0.11028071  0.42410564  0.62191001  1
  N  N56  1  0.88701680  0.54263308  0.38288206  1
  N  N57  1  0.80638582  0.40979186  0.14050826  1
  N  N58  1  0.55516107  0.53865477  0.84976607  1
  N  N59  1  0.44658121  0.42350425  0.61228670  1
  N  N60  1  0.21907492  0.87851674  0.38571360  1
  N  N61  1  0.09467765  0.79697508  0.14065224  1
  N  N62  1  0.88992397  0.87110964  0.87959956  1
  N  N63  1  0.77811286  0.76044086  0.63297704  1
  N  N64  1  0.55883120  0.87418981  0.38123063  1
  N  N65  1  0.42501381  0.79697502  0.14065233  1
  N  N66  1  0.22206041  0.87254586  0.87624340  1
  N  N67  1  0.10773167  0.76583741  0.62290680  1
  N  N68  1  0.88364563  0.87418980  0.38123065  1
  N  N69  1  0.77962445  0.75741764  0.12661632  1
  N  N70  1  0.55563301  0.87110958  0.87959960  1
  N  N71  1  0.44309752  0.76583736  0.62290672  1
