# generated using pymatgen
data_GdAl17N18
_symmetry_space_group_name_H-M   'P 1'
_cell_length_a   9.49323265
_cell_length_b   9.51114051
_cell_length_c   10.14333615
_cell_angle_alpha   89.91031464
_cell_angle_beta   89.99999995
_cell_angle_gamma   60.06226468
_symmetry_Int_Tables_number   1
_chemical_formula_structural   GdAl17N18
_chemical_formula_sum   'Gd2 Al34 N36'
_cell_volume   793.65107109
_cell_formula_units_Z   2
loop_
 _symmetry_equiv_pos_site_id
 _symmetry_equiv_pos_as_xyz
  1  'x, y, z'
loop_
 _atom_site_type_symbol
 _atom_site_label
 _atom_site_symmetry_multiplicity
 _atom_site_fract_x
 _atom_site_fract_y
 _atom_site_fract_z
 _atom_site_occupancy
  Al  Al0  1  0.11095826  0.09475016  0.31632369  1
  Al  Al1  1  0.22185474  0.20116908  0.06878064  1
  Al  Al2  1  0.77829383  0.09390133  0.81796444  1
  Al  Al3  1  0.89063569  0.20246215  0.56670937  1
  Al  Al4  1  0.44539442  0.09393388  0.31680483  1
  Al  Al5  1  0.55930013  0.19806640  0.06779010  1
  Al  Al6  1  0.11119015  0.09428636  0.81809880  1
  Al  Al7  1  0.22356883  0.20246216  0.56670937  1
  Al  Al8  1  0.77733837  0.09393387  0.31680482  1
  Al  Al9  1  0.89364285  0.20116908  0.06878064  1
  Al  Al10  1  0.44447149  0.09390133  0.81796443  1
  Al  Al11  1  0.55822205  0.20022257  0.56623612  1
  Al  Al12  1  0.10897337  0.42416983  0.32294977  1
  Al  Al13  1  0.78151233  0.42461088  0.80784656  1
  Al  Al14  1  0.88825251  0.54016168  0.56549102  1
  Al  Al15  1  0.44739901  0.42186866  0.32910572  1
  Al  Al16  1  0.11054347  0.42461090  0.80784656  1
  Al  Al17  1  0.21964533  0.54001605  0.56607672  1
  Al  Al18  1  0.78352350  0.42416982  0.32294977  1
  Al  Al19  1  0.89203818  0.53259031  0.06929188  1
  Al  Al20  1  0.44626084  0.42414499  0.79915133  1
  Al  Al21  1  0.55700532  0.54001604  0.56607672  1
  Al  Al22  1  0.10659574  0.76956106  0.32328858  1
  Al  Al23  1  0.21603620  0.88459427  0.06946250  1
  Al  Al24  1  0.77848593  0.75969480  0.81858494  1
  Al  Al25  1  0.88611520  0.87366521  0.56679144  1
  Al  Al26  1  0.44050988  0.76956106  0.32328858  1
  Al  Al27  1  0.55344340  0.87810944  0.06833304  1
  Al  Al28  1  0.11000354  0.76358309  0.80799385  1
  Al  Al29  1  0.22042572  0.87581525  0.56618271  1
  Al  Al30  1  0.77782937  0.76100792  0.31761375  1
  Al  Al31  1  0.88511384  0.87810945  0.06833303  1
  Al  Al32  1  0.44308005  0.76358308  0.80799385  1
  Al  Al33  1  0.55688626  0.87366521  0.56679144  1
  Gd  Gd34  1  0.21669797  0.54161627  0.06715707  1
  Gd  Gd35  1  0.55835243  0.54161628  0.06715707  1
  N  N36  1  0.22454134  0.20191827  0.37826736  1
  N  N37  1  0.10972073  0.09722521  0.12679876  1
  N  N38  1  0.88842858  0.20598933  0.87678316  1
  N  N39  1  0.77837880  0.09364122  0.62864610  1
  N  N40  1  0.55891474  0.19883719  0.38016912  1
  N  N41  1  0.44466025  0.09497605  0.12577103  1
  N  N42  1  0.22224875  0.20598934  0.87678315  1
  N  N43  1  0.11102879  0.09460908  0.62891607  1
  N  N44  1  0.89020708  0.20191826  0.37826736  1
  N  N45  1  0.77703037  0.09497604  0.12577103  1
  N  N46  1  0.55476294  0.20714077  0.87525724  1
  N  N47  1  0.44464664  0.09364123  0.62864610  1
  N  N48  1  0.21849388  0.54175781  0.37335471  1
  N  N49  1  0.10090777  0.41091335  0.13754639  1
  N  N50  1  0.89021699  0.53623271  0.87633134  1
  N  N51  1  0.78175314  0.42497716  0.61993714  1
  N  N52  1  0.55641500  0.54175781  0.37335471  1
  N  N53  1  0.45900855  0.39864958  0.14649848  1
  N  N54  1  0.22336755  0.53759733  0.84477639  1
  N  N55  1  0.10993638  0.42497717  0.61993714  1
  N  N56  1  0.88753187  0.54160295  0.37888573  1
  N  N57  1  0.80484555  0.41091335  0.13754639  1
  N  N58  1  0.55570181  0.53759732  0.84477638  1
  N  N59  1  0.44620914  0.42424841  0.61180988  1
  N  N60  1  0.22004231  0.87658207  0.38037598  1
  N  N61  1  0.09496537  0.79446685  0.13788201  1
  N  N62  1  0.89065795  0.87052868  0.87693864  1
  N  N63  1  0.77815712  0.76035242  0.62858606  1
  N  N64  1  0.55781205  0.87395919  0.37840401  1
  N  N65  1  0.42723446  0.79446685  0.13788201  1
  N  N66  1  0.22322980  0.87020709  0.87611253  1
  N  N67  1  0.10888827  0.76474782  0.62018795  1
  N  N68  1  0.88489543  0.87395919  0.37840401  1
  N  N69  1  0.77908747  0.75849173  0.12530231  1
  N  N70  1  0.55548005  0.87052868  0.87693864  1
  N  N71  1  0.44303059  0.76474782  0.62018795  1
