# generated using pymatgen
data_GdAl17N18
_symmetry_space_group_name_H-M   'P 1'
_cell_length_a   9.49323521
_cell_length_b   9.51114230
_cell_length_c   10.14333069
_cell_angle_alpha   90.08969552
_cell_angle_beta   90.00000016
_cell_angle_gamma   60.06226208
_symmetry_Int_Tables_number   1
_chemical_formula_structural   GdAl17N18
_chemical_formula_sum   'Gd2 Al34 N36'
_cell_volume   793.65098540
_cell_formula_units_Z   2
loop_
 _symmetry_equiv_pos_site_id
 _symmetry_equiv_pos_as_xyz
  1  'x, y, z'
loop_
 _atom_site_type_symbol
 _atom_site_label
 _atom_site_symmetry_multiplicity
 _atom_site_fract_x
 _atom_site_fract_y
 _atom_site_fract_z
 _atom_site_occupancy
  Al  Al0  1  0.11123551  0.09419564  0.40882286  1
  Al  Al1  1  0.22189993  0.20107873  0.15814107  1
  Al  Al2  1  0.77738351  0.09384361  0.91011663  1
  Al  Al3  1  0.89068098  0.20237159  0.66021210  1
  Al  Al4  1  0.44451684  0.09381067  0.40895721  1
  Al  Al5  1  0.55934526  0.19797616  0.15913159  1
  Al  Al6  1  0.11100344  0.09465981  0.91059774  1
  Al  Al7  1  0.22361410  0.20237160  0.66021210  1
  Al  Al8  1  0.77833915  0.09381066  0.40895720  1
  Al  Al9  1  0.89368802  0.20107873  0.15814107  1
  Al  Al10  1  0.44543955  0.09384362  0.91011662  1
  Al  Al11  1  0.55826726  0.20013216  0.66068546  1
  Al  Al12  1  0.11058883  0.42452019  0.41907508  1
  Al  Al13  1  0.78356872  0.42407947  0.90397201  1
  Al  Al14  1  0.88829781  0.54007109  0.66143058  1
  Al  Al15  1  0.44630619  0.42405430  0.42777050  1
  Al  Al16  1  0.10901851  0.42407948  0.90397201  1
  Al  Al17  1  0.21969064  0.53992546  0.66084518  1
  Al  Al18  1  0.78155768  0.42452017  0.41907508  1
  Al  Al19  1  0.89208335  0.53249998  0.15763003  1
  Al  Al20  1  0.44744415  0.42177840  0.89781663  1
  Al  Al21  1  0.55705061  0.53992545  0.66084518  1
  Al  Al22  1  0.11004887  0.76349235  0.41892776  1
  Al  Al23  1  0.21608131  0.88450408  0.15745923  1
  Al  Al24  1  0.77787453  0.76091761  0.90930775  1
  Al  Al25  1  0.88616046  0.87357469  0.66013003  1
  Al  Al26  1  0.44312548  0.76349234  0.41892776  1
  Al  Al27  1  0.55348857  0.87801922  0.15858850  1
  Al  Al28  1  0.10664084  0.76947088  0.90363297  1
  Al  Al29  1  0.22047104  0.87572463  0.66073864  1
  Al  Al30  1  0.77853124  0.75960419  0.40833682  1
  Al  Al31  1  0.88515891  0.87801923  0.15858851  1
  Al  Al32  1  0.44055497  0.76947088  0.90363297  1
  Al  Al33  1  0.55693153  0.87357469  0.66013003  1
  Gd  Gd34  1  0.21674282  0.54152632  0.15976472  1
  Gd  Gd35  1  0.55839755  0.54152633  0.15976472  1
  N  N36  1  0.22229410  0.20589859  0.35013870  1
  N  N37  1  0.10976586  0.09713496  0.10012295  1
  N  N38  1  0.89025225  0.20182794  0.84865432  1
  N  N39  1  0.77842405  0.09355067  0.59827567  1
  N  N40  1  0.55480831  0.20705005  0.35166472  1
  N  N41  1  0.44470539  0.09488585  0.10115071  1
  N  N42  1  0.22458649  0.20182795  0.84865432  1
  N  N43  1  0.11107410  0.09451847  0.59800564  1
  N  N44  1  0.88847399  0.20589857  0.35013870  1
  N  N45  1  0.77707544  0.09488585  0.10115071  1
  N  N46  1  0.55895982  0.19874705  0.84675268  1
  N  N47  1  0.44469194  0.09355067  0.59827567  1
  N  N48  1  0.22341292  0.53750658  0.38214552  1
  N  N49  1  0.10095294  0.41082305  0.08937558  1
  N  N50  1  0.88757706  0.54151257  0.84803611  1
  N  N51  1  0.78179841  0.42488660  0.60698469  1
  N  N52  1  0.55574720  0.53750656  0.38214553  1
  N  N53  1  0.45905357  0.39855956  0.08042389  1
  N  N54  1  0.21853908  0.54166745  0.85356743  1
  N  N55  1  0.10998169  0.42488661  0.60698468  1
  N  N56  1  0.89026231  0.53614208  0.35059061  1
  N  N57  1  0.80489071  0.41082305  0.08937559  1
  N  N58  1  0.55646017  0.54166746  0.85356743  1
  N  N59  1  0.44625438  0.42415795  0.61511206  1
  N  N60  1  0.22327520  0.87011631  0.35080932  1
  N  N61  1  0.09501039  0.79437683  0.08903969  1
  N  N62  1  0.88494055  0.87386889  0.84851764  1
  N  N63  1  0.77820242  0.76026184  0.59833575  1
  N  N64  1  0.55552539  0.87043801  0.34998310  1
  N  N65  1  0.42727947  0.79437684  0.08903969  1
  N  N66  1  0.22008749  0.87649172  0.84654552  1
  N  N67  1  0.10893355  0.76465716  0.60673382  1
  N  N68  1  0.89070330  0.87043800  0.34998311  1
  N  N69  1  0.77913265  0.75840140  0.10161954  1
  N  N70  1  0.55785724  0.87386890  0.84851764  1
  N  N71  1  0.44307598  0.76465716  0.60673382  1
