# generated using pymatgen
data_GdAl17N18
_symmetry_space_group_name_H-M   'P 1'
_cell_length_a   9.61525410
_cell_length_b   9.64950873
_cell_length_c   9.79774684
_cell_angle_alpha   89.95069101
_cell_angle_beta   90.00000082
_cell_angle_gamma   60.11736990
_symmetry_Int_Tables_number   1
_chemical_formula_structural   GdAl17N18
_chemical_formula_sum   'Gd2 Al34 N36'
_cell_volume   788.19744993
_cell_formula_units_Z   2
loop_
 _symmetry_equiv_pos_site_id
 _symmetry_equiv_pos_as_xyz
  1  'x, y, z'
loop_
 _atom_site_type_symbol
 _atom_site_label
 _atom_site_symmetry_multiplicity
 _atom_site_fract_x
 _atom_site_fract_y
 _atom_site_fract_z
 _atom_site_occupancy
  Al  Al0  1  0.11103792  0.09459087  0.32586920  1
  Al  Al1  1  0.22207521  0.20108571  0.07856520  1
  Al  Al2  1  0.77877032  0.09366421  0.82854174  1
  Al  Al3  1  0.89070290  0.20182168  0.57704542  1
  Al  Al4  1  0.44616328  0.09333406  0.32632749  1
  Al  Al5  1  0.55990035  0.19686600  0.07653897  1
  Al  Al6  1  0.11047818  0.09571035  0.82820394  1
  Al  Al7  1  0.22414215  0.20182166  0.57704542  1
  Al  Al8  1  0.77716934  0.09333406  0.32632752  1
  Al  Al9  1  0.89350581  0.20108566  0.07856519  1
  Al  Al10  1  0.44423215  0.09366419  0.82854178  1
  Al  Al11  1  0.55917734  0.19831199  0.57840522  1
  Al  Al12  1  0.10841170  0.42326183  0.33489587  1
  Al  Al13  1  0.78112680  0.42458214  0.81879456  1
  Al  Al14  1  0.88796490  0.54073690  0.57688403  1
  Al  Al15  1  0.44857312  0.41952046  0.34450665  1
  Al  Al16  1  0.11095774  0.42458217  0.81879451  1
  Al  Al17  1  0.21872513  0.54090827  0.57800539  1
  Al  Al18  1  0.78499319  0.42326182  0.33489581  1
  Al  Al19  1  0.89246125  0.53174420  0.07826649  1
  Al  Al20  1  0.44601982  0.42462703  0.81040494  1
  Al  Al21  1  0.55703335  0.54090821  0.57800539  1
  Al  Al22  1  0.10562391  0.77181649  0.33504477  1
  Al  Al23  1  0.21558177  0.88550310  0.07784110  1
  Al  Al24  1  0.77847301  0.75972060  0.82964860  1
  Al  Al25  1  0.88545849  0.87370265  0.57731167  1
  Al  Al26  1  0.43922623  0.77181647  0.33504482  1
  Al  Al27  1  0.55333138  0.87764909  0.07817107  1
  Al  Al28  1  0.10947469  0.76415064  0.81929111  1
  Al  Al29  1  0.21985752  0.87695161  0.57827495  1
  Al  Al30  1  0.77804174  0.76058313  0.32685206  1
  Al  Al31  1  0.88568612  0.87764912  0.07817104  1
  Al  Al32  1  0.44304133  0.76415061  0.81929107  1
  Al  Al33  1  0.55750551  0.87370264  0.57731166  1
  Gd  Gd34  1  0.21781168  0.54134140  0.08579162  1
  Gd  Gd35  1  0.55751364  0.54134141  0.08579162  1
  N  N36  1  0.22526764  0.20105633  0.38330804  1
  N  N37  1  0.10967219  0.09732233  0.13090387  1
  N  N38  1  0.88814439  0.20624743  0.88151328  1
  N  N39  1  0.77920865  0.09284124  0.63439750  1
  N  N40  1  0.56010961  0.19644748  0.38721409  1
  N  N41  1  0.44524556  0.09418380  0.12992984  1
  N  N42  1  0.22227487  0.20624748  0.88151328  1
  N  N43  1  0.11049961  0.09566748  0.63424879  1
  N  N44  1  0.89034277  0.20105633  0.38330804  1
  N  N45  1  0.77723730  0.09418381  0.12992987  1
  N  N46  1  0.55483556  0.20699560  0.87889328  1
  N  N47  1  0.44461681  0.09284121  0.63439753  1
  N  N48  1  0.21755275  0.54271809  0.37786425  1
  N  N49  1  0.10049286  0.40981587  0.14262660  1
  N  N50  1  0.89023916  0.53618844  0.88037474  1
  N  N51  1  0.78173070  0.42459707  0.62479112  1
  N  N52  1  0.55639592  0.54271807  0.37786426  1
  N  N53  1  0.46113325  0.39440019  0.15447227  1
  N  N54  1  0.22310002  0.53837296  0.85311310  1
  N  N55  1  0.11033893  0.42459709  0.62479107  1
  N  N56  1  0.88725449  0.54215772  0.38480076  1
  N  N57  1  0.80635799  0.40981583  0.14262654  1
  N  N58  1  0.55519374  0.53837294  0.85311310  1
  N  N59  1  0.44629462  0.42407742  0.61573533  1
  N  N60  1  0.21932935  0.87800793  0.38710789  1
  N  N61  1  0.09449966  0.79677146  0.14296615  1
  N  N62  1  0.89010733  0.87096147  0.88185104  1
  N  N63  1  0.77814653  0.76037356  0.63454573  1
  N  N64  1  0.55849674  0.87410521  0.38353342  1
  N  N65  1  0.42539547  0.79677144  0.14296620  1
  N  N66  1  0.22234619  0.87197432  0.87954044  1
  N  N67  1  0.10831615  0.76516626  0.62551818  1
  N  N68  1  0.88406471  0.87410520  0.38353343  1
  N  N69  1  0.77954149  0.75758360  0.12948624  1
  N  N70  1  0.55559785  0.87096145  0.88185106  1
  N  N71  1  0.44318423  0.76516622  0.62551814  1
