# generated using pymatgen
data_GdAl17N18
_symmetry_space_group_name_H-M   'P 1'
_cell_length_a   9.49323364
_cell_length_b   9.51113965
_cell_length_c   10.14333312
_cell_angle_alpha   90.08971890
_cell_angle_beta   90.00000018
_cell_angle_gamma   60.06225832
_symmetry_Int_Tables_number   1
_chemical_formula_structural   GdAl17N18
_chemical_formula_sum   'Gd2 Al34 N36'
_cell_volume   793.65079295
_cell_formula_units_Z   2
loop_
 _symmetry_equiv_pos_site_id
 _symmetry_equiv_pos_as_xyz
  1  'x, y, z'
loop_
 _atom_site_type_symbol
 _atom_site_label
 _atom_site_symmetry_multiplicity
 _atom_site_fract_x
 _atom_site_fract_y
 _atom_site_fract_z
 _atom_site_occupancy
  Al  Al0  1  0.11123081  0.09420505  0.40518870  1
  Al  Al1  1  0.22189533  0.20108846  0.15450880  1
  Al  Al2  1  0.77737858  0.09385305  0.90648713  1
  Al  Al3  1  0.89067666  0.20238052  0.65658228  1
  Al  Al4  1  0.44451187  0.09382019  0.40532393  1
  Al  Al5  1  0.55934017  0.19798632  0.15550219  1
  Al  Al6  1  0.11099870  0.09466929  0.90696863  1
  Al  Al7  1  0.22360948  0.20238054  0.65658227  1
  Al  Al8  1  0.77833460  0.09382019  0.40532392  1
  Al  Al9  1  0.89368290  0.20108846  0.15450880  1
  Al  Al10  1  0.44543504  0.09385306  0.90648712  1
  Al  Al11  1  0.55826271  0.20014124  0.65705598  1
  Al  Al12  1  0.11058374  0.42452987  0.41544830  1
  Al  Al13  1  0.78356364  0.42408889  0.90034494  1
  Al  Al14  1  0.88829275  0.54008121  0.65780398  1
  Al  Al15  1  0.44630121  0.42406427  0.42414578  1
  Al  Al16  1  0.10901417  0.42408889  0.90034494  1
  Al  Al17  1  0.21968570  0.53993507  0.65722039  1
  Al  Al18  1  0.78155309  0.42452985  0.41544831  1
  Al  Al19  1  0.89207866  0.53250936  0.15399782  1
  Al  Al20  1  0.44743940  0.42178789  0.89419083  1
  Al  Al21  1  0.55704593  0.53993507  0.65722039  1
  Al  Al22  1  0.11004432  0.76350175  0.41530053  1
  Al  Al23  1  0.21607682  0.88451304  0.15382698  1
  Al  Al24  1  0.77786946  0.76092776  0.90567711  1
  Al  Al25  1  0.88615497  0.87358471  0.65649933  1
  Al  Al26  1  0.44312063  0.76350174  0.41530053  1
  Al  Al27  1  0.55348388  0.87802864  0.15495617  1
  Al  Al28  1  0.10663595  0.76948042  0.90000490  1
  Al  Al29  1  0.22046576  0.87573518  0.65710970  1
  Al  Al30  1  0.77852677  0.75961314  0.40470286  1
  Al  Al31  1  0.88515419  0.87802864  0.15495617  1
  Al  Al32  1  0.44055032  0.76948042  0.90000490  1
  Al  Al33  1  0.55692700  0.87358471  0.65649933  1
  Gd  Gd34  1  0.21673724  0.54153647  0.15613836  1
  Gd  Gd35  1  0.55839297  0.54153648  0.15613836  1
  N  N36  1  0.22228899  0.20590908  0.34650675  1
  N  N37  1  0.10976115  0.09714439  0.09649264  1
  N  N38  1  0.89024751  0.20183736  0.84502513  1
  N  N39  1  0.77841917  0.09356049  0.59464389  1
  N  N40  1  0.55480302  0.20706062  0.34803467  1
  N  N41  1  0.44470093  0.09489559  0.09752038  1
  N  N42  1  0.22458181  0.20183738  0.84502512  1
  N  N43  1  0.11106931  0.09452805  0.59437344  1
  N  N44  1  0.88846861  0.20590906  0.34650675  1
  N  N45  1  0.77707017  0.09489558  0.09752039  1
  N  N46  1  0.55895489  0.19875690  0.84312376  1
  N  N47  1  0.44468700  0.09356049  0.59464389  1
  N  N48  1  0.22340842  0.53751579  0.37851870  1
  N  N49  1  0.10094867  0.41083281  0.08574646  1
  N  N50  1  0.88757230  0.54152209  0.84440893  1
  N  N51  1  0.78179362  0.42489643  0.60335773  1
  N  N52  1  0.55574249  0.53751578  0.37851871  1
  N  N53  1  0.45904806  0.39857058  0.07679719  1
  N  N54  1  0.21853445  0.54167693  0.84994081  1
  N  N55  1  0.10997664  0.42489644  0.60335772  1
  N  N56  1  0.89025798  0.53615075  0.34695946  1
  N  N57  1  0.80488520  0.41083281  0.08574647  1
  N  N58  1  0.55645533  0.54167694  0.84994081  1
  N  N59  1  0.44624936  0.42416798  0.61148643  1
  N  N60  1  0.22327110  0.87012451  0.34717807  1
  N  N61  1  0.09500581  0.79438586  0.08540996  1
  N  N62  1  0.88493574  0.87387856  0.84488756  1
  N  N63  1  0.77819789  0.76027089  0.59470397  1
  N  N64  1  0.55552030  0.87044686  0.34635108  1
  N  N65  1  0.42727502  0.79438586  0.08540995  1
  N  N66  1  0.22008268  0.87650133  0.84291667  1
  N  N67  1  0.10892894  0.76466661  0.60310623  1
  N  N68  1  0.89069954  0.87044685  0.34635108  1
  N  N69  1  0.77912784  0.75841100  0.09798849  1
  N  N70  1  0.55785238  0.87387857  0.84488756  1
  N  N71  1  0.44307114  0.76466661  0.60310623  1
